REMARK  Name = ZINC31749168
REMARK  9 active torsions:
REMARK  status: ('A' for Active; 'I' for Inactive)
REMARK    1  A    between atoms: C_1  and  C_2
REMARK    2  A    between atoms: C_2  and  C_3
REMARK    3  A    between atoms: C_2  and  C_4
REMARK    4  A    between atoms: C_7  and  C_10
REMARK    5  A    between atoms: C_10  and  C_32
REMARK    6  A    between atoms: N_13  and  C_17
REMARK    7  A    between atoms: C_17  and  C_18
REMARK    8  A    between atoms: N_20  and  C_21
REMARK    9  A    between atoms: C_22  and  C_29
REMARK                            x       y       z     vdW  Elec       q    Type
REMARK                         _______ _______ _______ _____ _____    ______ ____
ROOT
ATOM      1  C   UNL     1      -5.419  -2.005   0.043  0.00  0.00    +0.135 C 
ATOM      2  C   UNL     1      -5.969  -2.086  -1.367  0.00  0.00    +0.251 C 
ATOM      3  O   UNL     1      -5.542  -2.758  -2.281  0.00  0.00    -0.272 OA
ATOM      4  N   UNL     1      -7.031  -1.256  -1.393  0.00  0.00    -0.215 N 
ATOM      5  C   UNL     1      -7.226  -0.668  -0.207  0.00  0.00    +0.310 C 
ATOM      6  O   UNL     1      -8.123   0.121   0.016  0.00  0.00    -0.252 OA
ATOM      7  N   UNL     1      -6.319  -1.049   0.711  0.00  0.00    -0.281 N 
ATOM      8  C   UNL     1      -5.481  -3.371   0.728  0.00  0.00    +0.047 C 
ATOM      9  H   UNL     1      -6.269  -0.752   1.633  0.00  0.00    +0.152 HD
ENDROOT
BRANCH   1  13
ATOM     10  C   UNL     1      -1.412  -0.526   0.013  0.00  0.00    -0.045 A 
ATOM     11  C   UNL     1      -2.259  -0.204   1.056  0.00  0.00    +0.004 A 
ATOM     12  C   UNL     1      -3.556  -0.683   1.066  0.00  0.00    +0.006 A 
ATOM     13  C   UNL     1      -4.006  -1.482   0.032  0.00  0.00    -0.015 A 
ATOM     14  C   UNL     1      -3.159  -1.803  -1.012  0.00  0.00    +0.006 A 
ATOM     15  C   UNL     1      -1.863  -1.321  -1.024  0.00  0.00    +0.004 A 
BRANCH  10  17
ATOM     16  C   UNL     1      -0.019   1.526   0.010  0.00  0.00    +0.012 C 
ATOM     17  C   UNL     1       0.002  -0.004   0.002  0.00  0.00    +0.013 C 
ATOM     18  C   UNL     1       0.742  -0.511   1.242  0.00  0.00    +0.012 C 
ENDBRANCH  10  17
ENDBRANCH   1  13
BRANCH   4  19
ATOM     19  C   UNL     1      -7.867  -1.026  -2.573  0.00  0.00    +0.214 C 
BRANCH  19  20
ATOM     20  C   UNL     1      -9.001  -2.019  -2.587  0.00  0.00    +0.236 C 
ATOM     21  O   UNL     1      -9.100  -2.838  -1.698  0.00  0.00    -0.274 OA
ATOM     22  N   UNL     1      -9.904  -1.997  -3.587  0.00  0.00    -0.278 N 
ATOM     23  H   UNL     1      -9.824  -1.342  -4.298  0.00  0.00    +0.155 HD
BRANCH  22  24
ATOM     24  C   UNL     1     -10.947  -2.911  -3.600  0.00  0.00    +0.084 A 
ATOM     25  C   UNL     1     -11.953  -3.039  -4.539  0.00  0.00    +0.068 A 
ATOM     26  C   UNL     1     -12.942  -4.093  -4.321  0.00  0.00    -0.023 A 
ATOM     27  C   UNL     1     -12.736  -4.816  -3.206  0.00  0.00    -0.004 A 
ATOM     28  S   UNL     1     -11.273  -4.119  -2.484  0.00  0.00    -0.077 S 
ATOM     29  C   UNL     1     -13.783  -5.883  -3.028  0.00  0.00    +0.043 C 
ATOM     30  C   UNL     1     -14.934  -5.460  -3.967  0.00  0.00    +0.010 C 
ATOM     31  C   UNL     1     -14.186  -4.627  -5.028  0.00  0.00    +0.037 C 
BRANCH  25  32
ATOM     32  C   UNL     1     -12.026  -2.153  -5.705  0.00  0.00    +0.244 C 
ATOM     33  O   UNL     1     -11.459  -2.459  -6.738  0.00  0.00    -0.270 OA
ATOM     34  N   UNL     1     -12.721  -1.000  -5.634  0.00  0.00    -0.325 N 
ATOM     35  H   UNL     1     -13.173  -0.757  -4.811  0.00  0.00    +0.145 HD
ATOM     36  H   UNL     1     -12.769  -0.414  -6.405  0.00  0.00    +0.145 HD
ENDBRANCH  25  32
ENDBRANCH  22  24
ENDBRANCH  19  20
ENDBRANCH   4  19
TORSDOF 6
