REMARK  Name = ZINC38600428
REMARK  6 active torsions:
REMARK  status: ('A' for Active; 'I' for Inactive)
REMARK    1  A    between atoms: C_1  and  O_2
REMARK    2  A    between atoms: O_2  and  C_3
REMARK    3  A    between atoms: C_3  and  C_5
REMARK    4  A    between atoms: C_7  and  N_16
REMARK    5  A    between atoms: C_17  and  C_19
REMARK    6  A    between atoms: C_19  and  N_20
REMARK                            x       y       z     vdW  Elec       q    Type
REMARK                         _______ _______ _______ _____ _____    ______ ____
ROOT
ATOM      1  C   UNL     1      -0.280  -3.544  -2.791  0.00  0.00    +0.234 C 
ATOM      2  C   UNL     1      -0.766  -2.614  -1.701  0.00  0.00    +0.053 C 
ATOM      3  C   UNL     1       0.352  -1.917  -1.276  0.00  0.00    +0.019 A 
ATOM      4  C   UNL     1       0.537  -0.917  -0.291  0.00  0.00    +0.031 A 
ATOM      5  C   UNL     1       1.773  -0.400  -0.083  0.00  0.00    +0.042 A 
ATOM      6  C   UNL     1       2.882  -0.829  -0.820  0.00  0.00    +0.022 A 
ATOM      7  C   UNL     1       2.778  -1.782  -1.778  0.00  0.00    +0.027 A 
ATOM      8  C   UNL     1       1.518  -2.372  -2.054  0.00  0.00    +0.045 A 
ATOM      9  N   UNL     1       1.160  -3.300  -2.921  0.00  0.00    -0.367 N 
ATOM     10 CL   UNL     1       1.985   0.826   1.128  0.00  0.00    -0.084 Cl
ATOM     11  H   UNL     1       1.753  -3.749  -3.542  0.00  0.00    +0.161 HD
ENDROOT
BRANCH   2  12
ATOM     12  N   UNL     1      -2.040  -2.488  -1.235  0.00  0.00    -0.288 N 
ATOM     13  C   UNL     1      -3.049  -3.141  -1.845  0.00  0.00    +0.200 C 
ATOM     14  O   UNL     1      -2.811  -3.921  -2.742  0.00  0.00    -0.278 OA
ATOM     15  H   UNL     1      -2.221  -1.929  -0.463  0.00  0.00    +0.155 HD
BRANCH  13  16
ATOM     16  C   UNL     1      -4.472  -2.901  -1.413  0.00  0.00    +0.019 C 
BRANCH  16  17
ATOM     17  N   UNL     1      -5.376  -3.725  -2.226  0.00  0.00    +0.385 N 
ATOM     18  C   UNL     1      -5.234  -3.329  -3.641  0.00  0.00    -0.078 C 
ATOM     19  C   UNL     1      -5.647  -4.495  -4.503  0.00  0.00    -0.019 C 
ATOM     20  C   UNL     1      -7.116  -4.374  -4.949  0.00  0.00    -0.002 C 
ATOM     21  C   UNL     1      -8.019  -3.862  -3.809  0.00  0.00    -0.002 C 
ATOM     22  C   UNL     1      -7.678  -4.487  -2.481  0.00  0.00    -0.019 C 
ATOM     23  C   UNL     1      -6.676  -3.578  -1.739  0.00  0.00    -0.078 C 
ATOM     24  H   UNL     1      -5.103  -4.692  -2.134  0.00  0.00    -0.081 HD
ENDBRANCH  16  17
ENDBRANCH  13  16
ENDBRANCH   2  12
BRANCH   1  25
ATOM     25  C   UNL     1      -0.530  -4.978  -2.400  0.00  0.00    +0.335 C 
ATOM     26  O   UNL     1       0.172  -5.510  -1.573  0.00  0.00    -0.248 OA
BRANCH  25  28
ATOM     27  C   UNL     1      -1.714  -7.018  -2.551  0.00  0.00    +0.280 C 
ATOM     28  O   UNL     1      -1.534  -5.663  -2.969  0.00  0.00    -0.466 OA
ENDBRANCH  25  28
ENDBRANCH   1  25
TORSDOF 5
