REMARK  Name = ZINC05938214
REMARK  5 active torsions:
REMARK  status: ('A' for Active; 'I' for Inactive)
REMARK    1  A    between atoms: C_1  and  C_2
REMARK    2  A    between atoms: C_2  and  C_4
REMARK    3  A    between atoms: C_2  and  S_15
REMARK    4  A    between atoms: N_6  and  C_7
REMARK    5  A    between atoms: S_15  and  C_16
REMARK                            x       y       z     vdW  Elec       q    Type
REMARK                         _______ _______ _______ _____ _____    ______ ____
ROOT
ATOM      1  C   UNL     1       5.239   0.302   1.248  0.00  0.00    +0.029 C 
ATOM      2  C   UNL     1       4.729  -0.323  -0.052  0.00  0.00    +0.136 C 
ENDROOT
BRANCH   2   3
ATOM      3  C   UNL     1       5.265  -1.725  -0.180  0.00  0.00    +0.230 C 
ATOM      4  O   UNL     1       4.564  -2.672   0.110  0.00  0.00    -0.274 OA
ATOM      5  N   UNL     1       6.524  -1.928  -0.617  0.00  0.00    -0.285 N 
ATOM      6  H   UNL     1       7.062  -1.176  -0.912  0.00  0.00    +0.155 HD
BRANCH   5   7
ATOM      7  C   UNL     1       7.056  -3.222  -0.644  0.00  0.00    +0.036 A 
ATOM      8  C   UNL     1       8.403  -3.426  -0.376  0.00  0.00    +0.043 A 
ATOM      9  C   UNL     1       8.924  -4.706  -0.398  0.00  0.00    +0.044 A 
ATOM     10  C   UNL     1       8.107  -5.782  -0.698  0.00  0.00    +0.040 A 
ATOM     11  C   UNL     1       6.766  -5.581  -0.971  0.00  0.00    +0.044 A 
ATOM     12  C   UNL     1       6.238  -4.303  -0.945  0.00  0.00    +0.043 A 
ATOM     13 CL   UNL     1       5.744  -6.933  -1.346  0.00  0.00    -0.083 Cl
ATOM     14 CL   UNL     1      10.607  -4.964  -0.057  0.00  0.00    -0.083 Cl
ENDBRANCH   5   7
ENDBRANCH   2   3
BRANCH   2  15
ATOM     15  S   UNL     1       2.919  -0.369  -0.029  0.00  0.00    -0.093 S 
BRANCH  15  16
ATOM     16  C   UNL     1       2.569   1.358  -0.028  0.00  0.00    +0.109 A 
ATOM     17  C   UNL     1       1.223   1.820  -0.012  0.00  0.00    +0.040 A 
ATOM     18  C   UNL     1      -0.018   1.066   0.004  0.00  0.00    +0.020 A 
ATOM     19  C   UNL     1      -1.185   1.726   0.011  0.00  0.00    +0.048 A 
ATOM     20  S   UNL     1      -0.694   3.440   0.009  0.00  0.00    -0.077 S 
ATOM     21  C   UNL     1       1.066   3.223  -0.012  0.00  0.00    +0.112 A 
ATOM     22  N   UNL     1       2.107   4.032  -0.026  0.00  0.00    -0.228 NA
ATOM     23  C   UNL     1       3.332   3.543  -0.040  0.00  0.00    +0.223 A 
ATOM     24  N   UNL     1       3.555   2.242  -0.041  0.00  0.00    -0.229 NA
ENDBRANCH  15  16
ENDBRANCH   2  15
TORSDOF 4
