REMARK  Name = ZINC14183038
REMARK  10 active torsions:
REMARK  status: ('A' for Active; 'I' for Inactive)
REMARK    1  A    between atoms: C_1  and  C_2
REMARK    2  A    between atoms: C_5  and  S_9
REMARK    3  A    between atoms: C_6  and  C_8
REMARK    4  A    between atoms: S_9  and  C_10
REMARK    5  A    between atoms: C_10  and  C_11
REMARK    6  A    between atoms: N_13  and  C_14
REMARK    7  A    between atoms: C_14  and  C_16
REMARK    8  A    between atoms: C_14  and  C_17
REMARK    9  A    between atoms: C_21  and  S_23
REMARK   10  A    between atoms: S_23  and  N_26
REMARK                            x       y       z     vdW  Elec       q    Type
REMARK                         _______ _______ _______ _____ _____    ______ ____
ROOT
ATOM      1  C   UNL     1      -0.718   1.572   1.248  0.00  0.00    +0.224 C 
ATOM      2  O   UNL     1      -1.714   2.256   1.150  0.00  0.00    -0.275 OA
ATOM      3  N   UNL     1      -0.242   1.246   2.466  0.00  0.00    -0.308 N 
ATOM      4  H   UNL     1       0.555   0.699   2.544  0.00  0.00    +0.149 HD
ENDROOT
BRANCH   3   5
ATOM      5  C   UNL     1      -0.927   1.718   3.671  0.00  0.00    +0.100 C 
ATOM      6  C   UNL     1      -2.065   0.757   4.021  0.00  0.00    +0.033 C 
BRANCH   5   7
ATOM      7  C   UNL     1       0.051   1.776   4.816  0.00  0.00    -0.026 A 
ATOM      8  C   UNL     1       0.992   0.775   4.972  0.00  0.00    +0.005 A 
ATOM      9  C   UNL     1       1.889   0.828   6.022  0.00  0.00    +0.002 A 
ATOM     10  C   UNL     1       1.847   1.882   6.915  0.00  0.00    +0.028 A 
ATOM     11  C   UNL     1       0.907   2.883   6.759  0.00  0.00    +0.105 A 
ATOM     12  C   UNL     1       0.012   2.833   5.706  0.00  0.00    +0.034 A 
BRANCH  11  13
ATOM     13  S   UNL     1       0.853   4.227   7.897  0.00  0.00    +0.056 S 
ATOM     14  O   UNL     1      -0.468   4.748   7.848  0.00  0.00    -0.153 OA
ATOM     15  O   UNL     1       1.444   3.762   9.102  0.00  0.00    -0.153 OA
BRANCH  13  16
ATOM     16  N   UNL     1       1.850   5.410   7.306  0.00  0.00    -0.204 NA
ATOM     17  H   UNL     1       2.326   5.271   6.472  0.00  0.00    +0.144 HD
ATOM     18  H   UNL     1       1.959   6.241   7.793  0.00  0.00    +0.144 HD
ENDBRANCH  13  16
ENDBRANCH  11  13
ENDBRANCH   5   7
ENDBRANCH   3   5
BRANCH   1  19
ATOM     19  C   UNL     1      -0.013   1.086   0.008  0.00  0.00    +0.170 C 
BRANCH  19  20
ATOM     20  S   UNL     1      -0.890   1.687  -1.462  0.00  0.00    -0.116 S 
BRANCH  20  25
ATOM     21  C   UNL     1       2.312  -0.520  -6.078  0.00  0.00    +0.044 C 
ATOM     22  C   UNL     1       1.513   0.032  -4.926  0.00  0.00    -0.050 A 
ATOM     23  C   UNL     1       1.903  -0.235  -3.626  0.00  0.00    +0.004 A 
ATOM     24  C   UNL     1       1.173   0.268  -2.567  0.00  0.00    +0.015 A 
ATOM     25  C   UNL     1       0.045   1.043  -2.809  0.00  0.00    +0.011 A 
ATOM     26  C   UNL     1      -0.347   1.304  -4.117  0.00  0.00    -0.037 A 
ATOM     27  C   UNL     1       0.391   0.801  -5.170  0.00  0.00    +0.007 A 
ATOM     28  C   UNL     1      -1.573   2.138  -4.384  0.00  0.00    +0.045 C 
ENDBRANCH  20  25
ENDBRANCH  19  20
ENDBRANCH   1  19
TORSDOF 7
