REMARK  Name = ZINC05256098
REMARK  2 active torsions:
REMARK  status: ('A' for Active; 'I' for Inactive)
REMARK    1  A    between atoms: C_9  and  C_11
REMARK    2  A    between atoms: N_20  and  C_21
REMARK                            x       y       z     vdW  Elec       q    Type
REMARK                         _______ _______ _______ _____ _____    ______ ____
ROOT
ATOM      1  C   UNL     1      -2.210   2.608   2.872  0.00  0.00    +0.019 A 
ATOM      2  C   UNL     1      -1.121   1.841   2.409  0.00  0.00    +0.025 A 
ATOM      3  C   UNL     1      -0.994   2.082   1.095  0.00  0.00    +0.044 A 
ATOM      4  N   UNL     1      -1.969   2.966   0.715  0.00  0.00    -0.347 N 
ATOM      5  C   UNL     1      -2.708   3.286   1.812  0.00  0.00    +0.086 A 
ATOM      6  C   UNL     1      -2.159   3.462  -0.652  0.00  0.00    +0.140 C 
ATOM      7  C   UNL     1      -0.875   3.232  -1.456  0.00  0.00    +0.132 C 
ATOM      8  N   UNL     1      -0.393   1.863  -1.220  0.00  0.00    -0.271 N 
ATOM      9  C   UNL     1       0.031   1.503   0.146  0.00  0.00    +0.155 C 
ATOM     10  C   UNL     1      -0.341   0.963  -2.222  0.00  0.00    +0.308 C 
ATOM     11  O   UNL     1      -0.023  -0.188  -1.990  0.00  0.00    -0.252 OA
ATOM     12  N   UNL     1      -0.640   1.339  -3.481  0.00  0.00    -0.264 N 
ATOM     13  H   UNL     1      -0.820   2.271  -3.679  0.00  0.00    +0.157 HD
ENDROOT
BRANCH   9  14
ATOM     14  C   UNL     1       0.078   0.004   0.292  0.00  0.00    -0.021 A 
ATOM     15  C   UNL     1      -1.062  -0.748   0.072  0.00  0.00    +0.007 A 
ATOM     16  C   UNL     1      -1.018  -2.123   0.201  0.00  0.00    +0.020 A 
ATOM     17  C   UNL     1       0.164  -2.747   0.560  0.00  0.00    +0.041 A 
ATOM     18  C   UNL     1       1.302  -1.994   0.785  0.00  0.00    +0.020 A 
ATOM     19  C   UNL     1       1.258  -0.619   0.651  0.00  0.00    +0.007 A 
ATOM     20 CL   UNL     1       0.217  -4.474   0.728  0.00  0.00    -0.084 Cl
ENDBRANCH   9  14
BRANCH  12  21
ATOM     21  C   UNL     1      -0.692   0.385  -4.502  0.00  0.00    +0.073 A 
ATOM     22  C   UNL     1      -0.972   0.557  -5.824  0.00  0.00    +0.031 A 
ATOM     23  C   UNL     1      -0.964  -0.548  -6.656  0.00  0.00    +0.009 A 
ATOM     24  C   UNL     1      -0.677  -1.764  -6.133  0.00  0.00    +0.047 A 
ATOM     25  S   UNL     1      -0.399  -1.374  -4.413  0.00  0.00    -0.082 S 
ENDBRANCH  12  21
TORSDOF 2
