REMARK  Name = ZINC20701502
REMARK  10 active torsions:
REMARK  status: ('A' for Active; 'I' for Inactive)
REMARK    1  A    between atoms: C_1  and  C_2
REMARK    2  A    between atoms: C_2  and  C_3
REMARK    3  A    between atoms: C_3  and  N_4
REMARK    4  A    between atoms: N_4  and  C_5
REMARK    5  A    between atoms: N_4  and  S_8
REMARK    6  A    between atoms: C_5  and  C_6
REMARK    7  A    between atoms: C_6  and  C_7
REMARK    8  A    between atoms: S_8  and  C_11
REMARK    9  A    between atoms: C_24  and  C_27
REMARK   10  A    between atoms: C_32  and  O_33
REMARK                            x       y       z     vdW  Elec       q    Type
REMARK                         _______ _______ _______ _____ _____    ______ ____
ROOT
ATOM      1  C   UNL     1       1.655   2.196  -0.002  0.00  0.00    +0.106 A 
ATOM      2  C   UNL     1       2.323   2.408   1.190  0.00  0.00    +0.030 A 
ATOM      3  C   UNL     1       3.635   2.836   1.184  0.00  0.00    +0.025 A 
ATOM      4  C   UNL     1       4.292   3.067  -0.019  0.00  0.00    +0.031 A 
ATOM      5  C   UNL     1       3.612   2.841  -1.222  0.00  0.00    -0.018 A 
ATOM      6  C   UNL     1       2.302   2.416  -1.204  0.00  0.00    +0.034 A 
ATOM      7  C   UNL     1       4.361   3.057  -2.479  0.00  0.00    +0.049 C 
ATOM      8  C   UNL     1       3.698   3.396  -3.775  0.00  0.00    -0.023 C 
ATOM      9  C   UNL     1       4.503   4.177  -4.486  0.00  0.00    -0.030 C 
ATOM     10  C   UNL     1       5.795   4.441  -3.710  0.00  0.00    +0.033 C 
ATOM     11  C   UNL     1       5.327   4.260  -2.260  0.00  0.00    +0.029 C 
ATOM     12  C   UNL     1       6.356   3.776  -1.255  0.00  0.00    +0.109 C 
ATOM     13  N   UNL     1       5.609   3.538  -0.001  0.00  0.00    -0.336 N 
ATOM     14  H   UNL     1       6.089   3.733   0.970  0.00  0.00    +0.147 HD
ENDROOT
BRANCH  12  15
ATOM     15  C   UNL     1       7.413   4.828  -1.040  0.00  0.00    +0.017 A 
ATOM     16  C   UNL     1       7.312   5.702   0.025  0.00  0.00    +0.029 A 
ATOM     17  C   UNL     1       8.285   6.665   0.226  0.00  0.00    +0.043 A 
ATOM     18  C   UNL     1       9.355   6.763  -0.645  0.00  0.00    +0.043 A 
ATOM     19  C   UNL     1       9.458   5.894  -1.715  0.00  0.00    +0.084 A 
ATOM     20  C   UNL     1       8.485   4.924  -1.915  0.00  0.00    +0.140 A 
ATOM     21 CL   UNL     1      10.801   6.016  -2.808  0.00  0.00    -0.080 Cl
ATOM     22 CL   UNL     1       8.158   7.758   1.569  0.00  0.00    -0.083 Cl
BRANCH  20  23
ATOM     23  O   UNL     1       8.583   4.068  -2.967  0.00  0.00    -0.505 OA
ATOM     24  H   UNL     1       9.434   4.144  -3.660  0.00  0.00    +0.292 HD
ENDBRANCH  20  23
ENDBRANCH  12  15
BRANCH   1  25
ATOM     25  S   UNL     1      -0.020   1.652   0.011  0.00  0.00    +0.061 S 
ATOM     26  O   UNL     1      -0.589   2.057  -1.227  0.00  0.00    -0.153 OA
ATOM     27  O   UNL     1      -0.565   2.044   1.264  0.00  0.00    -0.153 OA
BRANCH  25  28
ATOM     28  N   UNL     1       0.002  -0.004   0.002  0.00  0.00    -0.177 NA
BRANCH  28  29
ATOM     29  C   UNL     1       0.024  -0.743   1.267  0.00  0.00    +0.109 C 
BRANCH  29  31
ATOM     30  C   UNL     1      -1.381  -1.901   2.978  0.00  0.00    +0.005 C 
ATOM     31  C   UNL     1      -1.404  -1.129   1.657  0.00  0.00    +0.014 C 
ENDBRANCH  29  31
ENDBRANCH  28  29
BRANCH  28  32
ATOM     32  C   UNL     1      -0.000  -0.730  -1.271  0.00  0.00    +0.109 C 
BRANCH  32  33
ATOM     33  C   UNL     1       1.438  -1.072  -1.665  0.00  0.00    +0.014 C 
ATOM     34  C   UNL     1       1.436  -1.830  -2.994  0.00  0.00    +0.005 C 
ENDBRANCH  32  33
ENDBRANCH  28  32
ENDBRANCH  25  28
ENDBRANCH   1  25
TORSDOF 8
