REMARK  Name = ZINC41687424
REMARK  7 active torsions:
REMARK  status: ('A' for Active; 'I' for Inactive)
REMARK    1  A    between atoms: C_1  and  C_2
REMARK    2  A    between atoms: C_2  and  C_4
REMARK    3  A    between atoms: C_2  and  O_21
REMARK    4  A    between atoms: N_6  and  N_7
REMARK    5  A    between atoms: C_8  and  C_10
REMARK    6  A    between atoms: N_18  and  C_19
REMARK    7  A    between atoms: O_21  and  C_22
REMARK                            x       y       z     vdW  Elec       q    Type
REMARK                         _______ _______ _______ _____ _____    ______ ____
ROOT
ATOM      1  N   UNL     1       0.831  -0.665  -3.698  0.00  0.00    -0.229 N 
ATOM      2  C   UNL     1       0.287  -0.422  -4.907  0.00  0.00    +0.278 C 
ATOM      3  O   UNL     1      -0.733   0.234  -4.995  0.00  0.00    -0.267 OA
ATOM      4  H   UNL     1       1.683  -1.125  -3.633  0.00  0.00    +0.173 HD
ENDROOT
BRANCH   2   5
ATOM      5  C   UNL     1       0.927  -0.950  -6.120  0.00  0.00    +0.125 A 
ATOM      6  C   UNL     1       0.538  -2.065  -6.795  0.00  0.00    +0.079 A 
ATOM      7  C   UNL     1       1.410  -2.226  -7.900  0.00  0.00    +0.019 A 
ATOM      8  C   UNL     1       1.497  -3.175  -8.927  0.00  0.00    +0.011 A 
ATOM      9  C   UNL     1       2.472  -3.063  -9.874  0.00  0.00    +0.001 A 
ATOM     10  C   UNL     1       3.383  -2.014  -9.832  0.00  0.00    +0.002 A 
ATOM     11  C   UNL     1       3.319  -1.069  -8.832  0.00  0.00    +0.026 A 
ATOM     12  C   UNL     1       2.332  -1.162  -7.854  0.00  0.00    +0.051 A 
ATOM     13  N   UNL     1       2.017  -0.390  -6.761  0.00  0.00    -0.338 N 
ATOM     14  C   UNL     1       2.721   0.824  -6.343  0.00  0.00    +0.149 C 
ATOM     15 CL   UNL     1      -0.788  -3.105  -6.378  0.00  0.00    -0.081 Cl
ENDBRANCH   2   5
BRANCH   1  18
ATOM     16  C   UNL     1       0.710  -0.496  -1.327  0.00  0.00    +0.270 C 
ATOM     17  O   UNL     1       1.775  -1.071  -1.245  0.00  0.00    -0.270 OA
ATOM     18  N   UNL     1       0.167  -0.253  -2.536  0.00  0.00    -0.231 N 
ATOM     19  H   UNL     1      -0.685   0.207  -2.601  0.00  0.00    +0.173 HD
BRANCH  16  21
ATOM     20  C   UNL     1      -0.073   1.475  -0.043  0.00  0.00    +0.062 C 
ATOM     21  C   UNL     1      -0.004  -0.053  -0.076  0.00  0.00    +0.257 C 
BRANCH  21  22
ATOM     22  O   UNL     1       0.706  -0.523   1.071  0.00  0.00    -0.477 OA
BRANCH  22  23
ATOM     23  C   UNL     1      -0.000  -0.651   2.225  0.00  0.00    +0.157 A 
ATOM     24  C   UNL     1      -1.365  -0.409   2.235  0.00  0.00    +0.048 A 
ATOM     25  C   UNL     1      -2.082  -0.539   3.409  0.00  0.00    +0.004 A 
ATOM     26  C   UNL     1      -1.439  -0.911   4.575  0.00  0.00    +0.003 A 
ATOM     27  C   UNL     1      -0.078  -1.153   4.571  0.00  0.00    +0.042 A 
ATOM     28  C   UNL     1       0.643  -1.030   3.397  0.00  0.00    +0.165 A 
ATOM     29  F   UNL     1       1.972  -1.272   3.390  0.00  0.00    -0.202 F 
ENDBRANCH  22  23
ENDBRANCH  21  22
ENDBRANCH  16  21
ENDBRANCH   1  18
TORSDOF 5
