REMARK  Name = ZINC43133600
REMARK  5 active torsions:
REMARK  status: ('A' for Active; 'I' for Inactive)
REMARK    1  A    between atoms: C_5  and  N_7
REMARK    2  A    between atoms: N_10  and  C_11
REMARK    3  A    between atoms: C_11  and  C_12
REMARK    4  A    between atoms: C_12  and  C_14
REMARK    5  A    between atoms: C_12  and  N_19
REMARK                            x       y       z     vdW  Elec       q    Type
REMARK                         _______ _______ _______ _____ _____    ______ ____
ROOT
ATOM      1  N   UNL     1      -2.944  -2.955   2.557  0.00  0.00    -0.268 N 
ATOM      2  C   UNL     1      -2.353  -3.282   1.390  0.00  0.00    +0.304 C 
ATOM      3  O   UNL     1      -2.075  -2.415   0.585  0.00  0.00    -0.253 OA
ATOM      4  N   UNL     1      -2.069  -4.571   1.117  0.00  0.00    -0.300 N 
ATOM      5  H   UNL     1      -3.087  -3.634   3.235  0.00  0.00    +0.156 HD
ATOM      6  H   UNL     1      -2.290  -5.263   1.759  0.00  0.00    +0.150 HD
ENDROOT
BRANCH   1  11
ATOM      7  C   UNL     1      -4.037   0.503   1.952  0.00  0.00    +0.002 A 
ATOM      8  C   UNL     1      -4.158   0.971   3.248  0.00  0.00    +0.001 A 
ATOM      9  C   UNL     1      -3.877   0.138   4.315  0.00  0.00    +0.017 A 
ATOM     10  C   UNL     1      -3.474  -1.165   4.090  0.00  0.00    +0.039 A 
ATOM     11  C   UNL     1      -3.352  -1.637   2.789  0.00  0.00    +0.049 A 
ATOM     12  C   UNL     1      -3.635  -0.797   1.720  0.00  0.00    +0.024 A 
ATOM     13 BR   UNL     1      -3.089  -2.303   5.550  0.00  0.00    -0.048 Br
ENDBRANCH   1  11
BRANCH   4  14
ATOM     14  C   UNL     1      -1.426  -4.927  -0.151  0.00  0.00    +0.095 C 
BRANCH  14  15
ATOM     15  C   UNL     1      -1.330  -6.449  -0.265  0.00  0.00    -0.013 C 
BRANCH  15  16
ATOM     16  N   UNL     1      -0.663  -6.805  -1.524  0.00  0.00    +0.386 N 
ATOM     17  C   UNL     1       0.766  -6.404  -1.478  0.00  0.00    -0.078 C 
ATOM     18  C   UNL     1       1.423  -7.308  -2.552  0.00  0.00    -0.020 C 
ATOM     19  C   UNL     1       0.664  -8.645  -2.389  0.00  0.00    -0.020 C 
ATOM     20  C   UNL     1      -0.665  -8.273  -1.705  0.00  0.00    -0.078 C 
ATOM     21  H   UNL     1      -1.126  -6.359  -2.302  0.00  0.00    -0.081 HD
ENDBRANCH  15  16
BRANCH  15  22
ATOM     22  C   UNL     1      -2.716  -7.043  -0.245  0.00  0.00    -0.022 A 
ATOM     23  C   UNL     1      -3.384  -7.616   0.786  0.00  0.00    +0.009 A 
ATOM     24  C   UNL     1      -4.662  -8.097   0.571  0.00  0.00    +0.008 A 
ATOM     25  C   UNL     1      -5.209  -7.981  -0.663  0.00  0.00    +0.045 A 
ATOM     26  S   UNL     1      -3.905  -7.166  -1.570  0.00  0.00    -0.103 S 
ENDBRANCH  15  22
ENDBRANCH  14  15
ENDBRANCH   4  14
TORSDOF 5
