REMARK  Name = ZINC04251734
REMARK  7 active torsions:
REMARK  status: ('A' for Active; 'I' for Inactive)
REMARK    1  A    between atoms: C_1  and  C_2
REMARK    2  A    between atoms: C_2  and  C_4
REMARK    3  A    between atoms: C_2  and  S_15
REMARK    4  A    between atoms: N_6  and  C_7
REMARK    5  A    between atoms: S_15  and  C_16
REMARK    6  A    between atoms: C_18  and  C_22
REMARK    7  A    between atoms: N_20  and  N_21
REMARK                            x       y       z     vdW  Elec       q    Type
REMARK                         _______ _______ _______ _____ _____    ______ ____
ROOT
ATOM      1  S   UNL     1       2.620   0.904   0.590  0.00  0.00    -0.074 S 
ENDROOT
BRANCH   1   2
ATOM      2  C   UNL     1       3.944   2.066   0.641  0.00  0.00    +0.187 A 
ATOM      3  N   UNL     1       3.859   3.335   0.321  0.00  0.00    -0.221 NA
ATOM      4  C   UNL     1       5.074   3.917   0.484  0.00  0.00    +0.092 A 
ATOM      5  C   UNL     1       5.938   2.964   0.913  0.00  0.00    +0.138 A 
ATOM      6  N   UNL     1       5.225   1.794   1.013  0.00  0.00    -0.251 N 
BRANCH   4   7
ATOM      7  C   UNL     1       5.401   5.341   0.232  0.00  0.00    +0.002 A 
ATOM      8  C   UNL     1       6.697   5.809   0.441  0.00  0.00    +0.010 A 
ATOM      9  C   UNL     1       6.996   7.135   0.200  0.00  0.00    +0.001 A 
ATOM     10  C   UNL     1       6.010   8.001  -0.238  0.00  0.00    +0.000 A 
ATOM     11  C   UNL     1       4.721   7.543  -0.443  0.00  0.00    +0.001 A 
ATOM     12  C   UNL     1       4.411   6.218  -0.210  0.00  0.00    +0.010 A 
ENDBRANCH   4   7
BRANCH   6  13
ATOM     13  N   UNL     1       5.712   0.581   1.411  0.00  0.00    -0.296 N 
ATOM     14  H   UNL     1       6.056   0.053   0.623  0.00  0.00    +0.163 HD
ATOM     15  H   UNL     1       6.428   0.692   2.113  0.00  0.00    +0.163 HD
ENDBRANCH   6  13
ENDBRANCH   1   2
BRANCH   1  17
ATOM     16  C   UNL     1       1.587   2.467  -1.398  0.00  0.00    +0.029 C 
ATOM     17  C   UNL     1       1.280   1.979   0.019  0.00  0.00    +0.137 C 
BRANCH  17  18
ATOM     18  C   UNL     1      -0.015   1.208   0.015  0.00  0.00    +0.230 C 
ATOM     19  O   UNL     1       0.001  -0.005   0.005  0.00  0.00    -0.274 OA
ATOM     20  N   UNL     1      -1.191   1.867   0.018  0.00  0.00    -0.283 N 
ATOM     21  H   UNL     1      -1.205   2.834   0.092  0.00  0.00    +0.155 HD
BRANCH  20  22
ATOM     22  C   UNL     1      -2.392   1.155  -0.086  0.00  0.00    +0.052 A 
ATOM     23  C   UNL     1      -2.510  -0.099   0.499  0.00  0.00    +0.026 A 
ATOM     24  C   UNL     1      -3.696  -0.799   0.395  0.00  0.00    +0.022 A 
ATOM     25  C   UNL     1      -4.766  -0.253  -0.291  0.00  0.00    +0.042 A 
ATOM     26  C   UNL     1      -4.652   0.996  -0.876  0.00  0.00    +0.041 A 
ATOM     27  C   UNL     1      -3.470   1.704  -0.770  0.00  0.00    +0.064 A 
ATOM     28 CL   UNL     1      -3.329   3.274  -1.497  0.00  0.00    -0.082 Cl
ATOM     29 CL   UNL     1      -6.255  -1.136  -0.420  0.00  0.00    -0.083 Cl
ENDBRANCH  20  22
ENDBRANCH  17  18
ENDBRANCH   1  17
TORSDOF 6
