REMARK  Name = ZINC15009666
REMARK  6 active torsions:
REMARK  status: ('A' for Active; 'I' for Inactive)
REMARK    1  A    between atoms: C_1  and  C_2
REMARK    2  A    between atoms: C_9  and  C_11
REMARK    3  A    between atoms: C_13  and  C_28
REMARK    4  A    between atoms: C_17  and  C_22
REMARK    5  A    between atoms: C_31  and  O_35
REMARK    6  A    between atoms: O_35  and  C_36
REMARK                            x       y       z     vdW  Elec       q    Type
REMARK                         _______ _______ _______ _____ _____    ______ ____
ROOT
ATOM      1  C   UNL     1       1.348   1.830   0.815  0.00  0.00    +0.166 C 
ATOM      2  C   UNL     1       2.180   0.996   1.797  0.00  0.00    +0.140 C 
ATOM      3  N   UNL     1       2.227  -0.403   1.368  0.00  0.00    -0.272 N 
ATOM      4  N   UNL     1       2.770  -0.578   0.136  0.00  0.00    -0.221 N 
ATOM      5  C   UNL     1       3.328  -1.723  -0.379  0.00  0.00    +0.182 A 
ATOM      6  N   UNL     1       3.711  -1.448  -1.606  0.00  0.00    -0.127 NA
ATOM      7  N   UNL     1       3.436  -0.221  -1.889  0.00  0.00    -0.121 NA
ATOM      8  C   UNL     1       2.869   0.351  -0.861  0.00  0.00    +0.210 A 
ATOM      9  S   UNL     1       2.315   2.021  -0.713  0.00  0.00    -0.069 S 
ATOM     10  H   UNL     1       1.314  -0.829   1.425  0.00  0.00    +0.167 HD
ENDROOT
BRANCH   1  18
ATOM     11  C   UNL     1      -2.083  -0.483   0.219  0.00  0.00    +0.028 C 
ATOM     12  C   UNL     1      -2.379   0.932   0.720  0.00  0.00    +0.073 C 
ATOM     13  C   UNL     1      -3.106   0.858   2.066  0.00  0.00    +0.022 C 
ATOM     14  C   UNL     1      -3.276   2.272   2.628  0.00  0.00    +0.003 C 
ATOM     15  C   UNL     1      -1.899   2.900   2.856  0.00  0.00    +0.019 C 
ATOM     16  C   UNL     1      -1.157   2.994   1.524  0.00  0.00    +0.108 C 
ATOM     17  N   UNL     1      -1.118   1.663   0.903  0.00  0.00    -0.298 N 
ATOM     18  C   UNL     1       0.053   1.122   0.513  0.00  0.00    +0.231 C 
ATOM     19  O   UNL     1       0.064   0.066  -0.084  0.00  0.00    -0.274 OA
ENDBRANCH   1  18
BRANCH   2  20
ATOM     20  C   UNL     1       1.558   1.072   3.167  0.00  0.00    -0.023 A 
ATOM     21  C   UNL     1       0.461   0.288   3.472  0.00  0.00    +0.009 A 
ATOM     22  C   UNL     1      -0.109   0.352   4.729  0.00  0.00    +0.047 A 
ATOM     23  C   UNL     1       0.414   1.213   5.683  0.00  0.00    +0.138 A 
ATOM     24  C   UNL     1       1.512   2.003   5.374  0.00  0.00    +0.083 A 
ATOM     25  C   UNL     1       2.082   1.931   4.116  0.00  0.00    +0.029 A 
ATOM     26 CL   UNL     1       2.170   3.081   6.565  0.00  0.00    -0.080 Cl
BRANCH  23  27
ATOM     27  O   UNL     1      -0.149   1.282   6.918  0.00  0.00    -0.494 OA
ATOM     28  C   UNL     1      -1.276   0.439   7.166  0.00  0.00    +0.277 C 
ENDBRANCH  23  27
ENDBRANCH   2  20
BRANCH   5  29
ATOM     29  C   UNL     1       3.472  -3.020   0.316  0.00  0.00    +0.021 A 
ATOM     30  C   UNL     1       3.320  -3.093   1.702  0.00  0.00    +0.011 A 
ATOM     31  C   UNL     1       3.451  -4.307   2.344  0.00  0.00    +0.001 A 
ATOM     32  C   UNL     1       3.742  -5.449   1.618  0.00  0.00    +0.000 A 
ATOM     33  C   UNL     1       3.899  -5.382   0.245  0.00  0.00    +0.001 A 
ATOM     34  C   UNL     1       3.766  -4.175  -0.409  0.00  0.00    +0.011 A 
ENDBRANCH   5  29
TORSDOF 4
