REMARK  Name = ZINC41271885
REMARK  5 active torsions:
REMARK  status: ('A' for Active; 'I' for Inactive)
REMARK    1  A    between atoms: C_3  and  N_25
REMARK    2  A    between atoms: C_6  and  N_7
REMARK    3  A    between atoms: C_8  and  C_10
REMARK    4  A    between atoms: N_12  and  C_13
REMARK    5  A    between atoms: C_18  and  C_21
REMARK                            x       y       z     vdW  Elec       q    Type
REMARK                         _______ _______ _______ _____ _____    ______ ____
ROOT
ATOM      1  N   UNL     1      -1.200  -0.720   0.010  0.00  0.00    -0.278 N 
ATOM      2  C   UNL     1      -0.973  -2.044   0.115  0.00  0.00    +0.303 C 
ATOM      3  O   UNL     1       0.160  -2.456   0.261  0.00  0.00    -0.265 OA
ATOM      4  H   UNL     1      -2.109  -0.385  -0.027  0.00  0.00    +0.155 HD
ENDROOT
BRANCH   1  10
ATOM      5  C   UNL     1       1.051  -0.196  -0.691  0.00  0.00    +0.025 A 
ATOM      6  C   UNL     1       2.113   0.684  -0.746  0.00  0.00    +0.025 A 
ATOM      7  C   UNL     1       2.007   1.938  -0.157  0.00  0.00    +0.030 A 
ATOM      8  C   UNL     1       0.833   2.306   0.488  0.00  0.00    +0.025 A 
ATOM      9  C   UNL     1      -0.229   1.426   0.543  0.00  0.00    +0.025 A 
ATOM     10  C   UNL     1      -0.123   0.172  -0.046  0.00  0.00    +0.034 A 
BRANCH   7  11
ATOM     11  N   UNL     1       3.083   2.829  -0.212  0.00  0.00    -0.330 N 
ATOM     12  C   UNL     1       2.949   4.198   0.306  0.00  0.00    +0.105 C 
ATOM     13  C   UNL     1       4.075   4.457   1.311  0.00  0.00    +0.019 C 
ATOM     14  C   UNL     1       5.423   4.165   0.647  0.00  0.00    +0.003 C 
ATOM     15  C   UNL     1       5.479   2.695   0.227  0.00  0.00    +0.019 C 
ATOM     16  C   UNL     1       4.371   2.414  -0.785  0.00  0.00    +0.105 C 
ENDBRANCH   7  11
ENDBRANCH   1  10
BRANCH   2  17
ATOM     17  C   UNL     1      -2.114  -3.005   0.052  0.00  0.00    +0.300 C 
ATOM     18  O   UNL     1      -3.247  -2.593  -0.093  0.00  0.00    -0.265 OA
ATOM     19  N   UNL     1      -1.887  -4.329   0.157  0.00  0.00    -0.305 N 
ATOM     20  H   UNL     1      -0.982  -4.658   0.274  0.00  0.00    +0.149 HD
BRANCH  19  21
ATOM     21  C   UNL     1      -3.007  -5.271   0.096  0.00  0.00    +0.074 C 
ATOM     22  C   UNL     1      -3.629  -5.417   1.486  0.00  0.00    +0.022 C 
ATOM     23  C   UNL     1      -2.575  -5.940   2.464  0.00  0.00    +0.002 C 
ATOM     24  C   UNL     1      -2.069  -7.303   1.986  0.00  0.00    +0.012 C 
ATOM     25  C   UNL     1      -1.447  -7.158   0.596  0.00  0.00    +0.095 C 
ATOM     26  C   UNL     1      -2.501  -6.634  -0.382  0.00  0.00    +0.034 C 
BRANCH  25  27
ATOM     27  C   UNL     1      -0.942  -8.521   0.119  0.00  0.00    +0.393 C 
ATOM     28  F   UNL     1      -2.011  -9.421   0.060  0.00  0.00    -0.170 F 
ATOM     29  F   UNL     1      -0.373  -8.388  -1.153  0.00  0.00    -0.170 F 
ATOM     30  F   UNL     1       0.022  -9.000   1.013  0.00  0.00    -0.170 F 
ENDBRANCH  25  27
ENDBRANCH  19  21
ENDBRANCH   2  17
TORSDOF 5
