REMARK  Name = ZINC09411661
REMARK  9 active torsions:
REMARK  status: ('A' for Active; 'I' for Inactive)
REMARK    1  A    between atoms: C_1  and  C_2
REMARK    2  A    between atoms: N_10  and  N_14
REMARK    3  A    between atoms: C_15  and  C_17
REMARK    4  A    between atoms: C_17  and  O_18
REMARK    5  A    between atoms: O_18  and  C_19
REMARK    6  A    between atoms: C_19  and  C_21
REMARK    7  A    between atoms: C_21  and  C_23
REMARK    8  A    between atoms: C_21  and  O_24
REMARK    9  A    between atoms: O_24  and  C_25
REMARK                            x       y       z     vdW  Elec       q    Type
REMARK                         _______ _______ _______ _____ _____    ______ ____
ROOT
ATOM      1  N   UNL     1       4.276   0.592   4.695  0.00  0.00    -0.221 N 
ATOM      2  C   UNL     1       3.431   1.106   3.780  0.00  0.00    +0.267 C 
ATOM      3  O   UNL     1       3.792   2.018   3.066  0.00  0.00    -0.271 OA
ATOM      4  H   UNL     1       3.988  -0.137   5.266  0.00  0.00    +0.174 HD
ENDROOT
BRANCH   1  14
ATOM      5  C   UNL     1      11.435   3.797   5.906  0.00  0.00    +0.007 C 
ATOM      6  C   UNL     1       9.964   3.503   6.206  0.00  0.00    -0.014 C 
ATOM      7  C   UNL     1       9.098   4.000   5.048  0.00  0.00    +0.006 C 
ATOM      8  C   UNL     1       7.625   3.717   5.355  0.00  0.00    +0.035 C 
ATOM      9  C   UNL     1       7.425   2.219   5.554  0.00  0.00    +0.114 C 
ATOM     10  C   UNL     1       8.301   1.703   6.690  0.00  0.00    +0.035 C 
ATOM     11  C   UNL     1       9.771   1.995   6.378  0.00  0.00    +0.006 C 
ATOM     12  C   UNL     1       5.970   1.915   5.831  0.00  0.00    +0.263 C 
ATOM     13  O   UNL     1       5.302   2.309   6.763  0.00  0.00    -0.271 OA
ATOM     14  N   UNL     1       5.571   1.112   4.823  0.00  0.00    -0.137 N 
ATOM     15  C   UNL     1       6.568   0.869   3.963  0.00  0.00    +0.326 C 
ATOM     16  O   UNL     1       6.453   0.169   2.976  0.00  0.00    -0.251 OA
ATOM     17  N   UNL     1       7.710   1.490   4.312  0.00  0.00    -0.284 N 
ATOM     18  H   UNL     1       8.556   1.459   3.838  0.00  0.00    +0.151 HD
ENDBRANCH   1  14
BRANCH   2  19
ATOM     19  C   UNL     1       2.039   0.547   3.642  0.00  0.00    +0.329 C 
BRANCH  19  20
ATOM     20  O   UNL     1       1.331   1.263   2.596  0.00  0.00    -0.453 OA
BRANCH  20  21
ATOM     21  C   UNL     1       0.067   0.885   2.346  0.00  0.00    +0.348 C 
ATOM     22  O   UNL     1      -0.430  -0.015   2.980  0.00  0.00    -0.247 OA
BRANCH  21  23
ATOM     23  C   UNL     1      -0.730   1.582   1.274  0.00  0.00    +0.278 C 
ATOM     24  C   UNL     1      -0.091   1.318  -0.091  0.00  0.00    +0.064 C 
BRANCH  23  25
ATOM     25  O   UNL     1      -2.070   1.085   1.277  0.00  0.00    -0.478 OA
BRANCH  25  26
ATOM     26  C   UNL     1      -3.033   1.903   0.779  0.00  0.00    +0.122 A 
ATOM     27  C   UNL     1      -2.684   3.115   0.201  0.00  0.00    +0.047 A 
ATOM     28  C   UNL     1      -3.665   3.943  -0.310  0.00  0.00    +0.019 A 
ATOM     29  C   UNL     1      -4.995   3.570  -0.236  0.00  0.00    +0.018 A 
ATOM     30  C   UNL     1      -5.345   2.365   0.345  0.00  0.00    +0.019 A 
ATOM     31  C   UNL     1      -4.367   1.531   0.852  0.00  0.00    +0.047 A 
ATOM     32 BR   UNL     1      -6.335   4.709  -0.930  0.00  0.00    -0.050 Br
ENDBRANCH  25  26
ENDBRANCH  23  25
ENDBRANCH  21  23
ENDBRANCH  20  21
ENDBRANCH  19  20
ENDBRANCH   2  19
TORSDOF 7
