REMARK  Name = ZINC09980702
REMARK  10 active torsions:
REMARK  status: ('A' for Active; 'I' for Inactive)
REMARK    1  A    between atoms: C_3  and  S_6
REMARK    2  A    between atoms: S_6  and  N_9
REMARK    3  A    between atoms: N_9  and  C_10
REMARK    4  A    between atoms: C_13  and  C_17
REMARK    5  A    between atoms: C_14  and  O_16
REMARK    6  A    between atoms: C_17  and  O_19
REMARK    7  A    between atoms: O_19  and  C_20
REMARK    8  A    between atoms: C_20  and  C_21
REMARK    9  A    between atoms: N_23  and  C_24
REMARK   10  A    between atoms: C_27  and  N_30
REMARK                            x       y       z     vdW  Elec       q    Type
REMARK                         _______ _______ _______ _____ _____    ______ ____
ROOT
ATOM      1  C   UNL     1       7.920  -7.580  -0.826  0.00  0.00    +0.052 A 
ATOM      2  C   UNL     1       7.715  -6.206  -0.705  0.00  0.00    +0.025 A 
ATOM      3  C   UNL     1       6.451  -5.705  -0.596  0.00  0.00    +0.020 A 
ATOM      4  C   UNL     1       5.350  -6.568  -0.605  0.00  0.00    +0.100 A 
ATOM      5  C   UNL     1       5.551  -7.953  -0.721  0.00  0.00    +0.133 A 
ATOM      6  C   UNL     1       6.837  -8.451  -0.837  0.00  0.00    +0.070 A 
ENDROOT
BRANCH   1   7
ATOM      7  N   UNL     1       9.212  -8.081  -0.936  0.00  0.00    -0.216 N 
ATOM      8  H   UNL     1       9.414  -8.760  -1.599  0.00  0.00    +0.174 HD
BRANCH   7   9
ATOM      9  S   UNL     1      10.407  -7.517   0.062  0.00  0.00    +0.079 S 
ATOM     10  O   UNL     1      11.588  -8.232  -0.274  0.00  0.00    -0.149 OA
ATOM     11  O   UNL     1      10.336  -6.098   0.019  0.00  0.00    -0.149 OA
BRANCH   9  14
ATOM     12  C   UNL     1       9.854  -9.287   3.673  0.00  0.00    +0.010 A 
ATOM     13  C   UNL     1      10.303  -9.125   2.376  0.00  0.00    +0.036 A 
ATOM     14  C   UNL     1       9.981  -7.993   1.704  0.00  0.00    +0.146 A 
ATOM     15  S   UNL     1       9.018  -7.105   2.918  0.00  0.00    -0.077 S 
ATOM     16  C   UNL     1       9.104  -8.307   4.235  0.00  0.00    +0.047 A 
ENDBRANCH   9  14
ENDBRANCH   7   9
ENDBRANCH   1   7
BRANCH   5  17
ATOM     17  O   UNL     1       4.490  -8.799  -0.726  0.00  0.00    -0.506 OA
ATOM     18  H   UNL     1       4.133  -8.977  -1.607  0.00  0.00    +0.292 HD
ENDBRANCH   5  17
BRANCH   4  19
ATOM     19  C   UNL     1       3.987  -6.028  -0.487  0.00  0.00    +0.343 C 
ATOM     20  O   UNL     1       3.032  -6.780  -0.495  0.00  0.00    -0.245 OA
BRANCH  19  21
ATOM     21  O   UNL     1       3.797  -4.699  -0.370  0.00  0.00    -0.452 OA
BRANCH  21  22
ATOM     22  C   UNL     1       2.425  -4.236  -0.258  0.00  0.00    +0.328 C 
BRANCH  22  23
ATOM     23  C   UNL     1       2.410  -2.734  -0.137  0.00  0.00    +0.255 C 
ATOM     24  O   UNL     1       3.452  -2.114  -0.144  0.00  0.00    -0.272 OA
ATOM     25  N   UNL     1       1.237  -2.079  -0.021  0.00  0.00    -0.283 N 
ATOM     26  H   UNL     1       0.409  -2.578   0.062  0.00  0.00    +0.155 HD
BRANCH  25  27
ATOM     27  C   UNL     1       1.214  -0.680  -0.019  0.00  0.00    +0.034 A 
ATOM     28  C   UNL     1       2.137   0.031  -0.774  0.00  0.00    +0.025 A 
ATOM     29  C   UNL     1       2.111   1.412  -0.771  0.00  0.00    +0.034 A 
ATOM     30  C   UNL     1       1.168   2.086  -0.017  0.00  0.00    +0.126 A 
ATOM     31  C   UNL     1       0.248   1.380   0.736  0.00  0.00    +0.034 A 
ATOM     32  C   UNL     1       0.268  -0.001   0.737  0.00  0.00    +0.025 A 
BRANCH  30  33
ATOM     33  N   UNL     1       1.144   3.566  -0.015  0.00  0.00    +0.056 N 
ATOM     34  O   UNL     1       1.954   4.189  -0.678  0.00  0.00    -0.126 OA
ATOM     35  O   UNL     1       0.314   4.161   0.649  0.00  0.00    -0.126 OA
ENDBRANCH  30  33
ENDBRANCH  25  27
ENDBRANCH  22  23
ENDBRANCH  21  22
ENDBRANCH  19  21
ENDBRANCH   4  19
TORSDOF 10
