REMARK  Name = ZINC04975116
REMARK  4 active torsions:
REMARK  status: ('A' for Active; 'I' for Inactive)
REMARK    1  A    between atoms: N_9  and  N_10
REMARK    2  A    between atoms: N_10  and  C_11
REMARK    3  A    between atoms: C_11  and  N_13
REMARK    4  A    between atoms: C_16  and  N_21
REMARK                            x       y       z     vdW  Elec       q    Type
REMARK                         _______ _______ _______ _____ _____    ______ ____
ROOT
ATOM      1  C   UNL     1       4.243   5.023  -2.277  0.00  0.00    +0.020 A 
ATOM      2  C   UNL     1       2.916   4.840  -1.946  0.00  0.00    +0.010 A 
ATOM      3  C   UNL     1       2.436   3.560  -1.672  0.00  0.00    -0.006 A 
ATOM      4  C   UNL     1       3.315   2.464  -1.736  0.00  0.00    +0.012 A 
ATOM      5  C   UNL     1       4.651   2.666  -2.071  0.00  0.00    +0.030 A 
ATOM      6  C   UNL     1       5.108   3.942  -2.339  0.00  0.00    +0.042 A 
ATOM      7 CL   UNL     1       6.774   4.192  -2.757  0.00  0.00    -0.084 Cl
ATOM      8  C   UNL     1       2.544   1.247  -1.403  0.00  0.00    +0.097 C 
ATOM      9  N   UNL     1       3.006   0.023  -1.355  0.00  0.00    -0.180 NA
ATOM     10  C   UNL     1       1.154   1.673  -1.135  0.00  0.00    +0.014 A 
ATOM     11  C   UNL     1       1.093   3.068  -1.298  0.00  0.00    +0.022 A 
ATOM     12  C   UNL     1      -0.119   3.728  -1.101  0.00  0.00    +0.136 A 
ATOM     13  C   UNL     1      -1.245   3.014  -0.750  0.00  0.00    +0.053 A 
ATOM     14  C   UNL     1      -1.185   1.637  -0.595  0.00  0.00    +0.044 A 
ATOM     15  C   UNL     1       0.008   0.966  -0.779  0.00  0.00    +0.030 A 
ATOM     16 CL   UNL     1      -2.615   0.754  -0.159  0.00  0.00    -0.083 Cl
ENDROOT
BRANCH  12  17
ATOM     17  N   UNL     1      -0.198   5.197  -1.270  0.00  0.00    +0.057 N 
ATOM     18  O   UNL     1      -0.871   5.863  -0.504  0.00  0.00    -0.126 OA
ATOM     19  O   UNL     1       0.411   5.739  -2.175  0.00  0.00    -0.126 OA
ENDBRANCH  12  17
BRANCH   9  20
ATOM     20  N   UNL     1       2.212  -1.005  -0.829  0.00  0.00    -0.218 N 
ATOM     21  H   UNL     1       1.357  -0.796  -0.419  0.00  0.00    +0.176 HD
BRANCH  20  22
ATOM     22  C   UNL     1       2.634  -2.283  -0.894  0.00  0.00    +0.147 C 
ATOM     23  S   UNL     1       1.664  -3.539  -0.252  0.00  0.00    -0.017 S 
BRANCH  22  24
ATOM     24  N   UNL     1       3.821  -2.572  -1.464  0.00  0.00    -0.339 N 
ATOM     25  H   UNL     1       4.371  -1.860  -1.827  0.00  0.00    +0.144 HD
ATOM     26  H   UNL     1       4.125  -3.492  -1.510  0.00  0.00    +0.144 HD
ENDBRANCH  22  24
ENDBRANCH  20  22
ENDBRANCH   9  20
TORSDOF 4
