REMARK  Name = ZINC09763602
REMARK  7 active torsions:
REMARK  status: ('A' for Active; 'I' for Inactive)
REMARK    1  A    between atoms: C_1  and  C_2
REMARK    2  A    between atoms: C_4  and  N_29
REMARK    3  A    between atoms: C_9  and  C_18
REMARK    4  A    between atoms: C_20  and  O_27
REMARK    5  A    between atoms: C_21  and  O_25
REMARK    6  A    between atoms: O_25  and  C_26
REMARK    7  A    between atoms: O_27  and  C_28
REMARK                            x       y       z     vdW  Elec       q    Type
REMARK                         _______ _______ _______ _____ _____    ______ ____
ROOT
ATOM      1  C   UNL     1      -0.514   1.187   0.343  0.00  0.00    +0.046 C 
ATOM      2  C   UNL     1      -1.029   1.635   1.686  0.00  0.00    -0.027 A 
ATOM      3  C   UNL     1      -2.379   1.847   1.862  0.00  0.00    +0.038 A 
ATOM      4  C   UNL     1      -2.866   2.252   3.090  0.00  0.00    +0.127 A 
ATOM      5  C   UNL     1      -1.989   2.463   4.138  0.00  0.00    +0.038 A 
ATOM      6  C   UNL     1      -0.635   2.267   3.967  0.00  0.00    -0.017 A 
ATOM      7  C   UNL     1      -0.132   1.835   2.737  0.00  0.00    +0.034 A 
ATOM      8  N   UNL     1       1.214   1.569   2.495  0.00  0.00    -0.336 N 
ATOM      9  C   UNL     1       2.158   1.891   3.577  0.00  0.00    +0.105 C 
ATOM     10  C   UNL     1       1.494   1.499   4.880  0.00  0.00    +0.029 C 
ATOM     11  C   UNL     1       0.332   2.525   5.056  0.00  0.00    +0.049 C 
ATOM     12  C   UNL     1      -0.013   2.374   6.490  0.00  0.00    -0.023 C 
ATOM     13  C   UNL     1       1.078   1.996   7.148  0.00  0.00    -0.030 C 
ATOM     14  C   UNL     1       2.245   1.829   6.171  0.00  0.00    +0.033 C 
ATOM     15  H   UNL     1       1.343   0.622   2.172  0.00  0.00    +0.147 HD
ENDROOT
BRANCH   9  16
ATOM     16  C   UNL     1       2.455   3.369   3.576  0.00  0.00    -0.022 A 
ATOM     17  C   UNL     1       1.550   4.254   3.019  0.00  0.00    +0.055 A 
ATOM     18  C   UNL     1       1.819   5.613   3.023  0.00  0.00    +0.163 A 
ATOM     19  C   UNL     1       3.005   6.084   3.576  0.00  0.00    +0.175 A 
ATOM     20  C   UNL     1       3.911   5.191   4.127  0.00  0.00    +0.063 A 
ATOM     21  C   UNL     1       3.634   3.835   4.126  0.00  0.00    +0.024 A 
ATOM     22 BR   UNL     1       5.525   5.825   4.881  0.00  0.00    -0.046 Br
BRANCH  19  23
ATOM     23  O   UNL     1       3.276   7.417   3.577  0.00  0.00    -0.490 OA
ATOM     24  C   UNL     1       3.978   7.937   2.447  0.00  0.00    +0.277 C 
ENDBRANCH  19  23
BRANCH  18  25
ATOM     25  O   UNL     1       0.927   6.485   2.481  0.00  0.00    -0.491 OA
ATOM     26  C   UNL     1      -0.270   5.931   1.931  0.00  0.00    +0.277 C 
ENDBRANCH  18  25
ENDBRANCH   9  16
BRANCH   4  27
ATOM     27  N   UNL     1      -4.318   2.465   3.281  0.00  0.00    +0.056 N 
ATOM     28  O   UNL     1      -4.744   2.827   4.364  0.00  0.00    -0.126 OA
ATOM     29  O   UNL     1      -5.088   2.278   2.356  0.00  0.00    -0.126 OA
ENDBRANCH   4  27
TORSDOF 4
