REMARK  Name = ZINC34787358
REMARK  11 active torsions:
REMARK  status: ('A' for Active; 'I' for Inactive)
REMARK    1  A    between atoms: C_1  and  C_2
REMARK    2  A    between atoms: C_2  and  C_3
REMARK    3  A    between atoms: C_4  and  C_35
REMARK    4  A    between atoms: C_8  and  N_19
REMARK    5  A    between atoms: C_13  and  C_18
REMARK    6  A    between atoms: C_15  and  C_17
REMARK    7  A    between atoms: N_19  and  N_20
REMARK    8  A    between atoms: N_19  and  N_28
REMARK    9  A    between atoms: N_20  and  C_21
REMARK   10  A    between atoms: C_24  and  C_27
REMARK   11  A    between atoms: N_28  and  C_29
REMARK                            x       y       z     vdW  Elec       q    Type
REMARK                         _______ _______ _______ _____ _____    ______ ____
ROOT
ATOM      1  C   UNL     1       1.018   1.795  -0.895  0.00  0.00    -0.025 A 
ATOM      2  C   UNL     1       0.468   2.533  -1.870  0.00  0.00    -0.007 A 
ATOM      3  S   UNL     1       0.803   1.591  -3.346  0.00  0.00    -0.073 S 
ATOM      4  C   UNL     1       1.673   0.231  -2.613  0.00  0.00    +0.116 A 
ATOM      5  C   UNL     1       1.684   0.551  -1.238  0.00  0.00    +0.054 A 
ATOM      6  C   UNL     1       2.338  -0.391  -0.396  0.00  0.00    +0.167 A 
ATOM      7  N   UNL     1       2.883  -1.470  -0.933  0.00  0.00    -0.192 NA
ATOM      8  C   UNL     1       2.840  -1.706  -2.237  0.00  0.00    +0.254 A 
ATOM      9  N   UNL     1       2.236  -0.871  -3.068  0.00  0.00    -0.203 NA
ATOM     10  N   UNL     1       3.434  -2.863  -2.742  0.00  0.00    -0.202 N 
ATOM     11  C   UNL     1       3.477  -3.237  -4.048  0.00  0.00    +0.045 A 
ATOM     12  C   UNL     1       4.139  -4.415  -4.115  0.00  0.00    +0.048 A 
ATOM     13  C   UNL     1       4.515  -4.774  -2.815  0.00  0.00    +0.061 A 
ATOM     14  N   UNL     1       4.099  -3.844  -1.994  0.00  0.00    -0.169 NA
ATOM     15  C   UNL     1       5.274  -6.016  -2.428  0.00  0.00    +0.067 C 
ATOM     16  C   UNL     1       2.890  -2.479  -5.210  0.00  0.00    +0.066 C 
ATOM     17  C   UNL     1      -0.261   3.847  -1.748  0.00  0.00    +0.052 C 
ENDROOT
BRANCH   1  19
ATOM     18  C   UNL     1       1.671   3.597   0.678  0.00  0.00    +0.009 C 
ATOM     19  C   UNL     1       0.951   2.255   0.538  0.00  0.00    +0.033 C 
ENDBRANCH   1  19
BRANCH   6  20
ATOM     20  N   UNL     1       2.405  -0.180   0.970  0.00  0.00    -0.166 N 
BRANCH  20  21
ATOM     21  N   UNL     1       1.246  -0.276   1.750  0.00  0.00    -0.249 N 
ATOM     22  H   UNL     1       0.819   0.529   2.086  0.00  0.00    +0.172 HD
BRANCH  21  23
ATOM     23  C   UNL     1       0.704  -1.528   2.046  0.00  0.00    +0.046 A 
ATOM     24  C   UNL     1       1.376  -2.684   1.669  0.00  0.00    +0.025 A 
ATOM     25  C   UNL     1       0.837  -3.921   1.963  0.00  0.00    +0.005 A 
ATOM     26  C   UNL     1      -0.370  -4.011   2.631  0.00  0.00    -0.050 A 
ATOM     27  C   UNL     1      -1.042  -2.862   3.007  0.00  0.00    +0.005 A 
ATOM     28  C   UNL     1      -0.506  -1.622   2.722  0.00  0.00    +0.025 A 
ATOM     29  C   UNL     1      -0.955  -5.362   2.950  0.00  0.00    +0.044 C 
ENDBRANCH  21  23
ENDBRANCH  20  21
BRANCH  20  30
ATOM     30  N   UNL     1       3.601   0.121   1.557  0.00  0.00    -0.218 NA
ATOM     31  H   UNL     1       4.333  -0.485   1.218  0.00  0.00    +0.146 HD
BRANCH  30  32
ATOM     32  C   UNL     1       3.948   1.533   1.350  0.00  0.00    +0.075 C 
ATOM     33  C   UNL     1       4.849   1.662   0.121  0.00  0.00    +0.020 C 
ATOM     34  C   UNL     1       5.211   3.133  -0.095  0.00  0.00    +0.002 C 
ATOM     35  C   UNL     1       5.950   3.662   1.137  0.00  0.00    +0.000 C 
ATOM     36  C   UNL     1       5.048   3.533   2.366  0.00  0.00    +0.002 C 
ATOM     37  C   UNL     1       4.687   2.062   2.582  0.00  0.00    +0.020 C 
ENDBRANCH  30  32
ENDBRANCH  20  30
ENDBRANCH   6  20
TORSDOF 6
