REMARK  Name = ZINC25790799
REMARK  6 active torsions:
REMARK  status: ('A' for Active; 'I' for Inactive)
REMARK    1  A    between atoms: C_1  and  C_2
REMARK    2  A    between atoms: C_10  and  C_11
REMARK    3  A    between atoms: C_11  and  C_13
REMARK    4  A    between atoms: C_13  and  O_14
REMARK    5  A    between atoms: O_14  and  C_15
REMARK    6  A    between atoms: C_15  and  C_17
REMARK                            x       y       z     vdW  Elec       q    Type
REMARK                         _______ _______ _______ _____ _____    ______ ____
ROOT
ATOM      1  C   UNL     1       0.054  -1.131   3.674  0.00  0.00    +0.312 C 
ENDROOT
BRANCH   1   2
ATOM      2  C   UNL     1       0.030  -0.184   2.502  0.00  0.00    +0.207 C 
ATOM      3  O   UNL     1       0.016   1.015   2.691  0.00  0.00    -0.288 OA
BRANCH   2  13
ATOM      4  C   UNL     1      -0.018   1.503   0.010  0.00  0.00    +0.045 C 
ATOM      5  C   UNL     1       0.002  -0.004   0.002  0.00  0.00    -0.025 A 
ATOM      6  C   UNL     1       0.005  -0.701  -1.218  0.00  0.00    -0.007 A 
ATOM      7  C   UNL     1      -0.009  -0.169  -2.534  0.00  0.00    +0.009 A 
ATOM      8  C   UNL     1      -0.004  -0.990  -3.615  0.00  0.00    +0.001 A 
ATOM      9  C   UNL     1       0.015  -2.373  -3.480  0.00  0.00    +0.001 A 
ATOM     10  C   UNL     1       0.030  -2.933  -2.219  0.00  0.00    +0.015 A 
ATOM     11  C   UNL     1       0.025  -2.113  -1.110  0.00  0.00    +0.020 A 
ATOM     12  S   UNL     1       0.038  -2.396   0.642  0.00  0.00    -0.085 S 
ATOM     13  C   UNL     1       0.023  -0.694   1.179  0.00  0.00    +0.062 A 
ENDBRANCH   2  13
ENDBRANCH   1   2
BRANCH   1  14
ATOM     14  O   UNL     1       0.057  -0.382   4.891  0.00  0.00    -0.453 OA
BRANCH  14  15
ATOM     15  C   UNL     1       0.078  -1.084   6.041  0.00  0.00    +0.340 C 
ATOM     16  O   UNL     1       0.093  -2.299   6.011  0.00  0.00    -0.245 OA
BRANCH  15  17
ATOM     17  C   UNL     1       0.082  -0.378   7.337  0.00  0.00    +0.061 A 
ATOM     18  C   UNL     1       0.057   1.025   7.368  0.00  0.00    +0.016 A 
ATOM     19  C   UNL     1       0.060   1.690   8.555  0.00  0.00    +0.012 A 
ATOM     20  C   UNL     1       0.088   0.974   9.761  0.00  0.00    +0.020 A 
ATOM     21  C   UNL     1       0.098   1.362  11.121  0.00  0.00    +0.142 A 
ATOM     22  N   UNL     1       0.126   0.292  11.862  0.00  0.00    -0.181 NA
ATOM     23  N   UNL     1       0.135  -0.848  11.048  0.00  0.00    -0.277 N 
ATOM     24  H   UNL     1       0.155  -1.767  11.355  0.00  0.00    +0.189 HD
ATOM     25  C   UNL     1       0.112  -0.435   9.739  0.00  0.00    +0.067 A 
ATOM     26  C   UNL     1       0.103  -1.106   8.522  0.00  0.00    +0.042 A 
ENDBRANCH  15  17
ENDBRANCH  14  15
ENDBRANCH   1  14
TORSDOF 5
