REMARK  Name = ZINC39633699
REMARK  8 active torsions:
REMARK  status: ('A' for Active; 'I' for Inactive)
REMARK    1  A    between atoms: C_1  and  C_2
REMARK    2  A    between atoms: C_2  and  C_3
REMARK    3  A    between atoms: C_3  and  C_4
REMARK    4  A    between atoms: C_4  and  C_5
REMARK    5  A    between atoms: C_5  and  C_7
REMARK    6  A    between atoms: C_5  and  C_8
REMARK    7  A    between atoms: C_12  and  C_21
REMARK    8  A    between atoms: N_23  and  C_24
REMARK                            x       y       z     vdW  Elec       q    Type
REMARK                         _______ _______ _______ _____ _____    ______ ____
ROOT
ATOM      1  C   UNL     1       1.073  -3.919  -2.715  0.00  0.00    +0.218 C 
ATOM      2  O   UNL     1       0.367  -4.580  -1.984  0.00  0.00    -0.275 OA
ATOM      3  N   UNL     1       1.825  -4.525  -3.655  0.00  0.00    -0.300 N 
ATOM      4  C   UNL     1       2.826  -3.906  -4.556  0.00  0.00    +0.121 C 
ATOM      5  C   UNL     1       3.977  -4.935  -4.626  0.00  0.00    +0.100 C 
ATOM      6  C   UNL     1       3.321  -6.281  -4.276  0.00  0.00    -0.004 C 
ATOM      7  C   UNL     1       1.842  -5.963  -4.018  0.00  0.00    +0.115 C 
ATOM      8  C   UNL     1       3.457  -7.254  -5.444  0.00  0.00    -0.010 C 
ATOM      9  C   UNL     1       2.850  -8.604  -5.051  0.00  0.00    -0.082 C 
ATOM     10  N   UNL     1       3.542  -9.128  -3.868  0.00  0.00    +0.379 N 
ATOM     11  C   UNL     1       3.329  -8.233  -2.724  0.00  0.00    -0.082 C 
ATOM     12  C   UNL     1       3.957  -6.867  -3.019  0.00  0.00    -0.010 C 
ATOM     13  H   UNL     1       3.182 -10.045  -3.647  0.00  0.00    -0.086 HD
ATOM     14  H   UNL     1       4.531  -9.196  -4.060  0.00  0.00    -0.086 HD
ENDROOT
BRANCH   5  15
ATOM     15  C   UNL     1       5.047  -4.593  -3.621  0.00  0.00    +0.218 C 
ATOM     16  O   UNL     1       4.765  -3.960  -2.626  0.00  0.00    -0.275 OA
ATOM     17  N   UNL     1       6.318  -4.991  -3.829  0.00  0.00    -0.312 N 
ATOM     18  H   UNL     1       6.544  -5.497  -4.625  0.00  0.00    +0.149 HD
BRANCH  17  19
ATOM     19  C   UNL     1       7.359  -4.658  -2.853  0.00  0.00    +0.073 C 
ATOM     20  C   UNL     1       7.847  -3.219  -3.114  0.00  0.00    +0.022 C 
ATOM     21  C   UNL     1       8.502  -2.702  -1.862  0.00  0.00    +0.002 C 
ATOM     22  C   UNL     1      10.028  -2.915  -1.864  0.00  0.00    +0.000 C 
ATOM     23  C   UNL     1      10.438  -4.296  -2.411  0.00  0.00    +0.000 C 
ATOM     24  C   UNL     1       9.544  -5.400  -1.915  0.00  0.00    +0.002 C 
ATOM     25  C   UNL     1       8.432  -5.636  -2.957  0.00  0.00    +0.022 C 
ENDBRANCH  17  19
ENDBRANCH   5  15
BRANCH   1  26
ATOM     26  C   UNL     1       1.110  -2.419  -2.573  0.00  0.00    +0.072 C 
ATOM     27  C   UNL     1       0.955  -2.043  -1.098  0.00  0.00    +0.017 C 
BRANCH  26  28
ATOM     28  C   UNL     1      -0.034  -1.802  -3.379  0.00  0.00    +0.012 C 
BRANCH  28  29
ATOM     29  C   UNL     1       0.077  -0.276  -3.337  0.00  0.00    +0.000 C 
BRANCH  29  31
ATOM     30  C   UNL     1      -0.957   1.866  -4.101  0.00  0.00    +0.004 C 
ATOM     31  C   UNL     1      -1.067   0.341  -4.144  0.00  0.00    -0.003 C 
ENDBRANCH  29  31
ENDBRANCH  28  29
ENDBRANCH  26  28
ENDBRANCH   1  26
TORSDOF 6
