REMARK  Name = ZINC08743897
REMARK  11 active torsions:
REMARK  status: ('A' for Active; 'I' for Inactive)
REMARK    1  A    between atoms: C_1  and  C_2
REMARK    2  A    between atoms: C_5  and  C_8
REMARK    3  A    between atoms: C_8  and  O_9
REMARK    4  A    between atoms: O_9  and  C_10
REMARK    5  A    between atoms: C_13  and  C_17
REMARK    6  A    between atoms: C_14  and  O_16
REMARK    7  A    between atoms: C_18  and  O_24
REMARK    8  A    between atoms: C_19  and  C_23
REMARK    9  A    between atoms: O_24  and  C_25
REMARK   10  A    between atoms: C_30  and  O_31
REMARK   11  A    between atoms: O_31  and  C_32
REMARK                            x       y       z     vdW  Elec       q    Type
REMARK                         _______ _______ _______ _____ _____    ______ ____
ROOT
ATOM      1  C   UNL     1       1.608  -6.079  -0.040  0.00  0.00    +0.124 A 
ATOM      2  C   UNL     1       0.516  -6.937  -0.044  0.00  0.00    +0.046 A 
ATOM      3  C   UNL     1       0.707  -8.303  -0.053  0.00  0.00    +0.017 A 
ATOM      4  C   UNL     1       2.000  -8.825  -0.058  0.00  0.00    +0.045 A 
ATOM      5  C   UNL     1       3.100  -7.959  -0.053  0.00  0.00    +0.130 A 
ATOM      6  C   UNL     1       2.898  -6.590  -0.050  0.00  0.00    +0.091 A 
ENDROOT
BRANCH   4   7
ATOM      7  C   UNL     1       2.209 -10.289  -0.067  0.00  0.00    +0.112 A 
ATOM      8  C   UNL     1       2.785 -11.041   0.936  0.00  0.00    +0.176 A 
ATOM      9  C   UNL     1       2.784 -12.376   0.517  0.00  0.00    +0.102 A 
ATOM     10  N   UNL     1       2.240 -12.441  -0.672  0.00  0.00    -0.175 NA
ATOM     11  N   UNL     1       1.862 -11.152  -1.068  0.00  0.00    -0.273 N 
ATOM     12  H   UNL     1       1.432 -10.915  -1.904  0.00  0.00    +0.189 HD
ATOM     13  C   UNL     1       3.320 -13.544   1.303  0.00  0.00    +0.071 C 
BRANCH   8  14
ATOM     14  O   UNL     1       3.268 -10.570   2.119  0.00  0.00    -0.448 OA
BRANCH  14  15
ATOM     15  C   UNL     1       2.415 -10.506   3.175  0.00  0.00    +0.170 A 
ATOM     16  C   UNL     1       1.099 -10.918   3.033  0.00  0.00    +0.050 A 
ATOM     17  C   UNL     1       0.234 -10.852   4.109  0.00  0.00    +0.004 A 
ATOM     18  C   UNL     1       0.678 -10.375   5.329  0.00  0.00    +0.004 A 
ATOM     19  C   UNL     1       1.988  -9.962   5.478  0.00  0.00    +0.049 A 
ATOM     20  C   UNL     1       2.863 -10.031   4.405  0.00  0.00    +0.162 A 
BRANCH  20  21
ATOM     21  O   UNL     1       4.154  -9.631   4.552  0.00  0.00    -0.491 OA
ATOM     22  C   UNL     1       4.544  -9.155   5.842  0.00  0.00    +0.277 C 
ENDBRANCH  20  21
ENDBRANCH  14  15
ENDBRANCH   8  14
ENDBRANCH   4   7
BRANCH   5  23
ATOM     23  O   UNL     1       4.363  -8.461  -0.058  0.00  0.00    -0.506 OA
ATOM     24  H   UNL     1       4.728  -8.601  -0.943  0.00  0.00    +0.292 HD
ENDBRANCH   5  23
BRANCH   1  25
ATOM     25  O   UNL     1       1.413  -4.734  -0.032  0.00  0.00    -0.487 OA
BRANCH  25  26
ATOM     26  C   UNL     1       0.059  -4.275  -0.021  0.00  0.00    +0.264 C 
BRANCH  26  31
ATOM     27  C   UNL     1      -0.018   1.503   0.010  0.00  0.00    +0.044 C 
ATOM     28  C   UNL     1       0.002  -0.004   0.002  0.00  0.00    -0.050 A 
ATOM     29  C   UNL     1       0.006  -0.689  -1.199  0.00  0.00    +0.004 A 
ATOM     30  C   UNL     1       0.025  -2.071  -1.206  0.00  0.00    +0.007 A 
ATOM     31  C   UNL     1       0.040  -2.768  -0.013  0.00  0.00    -0.010 A 
ATOM     32  C   UNL     1       0.037  -2.084   1.188  0.00  0.00    +0.007 A 
ATOM     33  C   UNL     1       0.023  -0.702   1.195  0.00  0.00    +0.004 A 
ENDBRANCH  26  31
ENDBRANCH  25  26
ENDBRANCH   1  25
TORSDOF 8
