REMARK  Name = ZINC67089776
REMARK  8 active torsions:
REMARK  status: ('A' for Active; 'I' for Inactive)
REMARK    1  A    between atoms: C_1  and  C_2
REMARK    2  A    between atoms: C_2  and  C_3
REMARK    3  A    between atoms: C_8  and  N_9
REMARK    4  A    between atoms: C_10  and  C_12
REMARK    5  A    between atoms: C_12  and  N_13
REMARK    6  A    between atoms: N_16  and  C_17
REMARK    7  A    between atoms: C_17  and  C_18
REMARK    8  A    between atoms: C_18  and  C_21
REMARK                            x       y       z     vdW  Elec       q    Type
REMARK                         _______ _______ _______ _____ _____    ______ ____
ROOT
ATOM      1  N   UNL     1      -2.386  -0.601  -5.964  0.00  0.00    -0.291 N 
ATOM      2  C   UNL     1      -1.966  -0.437  -7.234  0.00  0.00    +0.300 C 
ATOM      3  O   UNL     1      -0.844  -0.023  -7.454  0.00  0.00    -0.253 OA
ATOM      4  N   UNL     1      -2.789  -0.732  -8.259  0.00  0.00    -0.299 N 
ATOM      5  H   UNL     1      -3.281  -0.931  -5.788  0.00  0.00    +0.151 HD
ATOM      6  H   UNL     1      -3.684  -1.063  -8.084  0.00  0.00    +0.150 HD
ENDROOT
BRANCH   1   7
ATOM      7  C   UNL     1      -1.492  -0.280  -4.849  0.00  0.00    +0.202 C 
BRANCH   7   9
ATOM      8  N   UNL     1      -1.564  -0.324  -2.377  0.00  0.00    -0.284 N 
ATOM      9  C   UNL     1      -2.198  -0.549  -3.545  0.00  0.00    +0.234 C 
ATOM     10  O   UNL     1      -3.336  -0.968  -3.547  0.00  0.00    -0.274 OA
ATOM     11  H   UNL     1      -0.677   0.069  -2.374  0.00  0.00    +0.155 HD
BRANCH   8  17
ATOM     12  C   UNL     1      -1.428  -1.126  -0.102  0.00  0.00    -0.026 A 
ATOM     13  C   UNL     1      -2.043  -1.449   1.091  0.00  0.00    +0.005 A 
ATOM     14  C   UNL     1      -3.413  -1.314   1.223  0.00  0.00    +0.000 A 
ATOM     15  C   UNL     1      -4.171  -0.854   0.162  0.00  0.00    +0.002 A 
ATOM     16  C   UNL     1      -3.562  -0.528  -1.034  0.00  0.00    +0.023 A 
ATOM     17  C   UNL     1      -2.185  -0.659  -1.168  0.00  0.00    +0.037 A 
BRANCH  12  19
ATOM     18  C   UNL     1       0.741   0.067   0.052  0.00  0.00    +0.009 C 
ATOM     19  C   UNL     1       0.065  -1.273  -0.246  0.00  0.00    +0.033 C 
ENDBRANCH  12  19
ENDBRANCH   8  17
ENDBRANCH   7   9
ENDBRANCH   1   7
BRANCH   4  20
ATOM     20  C   UNL     1      -2.332  -0.554  -9.640  0.00  0.00    +0.117 C 
BRANCH  20  21
ATOM     21  C   UNL     1      -3.488  -0.838 -10.601  0.00  0.00    +0.011 C 
ATOM     22  C   UNL     1      -3.872   0.264 -11.590  0.00  0.00    +0.014 C 
ATOM     23  C   UNL     1      -4.783  -0.048 -10.401  0.00  0.00    +0.014 C 
BRANCH  21  24
ATOM     24  C   UNL     1      -3.609  -2.266 -11.068  0.00  0.00    -0.040 A 
ATOM     25  C   UNL     1      -2.533  -2.889 -11.671  0.00  0.00    +0.005 A 
ATOM     26  C   UNL     1      -2.643  -4.198 -12.100  0.00  0.00    +0.020 A 
ATOM     27  C   UNL     1      -3.832  -4.886 -11.925  0.00  0.00    +0.041 A 
ATOM     28  C   UNL     1      -4.908  -4.261 -11.321  0.00  0.00    +0.020 A 
ATOM     29  C   UNL     1      -4.795  -2.954 -10.887  0.00  0.00    +0.005 A 
ATOM     30 CL   UNL     1      -3.971  -6.530 -12.463  0.00  0.00    -0.084 Cl
ENDBRANCH  21  24
ENDBRANCH  20  21
ENDBRANCH   4  20
TORSDOF 7
