REMARK  Name = ZINC33812724
REMARK  11 active torsions:
REMARK  status: ('A' for Active; 'I' for Inactive)
REMARK    1  A    between atoms: C_1  and  C_2
REMARK    2  A    between atoms: C_2  and  C_3
REMARK    3  A    between atoms: C_3  and  C_4
REMARK    4  A    between atoms: C_4  and  N_5
REMARK    5  A    between atoms: C_6  and  N_27
REMARK    6  A    between atoms: C_7  and  C_15
REMARK    7  A    between atoms: C_8  and  C_14
REMARK    8  A    between atoms: C_9  and  C_12
REMARK    9  A    between atoms: N_19  and  C_23
REMARK   10  A    between atoms: C_23  and  C_24
REMARK   11  A    between atoms: N_30  and  C_33
REMARK                            x       y       z     vdW  Elec       q    Type
REMARK                         _______ _______ _______ _____ _____    ______ ____
ROOT
ATOM      1  N   UNL     1       1.294  -2.594   2.948  0.00  0.00    -0.295 N 
ATOM      2  C   UNL     1       2.623  -2.744   2.712  0.00  0.00    +0.112 A 
ATOM      3  C   UNL     1       3.419  -3.513   3.576  0.00  0.00    +0.019 A 
ATOM      4  C   UNL     1       2.830  -4.129   4.693  0.00  0.00    -0.017 A 
ATOM      5  C   UNL     1       1.466  -3.959   4.914  0.00  0.00    +0.120 A 
ATOM      6  C   UNL     1       0.707  -3.168   4.014  0.00  0.00    +0.270 A 
ATOM      7  O   UNL     1      -0.486  -3.012   4.204  0.00  0.00    -0.266 OA
ATOM      8  C   UNL     1       3.661  -4.960   5.637  0.00  0.00    +0.046 C 
ENDROOT
BRANCH   3   9
ATOM      9  C   UNL     1       4.851  -3.672   3.315  0.00  0.00    +0.032 C 
ATOM     10  C   UNL     1       5.762  -3.142   4.176  0.00  0.00    +0.077 C 
ATOM     11  C   UNL     1       5.556  -2.315   5.322  0.00  0.00    +0.259 C 
ATOM     12  O   UNL     1       4.435  -1.980   5.660  0.00  0.00    -0.269 OA
ATOM     13  N   UNL     1       6.618  -1.925   6.004  0.00  0.00    -0.244 N 
ATOM     14  C   UNL     1       7.862  -2.297   5.629  0.00  0.00    +0.121 C 
ATOM     15  S   UNL     1       9.363  -1.912   6.357  0.00  0.00    -0.027 S 
ATOM     16  S   UNL     1       7.543  -3.298   4.184  0.00  0.00    -0.061 S 
BRANCH  13  17
ATOM     17  C   UNL     1       6.445  -1.075   7.185  0.00  0.00    +0.240 C 
BRANCH  17  18
ATOM     18  C   UNL     1       6.285  -1.942   8.408  0.00  0.00    +0.373 C 
ATOM     19  O   UNL     1       6.314  -3.156   8.303  0.00  0.00    -0.245 OA
ATOM     20  O   UNL     1       6.128  -1.428   9.502  0.00  0.00    -0.245 OA
ENDBRANCH  17  18
ENDBRANCH  13  17
ENDBRANCH   3   9
BRANCH   2  21
ATOM     21  N   UNL     1       3.188  -2.143   1.625  0.00  0.00    -0.320 N 
ATOM     22  C   UNL     1       3.838  -0.828   1.740  0.00  0.00    +0.088 C 
ATOM     23  C   UNL     1       5.230  -0.917   1.106  0.00  0.00    -0.060 C 
ATOM     24  N   UNL     1       5.109  -1.415  -0.270  0.00  0.00    +0.380 N 
ATOM     25  C   UNL     1       4.590  -2.788  -0.262  0.00  0.00    -0.060 C 
ATOM     26  C   UNL     1       3.172  -2.795   0.306  0.00  0.00    +0.088 C 
ATOM     27  C   UNL     1       6.429  -1.395  -0.914  0.00  0.00    -0.096 C 
ATOM     28  H   UNL     1       4.477  -0.821  -0.787  0.00  0.00    -0.082 HD
ENDBRANCH   2  21
BRANCH   5  29
ATOM     29  C   UNL     1       0.835  -4.574   6.043  0.00  0.00    +0.105 C 
ATOM     30  N   UNL     1       0.335  -5.061   6.939  0.00  0.00    -0.191 NA
ENDBRANCH   5  29
BRANCH   1  31
ATOM     31  C   UNL     1       0.486  -1.786   2.030  0.00  0.00    +0.126 C 
BRANCH  31  32
ATOM     32  C   UNL     1       0.380  -0.357   2.567  0.00  0.00    +0.021 C 
BRANCH  32  34
ATOM     33  C   UNL     1      -0.570   1.914   2.144  0.00  0.00    +0.004 C 
ATOM     34  C   UNL     1      -0.464   0.485   1.608  0.00  0.00    -0.002 C 
ENDBRANCH  32  34
ENDBRANCH  31  32
ENDBRANCH   1  31
TORSDOF 8
