REMARK  Name = ZINC13066565
REMARK  11 active torsions:
REMARK  status: ('A' for Active; 'I' for Inactive)
REMARK    1  A    between atoms: C_1  and  C_2
REMARK    2  A    between atoms: C_3  and  C_8
REMARK    3  A    between atoms: C_4  and  C_7
REMARK    4  A    between atoms: C_8  and  O_9
REMARK    5  A    between atoms: O_9  and  C_10
REMARK    6  A    between atoms: C_13  and  C_18
REMARK    7  A    between atoms: C_15  and  O_16
REMARK    8  A    between atoms: O_16  and  C_17
REMARK    9  A    between atoms: N_19  and  N_20
REMARK   10  A    between atoms: N_20  and  C_21
REMARK   11  A    between atoms: CA_23  and  C_29
REMARK                            x       y       z     vdW  Elec       q    Type
REMARK                         _______ _______ _______ _____ _____    ______ ____
ROOT
ATOM      1  C   UNL     1       0.606  -0.607  -1.056  0.00  0.00    +0.162 A 
ATOM      2  C   UNL     1       1.162   0.163  -2.067  0.00  0.00    +0.050 A 
ATOM      3  C   UNL     1       1.781  -0.444  -3.140  0.00  0.00    +0.013 A 
ATOM      4  C   UNL     1       1.839  -1.837  -3.216  0.00  0.00    -0.002 A 
ATOM      5  C   UNL     1       1.274  -2.613  -2.200  0.00  0.00    +0.059 A 
ATOM      6  C   UNL     1       0.660  -1.998  -1.125  0.00  0.00    +0.162 A 
ENDROOT
BRANCH   6   7
ATOM      7  O   UNL     1       0.108  -2.749  -0.136  0.00  0.00    -0.491 OA
ATOM      8  C   UNL     1       0.200  -4.169  -0.271  0.00  0.00    +0.277 C 
ENDBRANCH   6   7
BRANCH   4   9
ATOM      9  C   UNL     1       2.495  -2.488  -4.365  0.00  0.00    +0.138 C 
ATOM     10  N   UNL     1       3.020  -1.766  -5.307  0.00  0.00    -0.190 NA
BRANCH  10  11
ATOM     11  N   UNL     1       3.643  -2.384  -6.399  0.00  0.00    -0.235 N 
ATOM     12  H   UNL     1       3.682  -3.352  -6.451  0.00  0.00    +0.174 HD
BRANCH  11  13
ATOM     13  C   UNL     1       4.205  -1.610  -7.410  0.00  0.00    +0.090 A 
ATOM     14  C   UNL     1       5.090  -2.171  -8.334  0.00  0.00    +0.097 A 
ATOM     15  CA  UNL     1       5.629  -1.361  -9.329  0.00  0.00    +0.173 A 
ATOM     16  N   UNL     1       5.309  -0.072  -9.400  0.00  0.00    -0.225 NA
ATOM     17  C   UNL     1       4.479   0.486  -8.545  0.00  0.00    +0.150 A 
ATOM     18  C   UNL     1       3.896  -0.256  -7.529  0.00  0.00    +0.102 A 
ATOM     19 CL   UNL     1       2.798   0.495  -6.413  0.00  0.00    -0.078 Cl
ATOM     20 CL   UNL     1       4.104   2.174  -8.695  0.00  0.00    -0.060 Cl
ATOM     21 CL   UNL     1       5.509  -3.853  -8.243  0.00  0.00    -0.079 Cl
BRANCH  15  22
ATOM     22  C   UNL     1       6.568  -1.939 -10.315  0.00  0.00    +0.406 C 
ATOM     23  O   UNL     1       6.864  -3.115 -10.254  0.00  0.00    -0.239 OA
ATOM     24  OXT UNL     1       7.093  -1.161 -11.280  0.00  0.00    -0.239 OA
ENDBRANCH  15  22
ENDBRANCH  11  13
ENDBRANCH  10  11
ENDBRANCH   4   9
BRANCH   1  25
ATOM     25  O   UNL     1       0.002  -0.004   0.002  0.00  0.00    -0.484 OA
BRANCH  25  26
ATOM     26  C   UNL     1      -0.017   1.425   0.010  0.00  0.00    +0.270 C 
BRANCH  26  29
ATOM     27  C   UNL     1       1.291   2.087   2.904  0.00  0.00    +0.069 C 
ATOM     28  C   UNL     1      -0.160   2.202   2.514  0.00  0.00    +0.087 A 
ATOM     29  C   UNL     1      -0.723   1.911   1.250  0.00  0.00    +0.054 A 
ATOM     30  C   UNL     1      -2.041   2.176   1.409  0.00  0.00    +0.141 A 
ATOM     31  O   UNL     1      -2.197   2.578   2.679  0.00  0.00    -0.359 OA
ATOM     32  N   UNL     1      -1.144   2.588   3.273  0.00  0.00    -0.083 NA
ATOM     33  C   UNL     1      -3.121   2.042   0.367  0.00  0.00    +0.089 C 
ENDBRANCH  26  29
ENDBRANCH  25  26
ENDBRANCH   1  25
TORSDOF 8
