REMARK  Name = ZINC04976718
REMARK  10 active torsions:
REMARK  status: ('A' for Active; 'I' for Inactive)
REMARK    1  A    between atoms: C_1  and  C_2
REMARK    2  A    between atoms: C_2  and  C_3
REMARK    3  A    between atoms: C_3  and  C_4
REMARK    4  A    between atoms: C_4  and  C_5
REMARK    5  A    between atoms: C_5  and  C_6
REMARK    6  A    between atoms: C_6  and  C_7
REMARK    7  A    between atoms: C_9  and  O_23
REMARK    8  A    between atoms: C_14  and  C_21
REMARK    9  A    between atoms: C_14  and  C_22
REMARK   10  A    between atoms: C_20  and  N_55
REMARK                            x       y       z     vdW  Elec       q    Type
REMARK                         _______ _______ _______ _____ _____    ______ ____
ROOT
ATOM      1  C   UNL     1      -0.755   3.526   1.278  0.00  0.00    -0.040 A 
ATOM      2  C   UNL     1       0.279   4.222   1.877  0.00  0.00    +0.050 A 
ATOM      3  C   UNL     1       0.275   5.609   1.885  0.00  0.00    +0.128 A 
ATOM      4  C   UNL     1      -0.786   6.294   1.294  0.00  0.00    +0.061 A 
ATOM      5  C   UNL     1      -1.833   5.583   0.695  0.00  0.00    +0.133 A 
ATOM      6  C   UNL     1      -1.811   4.201   0.690  0.00  0.00    +0.050 A 
ATOM      7  O   UNL     1      -2.854   6.279   0.133  0.00  0.00    -0.481 OA
ATOM      8  C   UNL     1      -3.217   7.508   0.762  0.00  0.00    +0.125 C 
ATOM      9  C   UNL     1      -1.993   8.361   1.010  0.00  0.00    -0.040 C 
ATOM     10  C   UNL     1      -0.836   7.774   1.280  0.00  0.00    -0.034 C 
ATOM     11  C   UNL     1       0.422   8.551   1.558  0.00  0.00    +0.017 C 
ATOM     12  C   UNL     1       0.266   9.994   1.078  0.00  0.00    -0.074 C 
ATOM     13  C   UNL     1      -2.134   9.858   0.934  0.00  0.00    -0.044 C 
ATOM     14  C   UNL     1      -1.081  11.977   1.437  0.00  0.00    -0.096 C 
ATOM     15  C   UNL     1      -4.188   8.270  -0.143  0.00  0.00    +0.060 C 
ATOM     16  C   UNL     1      -3.901   7.208   2.097  0.00  0.00    +0.060 C 
ATOM     17  N   UNL     1      -1.008  10.511   1.621  0.00  0.00    +0.381 N 
ATOM     18  H   UNL     1      -1.056  10.297   2.624  0.00  0.00    -0.082 HD
ENDROOT
BRANCH   3  19
ATOM     19  O   UNL     1       1.293   6.294   2.469  0.00  0.00    -0.506 OA
ATOM     20  H   UNL     1       1.152   6.482   3.407  0.00  0.00    +0.292 HD
ENDBRANCH   3  19
BRANCH   1  21
ATOM     21  C   UNL     1      -0.735   2.019   1.269  0.00  0.00    +0.035 C 
BRANCH  21  22
ATOM     22  C   UNL     1      -0.019   1.526   0.010  0.00  0.00    +0.005 C 
BRANCH  22  23
ATOM     23  C   UNL     1       0.002  -0.004   0.002  0.00  0.00    +0.000 C 
BRANCH  23  24
ATOM     24  C   UNL     1       0.718  -0.497  -1.257  0.00  0.00    -0.000 C 
BRANCH  24  26
ATOM     25  C   UNL     1       1.455  -2.521  -2.524  0.00  0.00    +0.004 C 
ATOM     26  C   UNL     1       0.739  -2.027  -1.265  0.00  0.00    -0.003 C 
ENDBRANCH  24  26
ENDBRANCH  23  24
ENDBRANCH  22  23
ENDBRANCH  21  22
ENDBRANCH   1  21
TORSDOF 6
