REMARK  Name = ZINC04256404
REMARK  4 active torsions:
REMARK  status: ('A' for Active; 'I' for Inactive)
REMARK    1  A    between atoms: C_6  and  C_7
REMARK    2  A    between atoms: N_16  and  C_26
REMARK    3  A    between atoms: C_17  and  C_19
REMARK    4  A    between atoms: C_26  and  N_28
REMARK                            x       y       z     vdW  Elec       q    Type
REMARK                         _______ _______ _______ _____ _____    ______ ____
ROOT
ATOM      1  C   UNL     1       1.450   3.482  -0.129  0.00  0.00    +0.013 C 
ATOM      2  C   UNL     1       1.369   2.136  -0.170  0.00  0.00    -0.024 C 
ATOM      3  C   UNL     1       0.094   1.485  -0.613  0.00  0.00    +0.037 C 
ATOM      4  C   UNL     1       0.185  -0.020  -0.766  0.00  0.00    +0.005 C 
ATOM      5  C   UNL     1       1.138  -0.673   0.233  0.00  0.00    +0.012 C 
ATOM      6  C   UNL     1       2.549  -0.146  -0.037  0.00  0.00    +0.066 C 
ATOM      7  C   UNL     1       2.490   1.357   0.205  0.00  0.00    +0.068 C 
ATOM      8  N   UNL     1       3.541   1.706   0.865  0.00  0.00    -0.182 NA
ATOM      9  N   UNL     1       4.325   0.622   1.279  0.00  0.00    -0.196 N 
ATOM     10  C   UNL     1       3.546  -0.614   1.037  0.00  0.00    +0.139 C 
ENDROOT
BRANCH   1  16
ATOM     11  C   UNL     1       0.326   5.436  -1.182  0.00  0.00    +0.009 A 
ATOM     12  C   UNL     1      -0.804   6.193  -1.408  0.00  0.00    +0.020 A 
ATOM     13  C   UNL     1      -2.009   5.837  -0.825  0.00  0.00    +0.041 A 
ATOM     14  C   UNL     1      -2.090   4.716  -0.016  0.00  0.00    +0.020 A 
ATOM     15  C   UNL     1      -0.970   3.946   0.215  0.00  0.00    +0.009 A 
ATOM     16  C   UNL     1       0.250   4.299  -0.371  0.00  0.00    -0.025 A 
ATOM     17 CL   UNL     1      -3.424   6.801  -1.110  0.00  0.00    -0.084 Cl
ENDBRANCH   1  16
BRANCH  10  18
ATOM     18  C   UNL     1       4.430  -1.715   0.511  0.00  0.00    -0.024 A 
ATOM     19  C   UNL     1       5.513  -1.407  -0.292  0.00  0.00    +0.007 A 
ATOM     20  C   UNL     1       6.327  -2.416  -0.770  0.00  0.00    +0.020 A 
ATOM     21  C   UNL     1       6.052  -3.735  -0.456  0.00  0.00    +0.041 A 
ATOM     22  C   UNL     1       4.965  -4.043   0.343  0.00  0.00    +0.020 A 
ATOM     23  C   UNL     1       4.154  -3.033   0.826  0.00  0.00    +0.007 A 
ATOM     24 CL   UNL     1       7.071  -5.003  -1.062  0.00  0.00    -0.084 Cl
ENDBRANCH  10  18
BRANCH   9  25
ATOM     25  C   UNL     1       5.565   0.691   1.803  0.00  0.00    +0.151 C 
ATOM     26  S   UNL     1       6.383  -0.742   2.257  0.00  0.00    -0.017 S 
BRANCH  25  27
ATOM     27  N   UNL     1       6.160   1.889   1.970  0.00  0.00    -0.339 N 
ATOM     28  H   UNL     1       5.696   2.701   1.712  0.00  0.00    +0.144 HD
ATOM     29  H   UNL     1       7.053   1.938   2.347  0.00  0.00    +0.144 HD
ENDBRANCH  25  27
ENDBRANCH   9  25
TORSDOF 4
