REMARK  Name = ZINC23566342
REMARK  10 active torsions:
REMARK  status: ('A' for Active; 'I' for Inactive)
REMARK    1  A    between atoms: C_1  and  C_2
REMARK    2  A    between atoms: C_7  and  C_9
REMARK    3  A    between atoms: C_7  and  C_10
REMARK    4  A    between atoms: N_13  and  C_17
REMARK    5  A    between atoms: C_17  and  C_18
REMARK    6  A    between atoms: N_20  and  N_21
REMARK    7  A    between atoms: C_22  and  C_24
REMARK    8  A    between atoms: C_24  and  C_26
REMARK    9  A    between atoms: C_24  and  O_27
REMARK   10  A    between atoms: O_27  and  C_28
REMARK                            x       y       z     vdW  Elec       q    Type
REMARK                         _______ _______ _______ _____ _____    ______ ____
ROOT
ATOM      1  C   UNL     1      -1.975  -3.553  -4.758  0.00  0.00    +0.247 C 
ATOM      2  O   UNL     1      -1.720  -2.371  -4.848  0.00  0.00    -0.273 OA
ATOM      3  N   UNL     1      -3.027  -4.068  -5.424  0.00  0.00    -0.233 N 
ATOM      4  H   UNL     1      -3.231  -5.014  -5.352  0.00  0.00    +0.173 HD
ENDROOT
BRANCH   3   5
ATOM      5  N   UNL     1      -3.828  -3.238  -6.219  0.00  0.00    -0.231 N 
ATOM      6  C   UNL     1      -4.881  -3.753  -6.884  0.00  0.00    +0.270 C 
ATOM      7  O   UNL     1      -5.135  -4.935  -6.795  0.00  0.00    -0.270 OA
ATOM      8  H   UNL     1      -3.625  -2.292  -6.290  0.00  0.00    +0.173 HD
BRANCH   6   9
ATOM      9  C   UNL     1      -5.742  -2.859  -7.739  0.00  0.00    +0.257 C 
ATOM     10  C   UNL     1      -4.915  -2.322  -8.909  0.00  0.00    +0.062 C 
BRANCH   9  11
ATOM     11  O   UNL     1      -6.851  -3.607  -8.243  0.00  0.00    -0.477 OA
BRANCH  11  12
ATOM     12  C   UNL     1      -7.968  -2.906  -8.575  0.00  0.00    +0.157 A 
ATOM     13  C   UNL     1      -7.958  -1.520  -8.527  0.00  0.00    +0.048 A 
ATOM     14  C   UNL     1      -9.094  -0.810  -8.865  0.00  0.00    +0.004 A 
ATOM     15  C   UNL     1     -10.241  -1.479  -9.251  0.00  0.00    +0.003 A 
ATOM     16  C   UNL     1     -10.255  -2.861  -9.300  0.00  0.00    +0.042 A 
ATOM     17  C   UNL     1      -9.118  -3.577  -8.969  0.00  0.00    +0.165 A 
ATOM     18  F   UNL     1      -9.130  -4.927  -9.023  0.00  0.00    -0.202 F 
ENDBRANCH  11  12
ENDBRANCH   9  11
ENDBRANCH   6   9
ENDBRANCH   3   5
BRANCH   1  19
ATOM     19  C   UNL     1      -1.113  -4.447  -3.903  0.00  0.00    +0.215 C 
BRANCH  19  31
ATOM     20  C   UNL     1       0.417   0.785   0.067  0.00  0.00    +0.007 C 
ATOM     21  C   UNL     1       0.524  -0.725  -0.166  0.00  0.00    -0.011 C 
ATOM     22  C   UNL     1       1.154  -0.981  -1.537  0.00  0.00    +0.038 C 
ATOM     23  C   UNL     1       1.222  -2.479  -1.800  0.00  0.00    +0.113 C 
ATOM     24  C   UNL     1       1.925  -3.241  -0.695  0.00  0.00    +0.041 C 
ATOM     25  C   UNL     1       1.538  -2.849   0.721  0.00  0.00    -0.032 C 
ATOM     26  C   UNL     1       1.424  -1.340   0.903  0.00  0.00    +0.009 C 
ATOM     27  C   UNL     1       0.229  -3.529   1.133  0.00  0.00    +0.011 C 
ATOM     28  C   UNL     1       2.641  -3.356   1.675  0.00  0.00    +0.011 C 
ATOM     29  C   UNL     1      -0.149  -3.036  -2.095  0.00  0.00    +0.247 C 
ATOM     30  O   UNL     1      -1.156  -2.943  -1.426  0.00  0.00    -0.273 OA
ATOM     31  N   UNL     1      -0.044  -3.654  -3.291  0.00  0.00    -0.215 N 
ATOM     32  C   UNL     1       1.156  -3.451  -3.845  0.00  0.00    +0.310 C 
ATOM     33  O   UNL     1       1.485  -3.895  -4.928  0.00  0.00    -0.252 OA
ATOM     34  N   UNL     1       1.957  -2.704  -3.066  0.00  0.00    -0.285 N 
ATOM     35  H   UNL     1       2.841  -2.371  -3.276  0.00  0.00    +0.151 HD
ENDBRANCH  19  31
ENDBRANCH   1  19
TORSDOF 6
