REMARK  Name = ZINC39479804
REMARK  4 active torsions:
REMARK  status: ('A' for Active; 'I' for Inactive)
REMARK    1  A    between atoms: C_1  and  N_2
REMARK    2  A    between atoms: C_6  and  O_16
REMARK    3  A    between atoms: C_8  and  C_9
REMARK    4  A    between atoms: C_9  and  C_10
REMARK                            x       y       z     vdW  Elec       q    Type
REMARK                         _______ _______ _______ _____ _____    ______ ____
ROOT
ATOM      1  C   UNL     1      -0.009   1.450   0.045  0.00  0.00    +0.137 C 
ATOM      2  N   UNL     1       0.004  -0.014   0.027  0.00  0.00    -0.286 N 
ATOM      3  C   UNL     1      -1.247  -0.590   0.012  0.00  0.00    +0.042 A 
ATOM      4  C   UNL     1      -2.260   0.124   0.623  0.00  0.00    -0.016 A 
ATOM      5  C   UNL     1      -3.566   0.043   0.312  0.00  0.00    +0.051 A 
ATOM      6  C   UNL     1      -3.938  -1.065  -0.466  0.00  0.00    +0.118 A 
ATOM      7  C   UNL     1      -2.967  -1.976  -0.861  0.00  0.00    +0.051 A 
ATOM      8  C   UNL     1      -1.618  -1.756  -0.635  0.00  0.00    -0.018 A 
ATOM      9  C   UNL     1      -1.784   0.581   2.040  0.00  0.00    +0.099 C 
ATOM     10  C   UNL     1      -0.395  -0.050   2.016  0.00  0.00    +0.084 C 
ATOM     11  N   UNL     1       0.736   0.559   1.942  0.00  0.00    -0.239 NA
ATOM     12  C   UNL     1       1.736  -0.164   1.368  0.00  0.00    +0.141 A 
ATOM     13  C   UNL     1       1.254  -0.565   0.024  0.00  0.00    +0.156 A 
ATOM     14  N   UNL     1       2.021  -1.251  -0.734  0.00  0.00    -0.218 NA
ATOM     15  C   UNL     1       3.235  -1.608  -0.326  0.00  0.00    +0.225 A 
ATOM     16  N   UNL     1       3.705  -1.279   0.862  0.00  0.00    -0.222 NA
ATOM     17  C   UNL     1       2.977  -0.560   1.736  0.00  0.00    +0.160 A 
ATOM     18 CL   UNL     1       3.613  -0.140   3.296  0.00  0.00    -0.060 Cl
ATOM     19  I   UNL     1      -0.321  -2.141   2.116  0.00  0.00    -0.027 I 
ENDROOT
BRANCH   6  20
ATOM     20  O   UNL     1      -5.236  -1.244  -0.829  0.00  0.00    -0.507 OA
ATOM     21  H   UNL     1      -5.471  -0.827  -1.669  0.00  0.00    +0.292 HD
ENDBRANCH   6  20
BRANCH   8  22
ATOM     22  C   UNL     1      -0.584  -2.758  -1.081  0.00  0.00    +0.072 C 
BRANCH  22  23
ATOM     23  C   UNL     1      -1.273  -3.983  -1.624  0.00  0.00    -0.043 A 
ATOM     24  C   UNL     1      -1.681  -4.985  -0.763  0.00  0.00    +0.004 A 
ATOM     25  C   UNL     1      -2.313  -6.109  -1.261  0.00  0.00    +0.000 A 
ATOM     26  C   UNL     1      -2.538  -6.231  -2.620  0.00  0.00    +0.000 A 
ATOM     27  C   UNL     1      -2.131  -5.229  -3.480  0.00  0.00    +0.000 A 
ATOM     28  C   UNL     1      -1.502  -4.103  -2.982  0.00  0.00    +0.004 A 
ENDBRANCH  22  23
ENDBRANCH   8  22
TORSDOF 3
