REMARK  Name = ZINC66042918
REMARK  9 active torsions:
REMARK  status: ('A' for Active; 'I' for Inactive)
REMARK    1  A    between atoms: C_1  and  C_2
REMARK    2  A    between atoms: C_2  and  C_3
REMARK    3  A    between atoms: C_3  and  C_4
REMARK    4  A    between atoms: C_3  and  O_25
REMARK    5  A    between atoms: N_6  and  C_7
REMARK    6  A    between atoms: C_7  and  C_8
REMARK    7  A    between atoms: C_7  and  C_14
REMARK    8  A    between atoms: C_23  and  O_24
REMARK    9  A    between atoms: O_25  and  C_26
REMARK                            x       y       z     vdW  Elec       q    Type
REMARK                         _______ _______ _______ _____ _____    ______ ____
ROOT
ATOM      1  C   UNL     1      -1.207  -2.831  -2.734  0.00  0.00    +0.138 C 
ENDROOT
BRANCH   1   2
ATOM      2  C   UNL     1      -2.208  -3.756  -2.092  0.00  0.00    +0.026 A 
ATOM      3  C   UNL     1      -1.785  -4.970  -1.524  0.00  0.00    -0.009 A 
ATOM      4  C   UNL     1      -0.432  -5.349  -1.539  0.00  0.00    +0.009 A 
ATOM      5  C   UNL     1      -0.058  -6.532  -0.979  0.00  0.00    +0.001 A 
ATOM      6  C   UNL     1      -0.998  -7.376  -0.390  0.00  0.00    +0.001 A 
ATOM      7  C   UNL     1      -2.317  -7.041  -0.356  0.00  0.00    +0.008 A 
ATOM      8  C   UNL     1      -2.741  -5.827  -0.924  0.00  0.00    -0.017 A 
ATOM      9  C   UNL     1      -4.095  -5.449  -0.907  0.00  0.00    +0.012 A 
ATOM     10  C   UNL     1      -4.472  -4.268  -1.465  0.00  0.00    +0.046 A 
ATOM     11  C   UNL     1      -3.530  -3.417  -2.053  0.00  0.00    +0.123 A 
BRANCH  11  12
ATOM     12  O   UNL     1      -3.937  -2.241  -2.598  0.00  0.00    -0.506 OA
ATOM     13  H   UNL     1      -4.211  -2.309  -3.523  0.00  0.00    +0.292 HD
ENDBRANCH  11  12
ENDBRANCH   1   2
BRANCH   1  14
ATOM     14  C   UNL     1      -1.364  -2.883  -4.232  0.00  0.00    -0.023 A 
ATOM     15  C   UNL     1      -2.259  -2.039  -4.862  0.00  0.00    +0.006 A 
ATOM     16  C   UNL     1      -2.403  -2.086  -6.236  0.00  0.00    +0.000 A 
ATOM     17  C   UNL     1      -1.652  -2.977  -6.980  0.00  0.00    +0.000 A 
ATOM     18  C   UNL     1      -0.756  -3.820  -6.350  0.00  0.00    +0.000 A 
ATOM     19  C   UNL     1      -0.609  -3.770  -4.976  0.00  0.00    +0.006 A 
ENDBRANCH   1  14
BRANCH   1  22
ATOM     20  C   UNL     1      -0.427  -0.569  -2.273  0.00  0.00    +0.243 C 
ATOM     21  O   UNL     1       0.672  -0.899  -2.667  0.00  0.00    -0.273 OA
ATOM     22  N   UNL     1      -1.436  -1.462  -2.266  0.00  0.00    -0.302 N 
ATOM     23  H   UNL     1      -2.315  -1.198  -1.950  0.00  0.00    +0.150 HD
BRANCH  20  24
ATOM     24  C   UNL     1      -0.663   0.839  -1.791  0.00  0.00    +0.203 C 
BRANCH  24  26
ATOM     25  C   UNL     1      -1.378   2.228   0.159  0.00  0.00    +0.007 C 
ATOM     26  C   UNL     1      -0.998   0.818  -0.298  0.00  0.00    +0.038 C 
ENDBRANCH  24  26
BRANCH  24  27
ATOM     27  O   UNL     1       0.515   1.619  -2.004  0.00  0.00    -0.371 OA
ATOM     28  C   UNL     1       0.258   2.951  -2.453  0.00  0.00    +0.195 C 
ENDBRANCH  24  27
ENDBRANCH  20  24
ENDBRANCH   1  22
TORSDOF 7
