REMARK  Name = ZINC38223491
REMARK  4 active torsions:
REMARK  status: ('A' for Active; 'I' for Inactive)
REMARK    1  A    between atoms: C_6  and  N_19
REMARK    2  A    between atoms: C_14  and  C_15
REMARK    3  A    between atoms: N_19  and  S_20
REMARK    4  A    between atoms: S_20  and  N_23
REMARK                            x       y       z     vdW  Elec       q    Type
REMARK                         _______ _______ _______ _____ _____    ______ ____
ROOT
ATOM      1  C   UNL     1      -0.201   1.817  -0.322  0.00  0.00    +0.013 A 
ATOM      2  C   UNL     1       1.024   2.447  -0.269  0.00  0.00    +0.011 A 
ATOM      3  C   UNL     1       2.190   1.688  -0.219  0.00  0.00    +0.007 A 
ATOM      4  C   UNL     1       3.623   2.033  -0.157  0.00  0.00    +0.009 A 
ATOM      5  C   UNL     1       4.314   3.242  -0.125  0.00  0.00    +0.035 A 
ATOM      6  C   UNL     1       5.697   3.240  -0.065  0.00  0.00    +0.050 A 
ATOM      7  C   UNL     1       6.393   2.034  -0.036  0.00  0.00    +0.026 A 
ATOM      8  C   UNL     1       5.715   0.835  -0.067  0.00  0.00    +0.028 A 
ATOM      9  C   UNL     1       4.324   0.820  -0.128  0.00  0.00    +0.048 A 
ATOM     10  N   UNL     1       3.405  -0.217  -0.169  0.00  0.00    -0.354 N 
ATOM     11  H   UNL     1       3.632  -1.160  -0.160  0.00  0.00    +0.166 HD
ATOM     12  C   UNL     1       2.118   0.287  -0.224  0.00  0.00    +0.048 A 
ATOM     13  C   UNL     1       0.872  -0.331  -0.279  0.00  0.00    +0.038 A 
ATOM     14  C   UNL     1      -0.275   0.433  -0.327  0.00  0.00    +0.057 A 
ENDROOT
BRANCH  14  15
ATOM     15  C   UNL     1      -1.620  -0.244  -0.386  0.00  0.00    +0.417 C 
ATOM     16  F   UNL     1      -2.628   0.726  -0.428  0.00  0.00    -0.166 F 
ATOM     17  F   UNL     1      -1.692  -1.041  -1.533  0.00  0.00    -0.166 F 
ATOM     18  F   UNL     1      -1.790  -1.044   0.749  0.00  0.00    -0.166 F 
ENDBRANCH  14  15
BRANCH   6  19
ATOM     19  N   UNL     1       6.398   4.452  -0.033  0.00  0.00    -0.207 N 
ATOM     20  H   UNL     1       6.418   4.979   0.781  0.00  0.00    +0.175 HD
BRANCH  19  21
ATOM     21  S   UNL     1       7.191   4.985  -1.385  0.00  0.00    +0.107 S 
ATOM     22  O   UNL     1       7.781   6.232  -1.044  0.00  0.00    -0.138 OA
ATOM     23  O   UNL     1       7.955   3.887  -1.867  0.00  0.00    -0.138 OA
BRANCH  21  24
ATOM     24  N   UNL     1       6.042   5.302  -2.534  0.00  0.00    -0.191 NA
ATOM     25  H   UNL     1       6.226   5.941  -3.241  0.00  0.00    +0.146 HD
ATOM     26  H   UNL     1       5.185   4.850  -2.501  0.00  0.00    +0.146 HD
ENDBRANCH  21  24
ENDBRANCH  19  21
ENDBRANCH   6  19
TORSDOF 4
