REMARK  Name = ZINC09676999
REMARK  9 active torsions:
REMARK  status: ('A' for Active; 'I' for Inactive)
REMARK    1  A    between atoms: C_1  and  C_2
REMARK    2  A    between atoms: C_2  and  C_3
REMARK    3  A    between atoms: C_9  and  S_16
REMARK    4  A    between atoms: C_13  and  C_15
REMARK    5  A    between atoms: S_16  and  C_19
REMARK    6  A    between atoms: C_19  and  C_20
REMARK    7  A    between atoms: C_20  and  C_21
REMARK    8  A    between atoms: N_26  and  C_29
REMARK    9  A    between atoms: C_34  and  C_35
REMARK                            x       y       z     vdW  Elec       q    Type
REMARK                         _______ _______ _______ _____ _____    ______ ____
ROOT
ATOM      1  C   UNL     1       1.214  -2.903  -1.778  0.00  0.00    +0.181 C 
ENDROOT
BRANCH   1   2
ATOM      2  S   UNL     1       1.226  -2.446  -0.022  0.00  0.00    -0.003 S 
ATOM      3  O   UNL     1       2.470  -2.797   0.567  0.00  0.00    -0.169 OA
ATOM      4  O   UNL     1       0.002  -2.825   0.591  0.00  0.00    -0.169 OA
BRANCH   2  11
ATOM      5  C   UNL     1       0.399   4.402   0.022  0.00  0.00    +0.220 C 
ATOM      6  O   UNL     1       0.677   5.582   0.025  0.00  0.00    -0.275 OA
ATOM      7  N   UNL     1       1.381   3.478   0.007  0.00  0.00    -0.268 N 
ATOM      8  C   UNL     1       1.179   2.095   0.002  0.00  0.00    +0.040 A 
ATOM      9  C   UNL     1      -0.017   1.374   0.010  0.00  0.00    +0.025 A 
ATOM     10  C   UNL     1       0.002  -0.004   0.002  0.00  0.00    +0.029 A 
ATOM     11  C   UNL     1       1.206  -0.684  -0.013  0.00  0.00    +0.089 A 
ATOM     12  C   UNL     1       2.394   0.022  -0.021  0.00  0.00    +0.032 A 
ATOM     13  C   UNL     1       2.381   1.404  -0.013  0.00  0.00    -0.022 A 
ATOM     14  C   UNL     1       3.512   2.407  -0.019  0.00  0.00    +0.059 C 
ATOM     15  C   UNL     1       2.815   3.777  -0.005  0.00  0.00    +0.083 C 
ATOM     16  C   UNL     1       3.181   4.572  -1.260  0.00  0.00    +0.029 C 
BRANCH   5  18
ATOM     17  C   UNL     1      -1.948   5.202   0.049  0.00  0.00    +0.013 C 
ATOM     18  C   UNL     1      -1.044   3.968   0.033  0.00  0.00    +0.093 C 
ENDBRANCH   5  18
ENDBRANCH   2  11
ENDBRANCH   1   2
BRANCH   1  19
ATOM     19  C   UNL     1       1.230  -4.427  -1.908  0.00  0.00    +0.119 C 
BRANCH  19  20
ATOM     20  C   UNL     1       1.220  -4.807  -3.366  0.00  0.00    +0.217 C 
ATOM     21  O   UNL     1       1.202  -3.944  -4.217  0.00  0.00    -0.276 OA
ATOM     22  N   UNL     1       1.231  -6.107  -3.724  0.00  0.00    -0.298 N 
ATOM     23  C   UNL     1       1.259  -7.170  -2.708  0.00  0.00    +0.126 C 
ATOM     24  C   UNL     1       0.129  -8.163  -3.018  0.00  0.00    +0.124 C 
ATOM     25  N   UNL     1       0.260  -8.628  -4.406  0.00  0.00    -0.327 N 
ATOM     26  C   UNL     1       0.099  -7.520  -5.356  0.00  0.00    +0.124 C 
ATOM     27  C   UNL     1       1.222  -6.499  -5.141  0.00  0.00    +0.126 C 
BRANCH  25  28
ATOM     28  C   UNL     1      -0.646  -9.656  -4.677  0.00  0.00    +0.034 A 
ATOM     29  C   UNL     1      -2.012  -9.408  -4.638  0.00  0.00    +0.043 A 
ATOM     30  C   UNL     1      -2.905 -10.427  -4.908  0.00  0.00    +0.043 A 
ATOM     31  C   UNL     1      -2.440 -11.694  -5.217  0.00  0.00    +0.020 A 
ATOM     32  C   UNL     1      -1.080 -11.943  -5.256  0.00  0.00    +0.006 A 
ATOM     33  C   UNL     1      -0.182 -10.927  -4.992  0.00  0.00    -0.029 A 
ATOM     34  C   UNL     1       1.299 -11.198  -5.041  0.00  0.00    +0.045 C 
ATOM     35 CL   UNL     1      -4.613 -10.119  -4.860  0.00  0.00    -0.083 Cl
ENDBRANCH  25  28
ENDBRANCH  19  20
ENDBRANCH   1  19
TORSDOF 6
