REMARK  Name = ZINC09712587
REMARK  8 active torsions:
REMARK  status: ('A' for Active; 'I' for Inactive)
REMARK    1  A    between atoms: C_4  and  N_7
REMARK    2  A    between atoms: C_13  and  C_15
REMARK    3  A    between atoms: C_15  and  C_17
REMARK    4  A    between atoms: C_15  and  N_22
REMARK    5  A    between atoms: C_17  and  C_18
REMARK    6  A    between atoms: C_18  and  C_19
REMARK    7  A    between atoms: N_22  and  S_23
REMARK    8  A    between atoms: S_23  and  C_26
REMARK                            x       y       z     vdW  Elec       q    Type
REMARK                         _______ _______ _______ _____ _____    ______ ____
ROOT
ATOM      1  C   UNL     1       1.672   2.161   0.107  0.00  0.00    +0.163 C 
ENDROOT
BRANCH   1   8
ATOM      2  N   UNL     1      -0.292  -2.137   1.612  0.00  0.00    -0.327 N 
ATOM      3  C   UNL     1      -1.395  -1.173   1.498  0.00  0.00    +0.124 C 
ATOM      4  C   UNL     1      -1.224  -0.356   0.213  0.00  0.00    +0.126 C 
ATOM      5  N   UNL     1       0.122   0.236   0.211  0.00  0.00    -0.297 N 
ATOM      6  C   UNL     1       1.272  -0.649   0.451  0.00  0.00    +0.126 C 
ATOM      7  C   UNL     1       1.003  -1.454   1.732  0.00  0.00    +0.124 C 
ATOM      8  C   UNL     1       0.298   1.554  -0.009  0.00  0.00    +0.234 C 
ATOM      9  O   UNL     1      -0.650   2.251  -0.306  0.00  0.00    -0.274 OA
BRANCH   2  13
ATOM     10  C   UNL     1      -0.907  -4.739   4.804  0.00  0.00    +0.000 A 
ATOM     11  C   UNL     1       0.227  -4.862   4.022  0.00  0.00    +0.002 A 
ATOM     12  C   UNL     1       0.434  -4.001   2.962  0.00  0.00    +0.023 A 
ATOM     13  C   UNL     1      -0.498  -3.010   2.683  0.00  0.00    +0.030 A 
ATOM     14  C   UNL     1      -1.633  -2.885   3.474  0.00  0.00    +0.023 A 
ATOM     15  C   UNL     1      -1.837  -3.753   4.529  0.00  0.00    +0.002 A 
ENDBRANCH   2  13
ENDBRANCH   1   8
BRANCH   1  16
ATOM     16  N   UNL     1       1.552   3.607   0.313  0.00  0.00    -0.178 NA
ATOM     17  H   UNL     1       1.454   4.198  -0.450  0.00  0.00    +0.149 HD
BRANCH  16  18
ATOM     18  S   UNL     1       1.583   4.230   1.847  0.00  0.00    +0.059 S 
ATOM     19  O   UNL     1       1.453   5.639   1.715  0.00  0.00    -0.153 OA
ATOM     20  O   UNL     1       0.681   3.451   2.620  0.00  0.00    -0.153 OA
BRANCH  18  21
ATOM     21  C   UNL     1       3.193   3.932   2.498  0.00  0.00    +0.106 A 
ATOM     22  C   UNL     1       3.465   2.716   3.124  0.00  0.00    +0.029 A 
ATOM     23  C   UNL     1       4.699   2.452   3.633  0.00  0.00    +0.010 A 
ATOM     24  C   UNL     1       5.713   3.420   3.537  0.00  0.00    -0.018 A 
ATOM     25  C   UNL     1       6.998   3.186   4.057  0.00  0.00    +0.008 A 
ATOM     26  C   UNL     1       7.955   4.147   3.946  0.00  0.00    +0.001 A 
ATOM     27  C   UNL     1       7.681   5.364   3.325  0.00  0.00    +0.001 A 
ATOM     28  C   UNL     1       6.448   5.627   2.810  0.00  0.00    +0.008 A 
ATOM     29  C   UNL     1       5.435   4.658   2.905  0.00  0.00    -0.016 A 
ATOM     30  C   UNL     1       4.150   4.893   2.387  0.00  0.00    +0.037 A 
ENDBRANCH  18  21
ENDBRANCH  16  18
ENDBRANCH   1  16
BRANCH   1  31
ATOM     31  C   UNL     1       2.459   1.892  -1.177  0.00  0.00    +0.039 C 
BRANCH  31  32
ATOM     32  C   UNL     1       3.898   2.384  -1.006  0.00  0.00    +0.097 C 
BRANCH  32  33
ATOM     33  C   UNL     1       4.643   2.218  -2.305  0.00  0.00    +0.211 C 
ATOM     34  O   UNL     1       4.056   1.841  -3.297  0.00  0.00    -0.276 OA
ATOM     35  N   UNL     1       5.962   2.488  -2.365  0.00  0.00    -0.329 N 
ATOM     36  H   UNL     1       6.447   2.719  -1.556  0.00  0.00    +0.145 HD
ATOM     37  H   UNL     1       6.427   2.451  -3.215  0.00  0.00    +0.145 HD
ENDBRANCH  32  33
ENDBRANCH  31  32
ENDBRANCH   1  31
TORSDOF 8
