REMARK  Name = ZINC09223662
REMARK  4 active torsions:
REMARK  status: ('A' for Active; 'I' for Inactive)
REMARK    1  A    between atoms: C_4  and  S_8
REMARK    2  A    between atoms: S_8  and  N_11
REMARK    3  A    between atoms: C_14  and  C_22
REMARK    4  A    between atoms: C_15  and  C_17
REMARK                            x       y       z     vdW  Elec       q    Type
REMARK                         _______ _______ _______ _____ _____    ______ ____
ROOT
ATOM      1  N   UNL     1      -0.080   0.127   0.071  0.00  0.00    -0.194 N 
ATOM      2  C   UNL     1      -0.232   1.502   0.054  0.00  0.00    +0.179 A 
ATOM      3  N   UNL     1       0.696   2.441   0.097  0.00  0.00    -0.220 NA
ATOM      4  C   UNL     1       0.381   3.727   0.071  0.00  0.00    +0.126 A 
ATOM      5  C   UNL     1      -0.967   4.083  -0.002  0.00  0.00    +0.087 A 
ATOM      6  S   UNL     1      -1.732   2.467  -0.040  0.00  0.00    -0.047 S 
ATOM      7  H   UNL     1       0.807  -0.263   0.045  0.00  0.00    +0.176 HD
ENDROOT
BRANCH   5   8
ATOM      8  C   UNL     1      -1.584   5.413  -0.045  0.00  0.00    +0.144 A 
ATOM      9  C   UNL     1      -2.922   5.675  -0.123  0.00  0.00    +0.050 A 
ATOM     10  C   UNL     1      -3.060   7.077  -0.136  0.00  0.00    +0.042 A 
ATOM     11  C   UNL     1      -1.819   7.598  -0.074  0.00  0.00    +0.196 A 
ATOM     12  O   UNL     1      -0.929   6.591  -0.019  0.00  0.00    -0.462 OA
ENDBRANCH   5   8
BRANCH   4  13
ATOM     13  C   UNL     1       1.431   4.760   0.119  0.00  0.00    +0.154 A 
ATOM     14  C   UNL     1       2.600   4.681   0.815  0.00  0.00    +0.051 A 
ATOM     15  C   UNL     1       3.296   5.883   0.576  0.00  0.00    +0.042 A 
ATOM     16  C   UNL     1       2.529   6.628  -0.243  0.00  0.00    +0.196 A 
ATOM     17  O   UNL     1       1.405   5.945  -0.522  0.00  0.00    -0.461 OA
ENDBRANCH   4  13
BRANCH   1  18
ATOM     18  S   UNL     1      -1.414  -0.852   0.136  0.00  0.00    +0.077 S 
ATOM     19  O   UNL     1      -0.936  -2.190   0.120  0.00  0.00    -0.150 OA
ATOM     20  O   UNL     1      -2.237  -0.349   1.180  0.00  0.00    -0.150 OA
BRANCH  18  24
ATOM     21  C   UNL     1      -3.706  -0.251  -3.723  0.00  0.00    +0.003 A 
ATOM     22  C   UNL     1      -2.499  -0.924  -3.734  0.00  0.00    +0.022 A 
ATOM     23  C   UNL     1      -1.798  -1.108  -2.555  0.00  0.00    +0.069 A 
ATOM     24  C   UNL     1      -2.306  -0.618  -1.366  0.00  0.00    +0.145 A 
ATOM     25  C   UNL     1      -3.516   0.052  -1.354  0.00  0.00    +0.069 A 
ATOM     26  C   UNL     1      -4.214   0.239  -2.534  0.00  0.00    +0.022 A 
ATOM     27 CL   UNL     1      -4.157   0.661   0.139  0.00  0.00    -0.081 Cl
ATOM     28 CL   UNL     1      -0.283  -1.955  -2.569  0.00  0.00    -0.081 Cl
ENDBRANCH  18  24
ENDBRANCH   1  18
TORSDOF 4
