REMARK  Name = ZINC21780741
REMARK  8 active torsions:
REMARK  status: ('A' for Active; 'I' for Inactive)
REMARK    1  A    between atoms: C_1  and  C_2
REMARK    2  A    between atoms: C_5  and  C_8
REMARK    3  A    between atoms: C_8  and  N_9
REMARK    4  A    between atoms: C_14  and  C_30
REMARK    5  A    between atoms: C_18  and  C_19
REMARK    6  A    between atoms: C_18  and  C_20
REMARK    7  A    between atoms: N_22  and  C_23
REMARK    8  A    between atoms: C_26  and  C_29
REMARK                            x       y       z     vdW  Elec       q    Type
REMARK                         _______ _______ _______ _____ _____    ______ ____
ROOT
ATOM      1  N   UNL     1       3.250   2.963   0.141  0.00  0.00    -0.276 N 
ATOM      2  C   UNL     1       2.546   1.851  -0.180  0.00  0.00    +0.266 C 
ATOM      3  O   UNL     1       3.095   0.795  -0.431  0.00  0.00    -0.268 OA
ATOM      4  C   UNL     1       1.081   1.990  -0.208  0.00  0.00    +0.124 A 
ATOM      5  C   UNL     1       0.088   1.061  -0.303  0.00  0.00    +0.065 A 
ATOM      6  C   UNL     1      -1.113   1.806  -0.290  0.00  0.00    +0.128 A 
ATOM      7  N   UNL     1      -0.789   3.083  -0.186  0.00  0.00    -0.167 NA
ATOM      8  N   UNL     1       0.478   3.228  -0.149  0.00  0.00    -0.256 N 
ATOM      9  C   UNL     1       1.277   4.458  -0.074  0.00  0.00    +0.179 C 
ATOM     10  C   UNL     1       2.591   4.162   0.648  0.00  0.00    +0.130 C 
ATOM     11  C   UNL     1       3.531   5.356   0.472  0.00  0.00    +0.044 C 
ENDROOT
BRANCH   6  12
ATOM     12  C   UNL     1      -2.483   1.256  -0.373  0.00  0.00    +0.155 A 
ATOM     13  C   UNL     1      -3.634   1.979  -0.360  0.00  0.00    +0.051 A 
ATOM     14  C   UNL     1      -4.695   1.055  -0.460  0.00  0.00    +0.042 A 
ATOM     15  C   UNL     1      -4.144  -0.172  -0.529  0.00  0.00    +0.196 A 
ATOM     16  O   UNL     1      -2.807  -0.046  -0.482  0.00  0.00    -0.461 OA
ENDBRANCH   6  12
BRANCH  10  17
ATOM     17  C   UNL     1       2.309   3.979   2.117  0.00  0.00    +0.239 C 
ATOM     18  O   UNL     1       2.430   4.915   2.878  0.00  0.00    -0.273 OA
ATOM     19  N   UNL     1       1.923   2.776   2.584  0.00  0.00    -0.311 N 
ATOM     20  H   UNL     1       1.813   1.927   1.893  0.00  0.00    +0.149 HD
BRANCH  19  21
ATOM     21  C   UNL     1       1.649   2.598   4.012  0.00  0.00    +0.073 C 
ATOM     22  C   UNL     1       2.956   2.300   4.749  0.00  0.00    +0.022 C 
ATOM     23  C   UNL     1       2.670   2.115   6.241  0.00  0.00    +0.005 C 
ATOM     24  C   UNL     1       1.700   0.947   6.432  0.00  0.00    -0.014 C 
ATOM     25  C   UNL     1       0.393   1.245   5.696  0.00  0.00    +0.005 C 
ATOM     26  C   UNL     1       0.678   1.430   4.204  0.00  0.00    +0.022 C 
ATOM     27  C   UNL     1       1.414   0.762   7.924  0.00  0.00    +0.007 C 
ENDBRANCH  19  21
ENDBRANCH  10  17
BRANCH   1  28
ATOM     28  C   UNL     1       4.705   2.963  -0.025  0.00  0.00    +0.144 C 
BRANCH  28  33
ATOM     29  C   UNL     1       7.177   0.629   4.648  0.00  0.00    +0.044 C 
ATOM     30  C   UNL     1       6.533   1.238   3.429  0.00  0.00    -0.050 A 
ATOM     31  C   UNL     1       6.265   0.452   2.323  0.00  0.00    +0.003 A 
ATOM     32  C   UNL     1       5.674   1.010   1.206  0.00  0.00    +0.005 A 
ATOM     33  C   UNL     1       5.350   2.354   1.193  0.00  0.00    -0.030 A 
ATOM     34  C   UNL     1       5.622   3.141   2.297  0.00  0.00    +0.005 A 
ATOM     35  C   UNL     1       6.209   2.581   3.417  0.00  0.00    +0.003 A 
ENDBRANCH  28  33
ENDBRANCH   1  28
TORSDOF 5
