REMARK  Name = ZINC14462079
REMARK  9 active torsions:
REMARK  status: ('A' for Active; 'I' for Inactive)
REMARK    1  A    between atoms: C_1  and  C_2
REMARK    2  A    between atoms: C_2  and  N_3
REMARK    3  A    between atoms: N_3  and  C_4
REMARK    4  A    between atoms: N_3  and  C_6
REMARK    5  A    between atoms: C_4  and  C_5
REMARK    6  A    between atoms: C_9  and  C_12
REMARK    7  A    between atoms: C_25  and  O_28
REMARK    8  A    between atoms: O_28  and  C_29
REMARK    9  A    between atoms: C_29  and  C_30
REMARK                            x       y       z     vdW  Elec       q    Type
REMARK                         _______ _______ _______ _____ _____    ______ ____
ROOT
ATOM      1  C   UNL     1       2.140   0.802   1.106  0.00  0.00    +0.105 C 
ATOM      2  C   UNL     1       1.657   1.554  -0.117  0.00  0.00    +0.029 C 
ATOM      3  C   UNL     1       2.185   1.139  -1.495  0.00  0.00    +0.033 C 
ATOM      4  C   UNL     1       1.011   1.525  -2.399  0.00  0.00    -0.030 C 
ATOM      5  C   UNL     1      -0.121   1.504  -1.703  0.00  0.00    -0.023 C 
ATOM      6  C   UNL     1       0.185   1.077  -0.316  0.00  0.00    +0.049 C 
ATOM      7  C   UNL     1      -0.584   1.575   0.846  0.00  0.00    -0.016 A 
ATOM      8  C   UNL     1      -1.913   1.939   0.731  0.00  0.00    +0.006 A 
ATOM      9  C   UNL     1      -2.615   2.390   1.832  0.00  0.00    +0.004 A 
ATOM     10  C   UNL     1      -1.980   2.480   3.058  0.00  0.00    +0.047 A 
ATOM     11  C   UNL     1      -0.651   2.128   3.180  0.00  0.00    +0.142 A 
ATOM     12  C   UNL     1       0.074   1.675   2.070  0.00  0.00    +0.074 A 
ATOM     13  N   UNL     1       1.418   1.352   2.264  0.00  0.00    -0.334 N 
ATOM     14  H   UNL     1       1.921   2.127   2.669  0.00  0.00    +0.147 HD
ENDROOT
BRANCH   1  18
ATOM     15  C   UNL     1       1.272  -3.363   0.692  0.00  0.00    +0.030 A 
ATOM     16  C   UNL     1       2.444  -2.840   0.160  0.00  0.00    +0.023 A 
ATOM     17  C   UNL     1       2.721  -1.493   0.295  0.00  0.00    +0.007 A 
ATOM     18  C   UNL     1       1.834  -0.667   0.960  0.00  0.00    -0.027 A 
ATOM     19  C   UNL     1       0.670  -1.185   1.496  0.00  0.00    +0.007 A 
ATOM     20  C   UNL     1       0.383  -2.529   1.359  0.00  0.00    +0.023 A 
BRANCH  15  21
ATOM     21  N   UNL     1       0.989  -4.724   0.557  0.00  0.00    -0.330 N 
BRANCH  21  23
ATOM     22  C   UNL     1      -1.361  -5.200   0.072  0.00  0.00    +0.024 C 
ATOM     23  C   UNL     1      -0.247  -5.274   1.119  0.00  0.00    +0.102 C 
ENDBRANCH  21  23
BRANCH  21  24
ATOM     24  C   UNL     1       1.927  -5.601  -0.147  0.00  0.00    +0.102 C 
ATOM     25  C   UNL     1       2.937  -6.172   0.851  0.00  0.00    +0.024 C 
ENDBRANCH  21  24
ENDBRANCH  15  21
ENDBRANCH   1  18
BRANCH  11  26
ATOM     26  O   UNL     1      -0.038   2.222   4.390  0.00  0.00    -0.486 OA
BRANCH  26  27
ATOM     27  C   UNL     1      -0.830   2.690   5.484  0.00  0.00    +0.256 C 
BRANCH  27  28
ATOM     28  C   UNL     1       0.012   2.727   6.733  0.00  0.00    +0.006 C 
ATOM     29  C   UNL     1      -0.037   3.770   7.525  0.00  0.00    +0.007 C 
ENDBRANCH  27  28
ENDBRANCH  26  27
ENDBRANCH  11  26
TORSDOF 7
