REMARK  Name = ZINC02292494
REMARK  5 active torsions:
REMARK  status: ('A' for Active; 'I' for Inactive)
REMARK    1  A    between atoms: C_1  and  C_2
REMARK    2  A    between atoms: N_12  and  C_28
REMARK    3  A    between atoms: C_16  and  S_20
REMARK    4  A    between atoms: S_20  and  C_21
REMARK    5  A    between atoms: C_21  and  C_22
REMARK                            x       y       z     vdW  Elec       q    Type
REMARK                         _______ _______ _______ _____ _____    ______ ____
ROOT
ATOM      1  C   UNL     1      -1.827   0.254   2.577  0.00  0.00    +0.012 C 
ATOM      2  C   UNL     1      -1.078  -0.670   1.614  0.00  0.00    +0.018 C 
ATOM      3  C   UNL     1      -0.654  -1.942   2.350  0.00  0.00    +0.008 C 
ATOM      4  C   UNL     1       0.263  -2.780   1.454  0.00  0.00    +0.006 C 
ATOM      5  C   UNL     1       1.611  -2.058   1.310  0.00  0.00    +0.043 C 
ATOM      6  C   UNL     1       1.341  -0.622   0.979  0.00  0.00    -0.004 A 
ATOM      7  C   UNL     1       0.170   0.035   1.096  0.00  0.00    -0.020 A 
ATOM      8  C   UNL     1       0.183   1.444   0.698  0.00  0.00    +0.075 A 
ATOM      9  C   UNL     1      -0.941   2.408   0.723  0.00  0.00    +0.268 A 
ATOM     10  O   UNL     1      -2.041   2.054   1.110  0.00  0.00    -0.266 OA
ATOM     11  N   UNL     1      -0.745   3.671   0.312  0.00  0.00    -0.245 N 
ATOM     12  C   UNL     1       0.497   4.104  -0.127  0.00  0.00    +0.245 A 
ATOM     13  N   UNL     1       0.910   5.271  -0.560  0.00  0.00    -0.109 NA
ATOM     14  N   UNL     1       2.269   5.162  -0.878  0.00  0.00    -0.120 NA
ATOM     15  C   UNL     1       2.646   3.931  -0.630  0.00  0.00    +0.198 A 
ATOM     16  N   UNL     1       1.561   3.240  -0.158  0.00  0.00    -0.249 N 
ATOM     17  C   UNL     1       1.404   1.934   0.248  0.00  0.00    +0.102 A 
ATOM     18  S   UNL     1       2.474   0.586   0.351  0.00  0.00    -0.074 S 
ENDROOT
BRANCH  11  19
ATOM     19  C   UNL     1      -1.815   4.573   0.335  0.00  0.00    +0.053 A 
ATOM     20  C   UNL     1      -2.636   4.707  -0.777  0.00  0.00    +0.026 A 
ATOM     21  C   UNL     1      -3.694   5.594  -0.750  0.00  0.00    +0.002 A 
ATOM     22  C   UNL     1      -3.930   6.356   0.380  0.00  0.00    +0.000 A 
ATOM     23  C   UNL     1      -3.112   6.229   1.487  0.00  0.00    +0.002 A 
ATOM     24  C   UNL     1      -2.055   5.340   1.468  0.00  0.00    +0.026 A 
ENDBRANCH  11  19
BRANCH  15  25
ATOM     25  S   UNL     1       4.267   3.280  -0.862  0.00  0.00    -0.081 S 
BRANCH  25  26
ATOM     26  C   UNL     1       5.218   4.686  -1.501  0.00  0.00    +0.112 C 
BRANCH  26  27
ATOM     27  C   UNL     1       6.642   4.259  -1.746  0.00  0.00    -0.037 A 
ATOM     28  C   UNL     1       7.583   4.383  -0.741  0.00  0.00    +0.004 A 
ATOM     29  C   UNL     1       8.889   3.987  -0.964  0.00  0.00    +0.000 A 
ATOM     30  C   UNL     1       9.256   3.477  -2.196  0.00  0.00    +0.000 A 
ATOM     31  C   UNL     1       8.316   3.357  -3.202  0.00  0.00    +0.000 A 
ATOM     32  C   UNL     1       7.009   3.749  -2.977  0.00  0.00    +0.004 A 
ENDBRANCH  26  27
ENDBRANCH  25  26
ENDBRANCH  15  25
TORSDOF 4
