REMARK  Name = ZINC09666496
REMARK  14 active torsions:
REMARK  status: ('A' for Active; 'I' for Inactive)
REMARK    1  A    between atoms: C_1  and  C_2
REMARK    2  A    between atoms: C_2  and  C_3
REMARK    3  A    between atoms: C_3  and  C_4
REMARK    4  A    between atoms: C_4  and  N_5
REMARK    5  A    between atoms: N_5  and  C_6
REMARK    6  A    between atoms: C_7  and  N_18
REMARK    7  A    between atoms: N_8  and  C_15
REMARK    8  A    between atoms: C_15  and  C_16
REMARK    9  A    between atoms: C_16  and  C_17
REMARK   10  A    between atoms: C_19  and  C_21
REMARK   11  A    between atoms: C_21  and  C_22
REMARK   12  A    between atoms: C_21  and  C_23
REMARK   13  A    between atoms: C_21  and  O_24
REMARK   14  A    between atoms: O_24  and  C_25
REMARK                            x       y       z     vdW  Elec       q    Type
REMARK                         _______ _______ _______ _____ _____    ______ ____
ROOT
ATOM      1  N   UNL     1       1.178  -2.498  -2.277  0.00  0.00    -0.261 N 
ATOM      2  C   UNL     1       0.470  -2.782  -3.390  0.00  0.00    +0.263 C 
ATOM      3  O   UNL     1       1.026  -3.262  -4.356  0.00  0.00    -0.271 OA
ENDROOT
BRANCH   1   4
ATOM      4  C   UNL     1       2.535  -2.874  -2.189  0.00  0.00    +0.140 A 
ATOM      5  C   UNL     1       2.940  -3.838  -1.288  0.00  0.00    +0.127 A 
ATOM      6  N   UNL     1       4.270  -4.183  -1.226  0.00  0.00    -0.280 N 
ATOM      7  C   UNL     1       5.166  -3.588  -2.034  0.00  0.00    +0.331 A 
ATOM      8  O   UNL     1       6.337  -3.907  -1.963  0.00  0.00    -0.246 OA
ATOM      9  N   UNL     1       4.790  -2.647  -2.918  0.00  0.00    -0.273 N 
ATOM     10  H   UNL     1       5.456  -2.233  -3.489  0.00  0.00    +0.173 HD
ATOM     11  C   UNL     1       3.499  -2.276  -3.023  0.00  0.00    +0.277 A 
ATOM     12  O   UNL     1       3.169  -1.425  -3.832  0.00  0.00    -0.266 OA
BRANCH   5  13
ATOM     13  N   UNL     1       2.024  -4.445  -0.463  0.00  0.00    -0.343 N 
ATOM     14  H   UNL     1       1.078  -4.257  -0.566  0.00  0.00    +0.144 HD
ATOM     15  H   UNL     1       2.324  -5.062   0.223  0.00  0.00    +0.144 HD
ENDBRANCH   5  13
BRANCH   6  16
ATOM     16  C   UNL     1       4.713  -5.205  -0.274  0.00  0.00    +0.128 C 
BRANCH  16  17
ATOM     17  C   UNL     1       4.649  -6.582  -0.938  0.00  0.00    +0.018 C 
ATOM     18  C   UNL     1       5.111  -7.649   0.057  0.00  0.00    +0.005 C 
ENDBRANCH  16  17
ENDBRANCH   6  16
ENDBRANCH   1   4
BRANCH   2  19
ATOM     19  C   UNL     1      -1.010  -2.504  -3.433  0.00  0.00    +0.180 C 
ATOM     20  C   UNL     1      -1.722  -3.369  -2.391  0.00  0.00    +0.065 C 
ATOM     21  C   UNL     1      -1.260  -1.026  -3.126  0.00  0.00    +0.065 C 
BRANCH  19  22
ATOM     22  O   UNL     1      -1.515  -2.812  -4.734  0.00  0.00    -0.477 OA
BRANCH  22  23
ATOM     23  C   UNL     1      -1.001  -2.110  -5.778  0.00  0.00    +0.122 A 
ATOM     24  C   UNL     1       0.063  -1.242  -5.575  0.00  0.00    +0.047 A 
ATOM     25  C   UNL     1       0.584  -0.530  -6.637  0.00  0.00    +0.023 A 
ATOM     26  C   UNL     1       0.047  -0.681  -7.903  0.00  0.00    +0.041 A 
ATOM     27  C   UNL     1      -1.014  -1.545  -8.107  0.00  0.00    +0.023 A 
ATOM     28  C   UNL     1      -1.534  -2.264  -7.049  0.00  0.00    +0.047 A 
ATOM     29 CL   UNL     1       0.704   0.216  -9.236  0.00  0.00    -0.084 Cl
ENDBRANCH  22  23
ENDBRANCH  19  22
ENDBRANCH   2  19
BRANCH   1  30
ATOM     30  C   UNL     1       0.538  -1.799  -1.160  0.00  0.00    +0.114 C 
BRANCH  30  31
ATOM     31  C   UNL     1       0.882  -0.309  -1.226  0.00  0.00    +0.019 C 
BRANCH  31  33
ATOM     32  C   UNL     1       0.441   1.933  -0.216  0.00  0.00    +0.004 C 
ATOM     33  C   UNL     1       0.097   0.444  -0.151  0.00  0.00    -0.002 C 
ENDBRANCH  31  33
ENDBRANCH  30  31
ENDBRANCH   1  30
TORSDOF 10
