REMARK  Name = ZINC39494263
REMARK  11 active torsions:
REMARK  status: ('A' for Active; 'I' for Inactive)
REMARK    1  A    between atoms: C_4  and  C_7
REMARK    2  A    between atoms: C_7  and  C_9
REMARK    3  A    between atoms: C_7  and  N_30
REMARK    4  A    between atoms: C_9  and  C_11
REMARK    5  A    between atoms: C_9  and  C_18
REMARK    6  A    between atoms: C_16  and  O_17
REMARK    7  A    between atoms: C_18  and  S_20
REMARK    8  A    between atoms: S_20  and  O_23
REMARK    9  A    between atoms: O_23  and  C_24
REMARK   10  A    between atoms: C_31  and  C_33
REMARK   11  A    between atoms: C_38  and  O_39
REMARK                            x       y       z     vdW  Elec       q    Type
REMARK                         _______ _______ _______ _____ _____    ______ ____
ROOT
ATOM      1  C   UNL     1       3.379  -1.309  -2.036  0.00  0.00    +0.140 C 
ENDROOT
BRANCH   1   2
ATOM      2  C   UNL     1       2.103  -1.705  -2.733  0.00  0.00    +0.008 A 
ATOM      3  C   UNL     1       1.113  -0.765  -2.948  0.00  0.00    +0.008 A 
ATOM      4  C   UNL     1      -0.059  -1.127  -3.587  0.00  0.00    +0.001 A 
ATOM      5  C   UNL     1      -0.243  -2.430  -4.012  0.00  0.00    +0.004 A 
ATOM      6  C   UNL     1       0.744  -3.373  -3.800  0.00  0.00    +0.046 A 
ATOM      7  C   UNL     1       1.923  -3.011  -3.164  0.00  0.00    +0.121 A 
BRANCH   7   8
ATOM      8  O   UNL     1       2.898  -3.935  -2.959  0.00  0.00    -0.506 OA
ATOM      9  H   UNL     1       2.819  -4.410  -2.120  0.00  0.00    +0.292 HD
ENDBRANCH   7   8
ENDBRANCH   1   2
BRANCH   1  10
ATOM     10  C   UNL     1       3.804   0.058  -2.505  0.00  0.00    +0.316 C 
ATOM     11  O   UNL     1       3.825   0.984  -1.729  0.00  0.00    -0.268 OA
BRANCH  10  12
ATOM     12  S   UNL     1       4.272   0.307  -4.186  0.00  0.00    +0.185 S 
ATOM     13  O   UNL     1       3.589  -0.679  -4.948  0.00  0.00    -0.128 OA
ATOM     14  O   UNL     1       4.135   1.698  -4.444  0.00  0.00    -0.128 OA
BRANCH  12  15
ATOM     15  O   UNL     1       5.756  -0.011  -4.292  0.00  0.00    -0.340 OA
BRANCH  15  16
ATOM     16  C   UNL     1       6.038  -1.341  -4.282  0.00  0.00    +0.157 A 
ATOM     17  C   UNL     1       6.373  -1.970  -3.092  0.00  0.00    +0.048 A 
ATOM     18  C   UNL     1       6.659  -3.322  -3.084  0.00  0.00    +0.004 A 
ATOM     19  C   UNL     1       6.612  -4.047  -4.260  0.00  0.00    +0.000 A 
ATOM     20  C   UNL     1       6.278  -3.422  -5.447  0.00  0.00    +0.004 A 
ATOM     21  C   UNL     1       5.986  -2.072  -5.460  0.00  0.00    +0.048 A 
ENDBRANCH  15  16
ENDBRANCH  12  15
ENDBRANCH  10  12
ENDBRANCH   1  10
BRANCH   1  22
ATOM     22  C   UNL     1       3.147  -1.280  -0.524  0.00  0.00    +0.120 C 
BRANCH  22  26
ATOM     23  C   UNL     1      -0.211   1.210   0.351  0.00  0.00    +0.000 A 
ATOM     24  C   UNL     1       1.071   1.715   0.462  0.00  0.00    +0.000 A 
ATOM     25  C   UNL     1       2.157   0.909   0.179  0.00  0.00    +0.005 A 
ATOM     26  C   UNL     1       1.962  -0.402  -0.214  0.00  0.00    -0.026 A 
ATOM     27  C   UNL     1       0.680  -0.907  -0.324  0.00  0.00    +0.005 A 
ATOM     28  C   UNL     1      -0.407  -0.100  -0.043  0.00  0.00    +0.000 A 
ENDBRANCH  22  26
BRANCH  22  29
ATOM     29  N   UNL     1       2.886  -2.639  -0.044  0.00  0.00    -0.303 N 
ATOM     30  C   UNL     1       3.145  -2.963   1.238  0.00  0.00    +0.248 C 
ATOM     31  O   UNL     1       3.596  -2.126   1.997  0.00  0.00    -0.270 OA
ATOM     32  H   UNL     1       2.526  -3.307  -0.649  0.00  0.00    +0.150 HD
BRANCH  30  33
ATOM     33  C   UNL     1       2.882  -4.332   1.722  0.00  0.00    +0.078 A 
ATOM     34  C   UNL     1       2.370  -5.298   0.852  0.00  0.00    +0.017 A 
ATOM     35  C   UNL     1       2.127  -6.574   1.310  0.00  0.00    +0.001 A 
ATOM     36  C   UNL     1       2.388  -6.905   2.629  0.00  0.00    +0.004 A 
ATOM     37  C   UNL     1       2.894  -5.961   3.499  0.00  0.00    +0.046 A 
ATOM     38  C   UNL     1       3.150  -4.672   3.054  0.00  0.00    +0.129 A 
BRANCH  38  39
ATOM     39  O   UNL     1       3.652  -3.744   3.907  0.00  0.00    -0.506 OA
ATOM     40  H   UNL     1       2.978  -3.238   4.380  0.00  0.00    +0.292 HD
ENDBRANCH  38  39
ENDBRANCH  30  33
ENDBRANCH  22  29
ENDBRANCH   1  22
TORSDOF 11
