REMARK  Name = ZINC30894907
REMARK  8 active torsions:
REMARK  status: ('A' for Active; 'I' for Inactive)
REMARK    1  A    between atoms: C_1  and  C_2
REMARK    2  A    between atoms: C_2  and  C_25
REMARK    3  A    between atoms: N_5  and  C_9
REMARK    4  A    between atoms: C_9  and  C_10
REMARK    5  A    between atoms: N_12  and  C_13
REMARK    6  A    between atoms: C_13  and  C_14
REMARK    7  A    between atoms: C_28  and  O_31
REMARK    8  A    between atoms: O_31  and  C_32
REMARK                            x       y       z     vdW  Elec       q    Type
REMARK                         _______ _______ _______ _____ _____    ______ ____
ROOT
ATOM      1  C   UNL     1       2.054   1.719  -1.306  0.00  0.00    +0.047 C 
ATOM      2  C   UNL     1       1.281   1.993  -0.015  0.00  0.00    +0.135 C 
ATOM      3  C   UNL     1       0.671   3.381  -0.042  0.00  0.00    +0.251 C 
ATOM      4  O   UNL     1       1.260   4.438  -0.120  0.00  0.00    -0.272 OA
ATOM      5  N   UNL     1      -0.661   3.195   0.038  0.00  0.00    -0.215 N 
ATOM      6  C   UNL     1      -0.975   1.896   0.107  0.00  0.00    +0.310 C 
ATOM      7  O   UNL     1      -2.114   1.480   0.182  0.00  0.00    -0.252 OA
ATOM      8  N   UNL     1       0.112   1.103   0.088  0.00  0.00    -0.281 N 
ATOM      9  H   UNL     1       0.252   0.013   0.132  0.00  0.00    +0.152 HD
ENDROOT
BRANCH   2  10
ATOM     10  C   UNL     1       2.177   1.832   1.186  0.00  0.00    -0.015 A 
ATOM     11  C   UNL     1       2.914   2.907   1.647  0.00  0.00    +0.010 A 
ATOM     12  C   UNL     1       3.732   2.763   2.751  0.00  0.00    +0.046 A 
ATOM     13  C   UNL     1       3.823   1.535   3.389  0.00  0.00    +0.120 A 
ATOM     14  C   UNL     1       3.087   0.456   2.921  0.00  0.00    +0.046 A 
ATOM     15  C   UNL     1       2.266   0.607   1.821  0.00  0.00    +0.010 A 
BRANCH  13  16
ATOM     16  O   UNL     1       4.632   1.389   4.472  0.00  0.00    -0.495 OA
ATOM     17  C   UNL     1       5.360   2.542   4.898  0.00  0.00    +0.277 C 
ENDBRANCH  13  16
ENDBRANCH   2  10
BRANCH   5  18
ATOM     18  C   UNL     1      -1.645   4.281   0.044  0.00  0.00    +0.213 C 
BRANCH  18  19
ATOM     19  C   UNL     1      -2.059   4.590  -1.372  0.00  0.00    +0.231 C 
ATOM     20  O   UNL     1      -1.580   3.965  -2.294  0.00  0.00    -0.274 OA
ATOM     21  N   UNL     1      -2.962   5.561  -1.613  0.00  0.00    -0.313 N 
ATOM     22  H   UNL     1      -3.396   6.128  -0.776  0.00  0.00    +0.149 HD
BRANCH  21  23
ATOM     23  C   UNL     1      -3.365   5.862  -2.989  0.00  0.00    +0.112 C 
BRANCH  23  24
ATOM     24  C   UNL     1      -4.485   6.904  -2.976  0.00  0.00    +0.036 C 
ATOM     25  C   UNL     1      -5.703   6.324  -2.260  0.00  0.00    +0.010 C 
ATOM     26  C   UNL     1      -6.878   7.292  -2.445  0.00  0.00    +0.005 C 
ATOM     27  C   UNL     1      -7.314   7.245  -3.908  0.00  0.00    +0.035 C 
ATOM     28  C   UNL     1      -6.131   7.441  -4.819  0.00  0.00    -0.044 A 
ATOM     29  C   UNL     1      -4.832   7.277  -4.393  0.00  0.00    -0.040 A 
ATOM     30  C   UNL     1      -3.787   7.460  -5.289  0.00  0.00    +0.004 A 
ATOM     31  C   UNL     1      -4.039   7.807  -6.600  0.00  0.00    +0.000 A 
ATOM     32  C   UNL     1      -5.343   7.976  -7.027  0.00  0.00    +0.000 A 
ATOM     33  C   UNL     1      -6.383   7.794  -6.139  0.00  0.00    +0.004 A 
ENDBRANCH  23  24
ENDBRANCH  21  23
ENDBRANCH  18  19
ENDBRANCH   5  18
TORSDOF 6
