REMARK  Name = ZINC20111388
REMARK  3 active torsions:
REMARK  status: ('A' for Active; 'I' for Inactive)
REMARK    1  A    between atoms: C_4  and  C_23
REMARK    2  A    between atoms: C_5  and  C_7
REMARK    3  A    between atoms: C_11  and  N_22
REMARK                            x       y       z     vdW  Elec       q    Type
REMARK                         _______ _______ _______ _____ _____    ______ ____
ROOT
ATOM      1  C   UNL     1       2.429   3.928   0.001  0.00  0.00    +0.004 A 
ATOM      2  C   UNL     1       3.089   4.315   1.253  0.00  0.00    +0.026 A 
ATOM      3  C   UNL     1       2.528   3.961   2.487  0.00  0.00    +0.014 A 
ATOM      4  C   UNL     1       3.151   4.320   3.645  0.00  0.00    +0.023 A 
ATOM      5  C   UNL     1       4.350   5.035   3.607  0.00  0.00    +0.028 A 
ATOM      6  C   UNL     1       4.921   5.389   2.393  0.00  0.00    +0.069 A 
ATOM      7  C   UNL     1       4.300   5.031   1.205  0.00  0.00    +0.138 A 
ATOM      8  O   UNL     1       4.858   5.377   0.026  0.00  0.00    -0.455 OA
ATOM      9  C   UNL     1       4.298   5.056  -1.160  0.00  0.00    +0.138 A 
ATOM     10  C   UNL     1       4.902   5.428  -2.325  0.00  0.00    +0.072 A 
ATOM     11  C   UNL     1       4.314   5.091  -3.562  0.00  0.00    +0.036 A 
ATOM     12  N   UNL     1       4.903   5.454  -4.695  0.00  0.00    -0.398 N 
ATOM     13  C   UNL     1       3.059   4.342  -3.600  0.00  0.00    +0.026 A 
ATOM     14  C   UNL     1       2.458   3.971  -2.447  0.00  0.00    +0.014 A 
ATOM     15  C   UNL     1       3.042   4.307  -1.208  0.00  0.00    +0.026 A 
ATOM     16  H   UNL     1       4.446   5.191  -5.661  0.00  0.00    +0.156 HD
ATOM     17  H   UNL     1       5.848   6.017  -4.668  0.00  0.00    +0.156 HD
ENDROOT
BRANCH   1  22
ATOM     18  C   UNL     1      -0.013   1.076   0.008  0.00  0.00    +0.001 A 
ATOM     19  C   UNL     1      -1.224   1.747   0.017  0.00  0.00    +0.001 A 
ATOM     20  C   UNL     1      -1.259   3.128   0.031  0.00  0.00    +0.016 A 
ATOM     21  C   UNL     1      -0.071   3.856   0.023  0.00  0.00    +0.071 A 
ATOM     22  C   UNL     1       1.162   3.173   0.008  0.00  0.00    -0.002 A 
ATOM     23  C   UNL     1       1.176   1.778   0.000  0.00  0.00    +0.009 A 
BRANCH  21  24
ATOM     24  C   UNL     1      -0.104   5.332   0.031  0.00  0.00    +0.387 C 
ATOM     25  O   UNL     1       0.935   5.962   0.024  0.00  0.00    -0.241 OA
ATOM     26  O   UNL     1      -1.285   5.980   0.046  0.00  0.00    -0.241 OA
ENDBRANCH  21  24
ENDBRANCH   1  22
BRANCH   5  27
ATOM     27  N   UNL     1       4.976   5.396   4.795  0.00  0.00    -0.358 N 
ATOM     28  H   UNL     1       5.920   5.959   4.770  0.00  0.00    +0.142 HD
ATOM     29  H   UNL     1       4.527   5.118   5.760  0.00  0.00    +0.142 HD
ENDBRANCH   5  27
TORSDOF 3
