REMARK  Name = ZINC36013998
REMARK  13 active torsions:
REMARK  status: ('A' for Active; 'I' for Inactive)
REMARK    1  A    between atoms: C_1  and  C_2
REMARK    2  A    between atoms: C_2  and  N_3
REMARK    3  A    between atoms: C_4  and  C_23
REMARK    4  A    between atoms: C_5  and  C_18
REMARK    5  A    between atoms: C_6  and  C_11
REMARK    6  A    between atoms: C_18  and  O_20
REMARK    7  A    between atoms: O_20  and  C_21
REMARK    8  A    between atoms: C_21  and  C_22
REMARK    9  A    between atoms: C_23  and  N_24
REMARK   10  A    between atoms: C_28  and  C_31
REMARK   11  A    between atoms: N_34  and  C_35
REMARK   12  A    between atoms: C_35  and  C_36
REMARK   13  A    between atoms: C_35  and  C_37
REMARK                            x       y       z     vdW  Elec       q    Type
REMARK                         _______ _______ _______ _____ _____    ______ ____
ROOT
ATOM      1  N   UNL     1       0.761  -0.572  -1.066  0.00  0.00    -0.258 N 
ATOM      2  C   UNL     1       0.360  -0.588  -2.372  0.00  0.00    +0.041 C 
ATOM      3  C   UNL     1       1.203  -0.969  -3.355  0.00  0.00    +0.080 C 
ATOM      4  C   UNL     1       2.608  -1.378  -2.961  0.00  0.00    +0.144 C 
ATOM      5  N   UNL     1       2.941  -1.326  -1.528  0.00  0.00    -0.288 N 
ATOM      6  C   UNL     1       1.990  -0.918  -0.663  0.00  0.00    +0.307 C 
ATOM      7  O   UNL     1       2.256  -0.868   0.522  0.00  0.00    -0.252 OA
ATOM      8  H   UNL     1       3.824  -1.575  -1.213  0.00  0.00    +0.151 HD
ENDROOT
BRANCH   4   9
ATOM      9  C   UNL     1       3.575  -0.484  -3.695  0.00  0.00    -0.022 A 
ATOM     10  C   UNL     1       3.835   0.788  -3.221  0.00  0.00    +0.007 A 
ATOM     11  C   UNL     1       4.721   1.608  -3.893  0.00  0.00    +0.020 A 
ATOM     12  C   UNL     1       5.349   1.155  -5.040  0.00  0.00    +0.041 A 
ATOM     13  C   UNL     1       5.088  -0.119  -5.513  0.00  0.00    +0.020 A 
ATOM     14  C   UNL     1       4.206  -0.940  -4.837  0.00  0.00    +0.007 A 
ATOM     15 CL   UNL     1       6.462   2.184  -5.885  0.00  0.00    -0.084 Cl
ENDBRANCH   4   9
BRANCH   1  17
ATOM     16  C   UNL     1      -0.106   1.366   0.146  0.00  0.00    +0.025 C 
ATOM     17  C   UNL     1      -0.206  -0.148  -0.051  0.00  0.00    +0.111 C 
ENDBRANCH   1  17
BRANCH   3  18
ATOM     18  C   UNL     1       0.789  -0.986  -4.708  0.00  0.00    +0.339 C 
ATOM     19  O   UNL     1       0.426  -2.029  -5.220  0.00  0.00    -0.245 OA
BRANCH  18  20
ATOM     20  O   UNL     1       0.795   0.153  -5.430  0.00  0.00    -0.462 OA
BRANCH  20  21
ATOM     21  C   UNL     1       0.364   0.062  -6.789  0.00  0.00    +0.229 C 
ATOM     22  C   UNL     1       0.439   1.444  -7.442  0.00  0.00    +0.048 C 
ENDBRANCH  20  21
ENDBRANCH  18  20
ENDBRANCH   3  18
BRANCH   2  23
ATOM     23  C   UNL     1      -1.046  -0.173  -2.720  0.00  0.00    +0.136 C 
BRANCH  23  24
ATOM     24  N   UNL     1      -1.995  -1.150  -2.169  0.00  0.00    -0.294 NA
ATOM     25  C   UNL     1      -1.839  -2.459  -2.817  0.00  0.00    +0.104 C 
ATOM     26  C   UNL     1      -2.713  -3.490  -2.096  0.00  0.00    +0.125 C 
ATOM     27  N   UNL     1      -4.092  -2.982  -2.048  0.00  0.00    -0.280 N 
ATOM     28  C   UNL     1      -4.314  -1.620  -1.537  0.00  0.00    +0.088 C 
ATOM     29  C   UNL     1      -3.377  -0.663  -2.280  0.00  0.00    +0.107 C 
ATOM     30  C   UNL     1      -5.769  -1.212  -1.778  0.00  0.00    +0.029 C 
ATOM     31  C   UNL     1      -5.125  -3.743  -2.460  0.00  0.00    +0.303 C 
ATOM     32  O   UNL     1      -6.247  -3.276  -2.496  0.00  0.00    -0.253 OA
ATOM     33  N   UNL     1      -4.914  -5.021  -2.833  0.00  0.00    -0.297 N 
ATOM     34  H   UNL     1      -4.032  -5.413  -2.740  0.00  0.00    +0.150 HD
BRANCH  33  35
ATOM     35  C   UNL     1      -6.017  -5.817  -3.377  0.00  0.00    +0.068 C 
ATOM     36  C   UNL     1      -6.143  -5.554  -4.879  0.00  0.00    +0.027 C 
ATOM     37  C   UNL     1      -5.739  -7.302  -3.141  0.00  0.00    +0.027 C 
ENDBRANCH  33  35
ENDBRANCH  23  24
ENDBRANCH   2  23
TORSDOF 8
