REMARK  Name = ZINC55458539
REMARK  4 active torsions:
REMARK  status: ('A' for Active; 'I' for Inactive)
REMARK    1  A    between atoms: C_1  and  O_2
REMARK    2  A    between atoms: O_2  and  C_3
REMARK    3  A    between atoms: C_3  and  C_5
REMARK    4  A    between atoms: C_17  and  C_19
REMARK                            x       y       z     vdW  Elec       q    Type
REMARK                         _______ _______ _______ _____ _____    ______ ____
ROOT
ATOM      1  C   UNL     1       1.021  -3.164  -0.826  0.00  0.00    +0.185 C 
ATOM      2  C   UNL     1      -0.189  -4.123  -0.774  0.00  0.00    +0.039 C 
ATOM      3  C   UNL     1      -0.025  -4.951  -2.086  0.00  0.00    +0.012 C 
ATOM      4  C   UNL     1       1.042  -6.011  -1.803  0.00  0.00    +0.005 C 
ATOM      5  C   UNL     1       1.578  -6.598  -3.106  0.00  0.00    +0.000 C 
ATOM      6  C   UNL     1       2.239  -5.477  -3.914  0.00  0.00    +0.002 C 
ATOM      7  C   UNL     1       1.170  -4.445  -4.274  0.00  0.00    +0.023 C 
ATOM      8  C   UNL     1       0.508  -3.865  -3.039  0.00  0.00    +0.080 C 
ATOM      9  N   UNL     1       1.433  -3.053  -2.237  0.00  0.00    -0.282 N 
ATOM     10  C   UNL     1       2.471  -2.333  -2.706  0.00  0.00    +0.258 C 
ATOM     11  O   UNL     1       2.720  -2.329  -3.893  0.00  0.00    -0.271 OA
ENDROOT
BRANCH  10  12
ATOM     12  C   UNL     1       3.324  -1.533  -1.755  0.00  0.00    +0.266 C 
ATOM     13  C   UNL     1       2.761  -0.116  -1.635  0.00  0.00    +0.090 C 
ATOM     14  C   UNL     1       3.725   0.765  -0.885  0.00  0.00    -0.029 A 
ATOM     15  C   UNL     1       3.279   1.924  -0.282  0.00  0.00    +0.004 A 
ATOM     16  C   UNL     1       4.165   2.734   0.405  0.00  0.00    +0.000 A 
ATOM     17  C   UNL     1       5.504   2.393   0.494  0.00  0.00    +0.001 A 
ATOM     18  C   UNL     1       5.964   1.237  -0.103  0.00  0.00    +0.015 A 
ATOM     19  C   UNL     1       5.074   0.417  -0.794  0.00  0.00    +0.062 A 
ATOM     20  C   UNL     1       5.543  -0.833  -1.436  0.00  0.00    +0.340 C 
ATOM     21  O   UNL     1       6.661  -1.265  -1.240  0.00  0.00    -0.245 OA
ATOM     22  O   UNL     1       4.667  -1.473  -2.252  0.00  0.00    -0.448 OA
ENDBRANCH  10  12
BRANCH   1  23
ATOM     23  C   UNL     1       0.624  -1.809  -0.299  0.00  0.00    +0.328 C 
ATOM     24  O   UNL     1      -0.353  -1.252  -0.740  0.00  0.00    -0.249 OA
BRANCH  23  26
ATOM     25  C   UNL     1       0.849  -0.003   1.209  0.00  0.00    +0.280 C 
ATOM     26  O   UNL     1       1.357  -1.220   0.659  0.00  0.00    -0.467 OA
ENDBRANCH  23  26
ENDBRANCH   1  23
TORSDOF 3
