REMARK  Name = ZINC17090825
REMARK  4 active torsions:
REMARK  status: ('A' for Active; 'I' for Inactive)
REMARK    1  A    between atoms: C_1  and  C_2
REMARK    2  A    between atoms: C_5  and  C_8
REMARK    3  A    between atoms: C_13  and  C_17
REMARK    4  A    between atoms: C_13  and  C_18
REMARK                            x       y       z     vdW  Elec       q    Type
REMARK                         _______ _______ _______ _____ _____    ______ ____
ROOT
ATOM      1  C   UNL     1       0.059  -4.275  -0.021  0.00  0.00    +0.173 C 
ATOM      2  C   UNL     1       1.474  -4.751   0.193  0.00  0.00    +0.041 C 
ATOM      3  C   UNL     1       1.858  -5.225   1.398  0.00  0.00    +0.020 C 
ATOM      4  C   UNL     1       3.269  -5.693   1.640  0.00  0.00    +0.058 C 
ATOM      5  C   UNL     1       3.854  -6.253   0.340  0.00  0.00    -0.023 C 
ATOM      6  C   UNL     1       3.797  -5.159  -0.731  0.00  0.00    +0.086 C 
ATOM      7  C   UNL     1       2.374  -4.693  -0.883  0.00  0.00    +0.164 C 
ATOM      8  O   UNL     1       1.999  -4.258  -1.954  0.00  0.00    -0.292 OA
ATOM      9  C   UNL     1       5.307  -6.672   0.570  0.00  0.00    +0.011 C 
ATOM     10  C   UNL     1       3.032  -7.460  -0.114  0.00  0.00    +0.011 C 
ATOM     11  N   UNL     1       0.951  -5.287   2.423  0.00  0.00    -0.290 N 
ATOM     12  C   UNL     1      -0.398  -5.231   2.148  0.00  0.00    +0.186 C 
ATOM     13  N   UNL     1      -0.830  -4.769   1.021  0.00  0.00    -0.243 NA
ATOM     14  N   UNL     1      -1.300  -5.674   3.091  0.00  0.00    -0.266 N 
ATOM     15  C   UNL     1      -2.658  -5.623   2.826  0.00  0.00    +0.165 A 
ATOM     16  N   UNL     1      -3.271  -5.197   1.746  0.00  0.00    -0.225 NA
ATOM     17  C   UNL     1      -4.616  -5.206   1.624  0.00  0.00    +0.080 A 
ATOM     18  C   UNL     1      -5.396  -4.779   0.525  0.00  0.00    +0.029 A 
ATOM     19  C   UNL     1      -6.763  -4.856   0.564  0.00  0.00    +0.002 A 
ATOM     20  C   UNL     1      -7.430  -5.353   1.675  0.00  0.00    +0.001 A 
ATOM     21  C   UNL     1      -6.699  -5.781   2.768  0.00  0.00    +0.017 A 
ATOM     22  C   UNL     1      -5.329  -5.707   2.738  0.00  0.00    +0.041 A 
ATOM     23  S   UNL     1      -4.021  -6.129   3.865  0.00  0.00    -0.052 S 
ATOM     24  H   UNL     1       1.257  -5.370   3.340  0.00  0.00    +0.154 HD
ATOM     25  H   UNL     1      -0.984  -6.022   3.939  0.00  0.00    +0.157 HD
ENDROOT
BRANCH   1  30
ATOM     26  C   UNL     1      -0.018   1.503   0.010  0.00  0.00    +0.044 C 
ATOM     27  C   UNL     1       0.002  -0.004   0.002  0.00  0.00    -0.050 A 
ATOM     28  C   UNL     1       0.006  -0.689  -1.199  0.00  0.00    +0.004 A 
ATOM     29  C   UNL     1       0.025  -2.071  -1.206  0.00  0.00    +0.006 A 
ATOM     30  C   UNL     1       0.040  -2.768  -0.013  0.00  0.00    -0.019 A 
ATOM     31  C   UNL     1       0.037  -2.084   1.188  0.00  0.00    +0.006 A 
ATOM     32  C   UNL     1       0.023  -0.702   1.195  0.00  0.00    +0.004 A 
ENDBRANCH   1  30
TORSDOF 1
