REMARK  Name = ZINC12213907
REMARK  12 active torsions:
REMARK  status: ('A' for Active; 'I' for Inactive)
REMARK    1  A    between atoms: C_1  and  C_2
REMARK    2  A    between atoms: C_4  and  C_11
REMARK    3  A    between atoms: C_5  and  C_10
REMARK    4  A    between atoms: C_7  and  O_8
REMARK    5  A    between atoms: O_8  and  C_9
REMARK    6  A    between atoms: C_11  and  N_64
REMARK    7  A    between atoms: C_14  and  C_17
REMARK    8  A    between atoms: C_17  and  C_24
REMARK    9  A    between atoms: C_24  and  C_25
REMARK   10  A    between atoms: C_25  and  C_26
REMARK   11  A    between atoms: C_26  and  C_27
REMARK   12  A    between atoms: C_26  and  C_28
REMARK                            x       y       z     vdW  Elec       q    Type
REMARK                         _______ _______ _______ _____ _____    ______ ____
ROOT
ATOM      1  C   UNL     1       1.597  -2.454  -2.402  0.00  0.00    -0.078 C 
ATOM      2  C   UNL     1       0.829  -1.853  -1.223  0.00  0.00    -0.013 C 
ATOM      3  C   UNL     1       1.026  -0.334  -1.213  0.00  0.00    +0.018 C 
ATOM      4  C   UNL     1       0.551   0.244  -2.549  0.00  0.00    -0.013 C 
ATOM      5  C   UNL     1       1.326  -0.419  -3.690  0.00  0.00    -0.078 C 
ATOM      6  N   UNL     1       1.075  -1.876  -3.659  0.00  0.00    +0.382 N 
ATOM      7  H   UNL     1       0.063  -2.041  -3.706  0.00  0.00    -0.081 HD
ENDROOT
BRANCH   3   8
ATOM      8  C   UNL     1       0.212   0.279  -0.072  0.00  0.00    +0.115 C 
ATOM      9  C   UNL     1      -1.230  -0.183  -0.137  0.00  0.00    +0.244 C 
ATOM     10  O   UNL     1      -2.019   0.004  -1.038  0.00  0.00    -0.273 OA
ATOM     11  N   UNL     1      -1.452  -0.847   1.015  0.00  0.00    -0.238 N 
ATOM     12  C   UNL     1      -0.362  -0.867   1.791  0.00  0.00    +0.307 C 
ATOM     13  O   UNL     1      -0.318  -1.407   2.879  0.00  0.00    -0.252 OA
ATOM     14  N   UNL     1       0.678  -0.224   1.232  0.00  0.00    -0.285 N 
ATOM     15  H   UNL     1      -2.298  -1.259   1.252  0.00  0.00    +0.159 HD
ATOM     16  H   UNL     1       1.564  -0.114   1.612  0.00  0.00    +0.151 HD
BRANCH   8  17
ATOM     17  C   UNL     1       0.290   1.807  -0.118  0.00  0.00    +0.036 C 
BRANCH  17  18
ATOM     18  C   UNL     1      -0.380   2.389   1.128  0.00  0.00    +0.005 C 
BRANCH  18  19
ATOM     19  C   UNL     1      -0.302   3.917   1.082  0.00  0.00    -0.017 C 
ATOM     20  C   UNL     1      -1.080   4.503   2.263  0.00  0.00    +0.007 C 
ATOM     21  C   UNL     1       1.161   4.355   1.167  0.00  0.00    +0.007 C 
ENDBRANCH  18  19
ENDBRANCH  17  18
ENDBRANCH   8  17
ENDBRANCH   3   8
BRANCH   6  22
ATOM     22  C   UNL     1       1.722  -2.524  -4.819  0.00  0.00    -0.043 C 
BRANCH  22  26
ATOM     23  C   UNL     1       1.287   0.009  -9.112  0.00  0.00    +0.047 C 
ATOM     24  C   UNL     1       0.730  -0.973  -8.114  0.00  0.00    -0.009 A 
ATOM     25  C   UNL     1       1.447  -1.285  -6.976  0.00  0.00    +0.009 A 
ATOM     26  C   UNL     1       0.937  -2.186  -6.060  0.00  0.00    -0.061 A 
ATOM     27  C   UNL     1      -0.291  -2.782  -6.284  0.00  0.00    -0.046 A 
ATOM     28  C   UNL     1      -1.015  -2.470  -7.418  0.00  0.00    +0.049 A 
ATOM     29  C   UNL     1      -0.504  -1.566  -8.339  0.00  0.00    +0.123 A 
ATOM     30  C   UNL     1      -0.842  -3.769  -5.287  0.00  0.00    +0.044 C 
BRANCH  29  31
ATOM     31  O   UNL     1      -1.212  -1.261  -9.458  0.00  0.00    -0.495 OA
ATOM     32  C   UNL     1      -2.475  -1.909  -9.623  0.00  0.00    +0.277 C 
ENDBRANCH  29  31
ENDBRANCH  22  26
ENDBRANCH   6  22
TORSDOF 7
