REMARK  Name = ZINC33250913
REMARK  13 active torsions:
REMARK  status: ('A' for Active; 'I' for Inactive)
REMARK    1  A    between atoms: C_1  and  C_2
REMARK    2  A    between atoms: C_2  and  C_3
REMARK    3  A    between atoms: C_3  and  C_5
REMARK    4  A    between atoms: C_3  and  N_6
REMARK    5  A    between atoms: C_7  and  C_9
REMARK    6  A    between atoms: N_14  and  S_16
REMARK    7  A    between atoms: S_16  and  C_19
REMARK    8  A    between atoms: C_20  and  C_35
REMARK    9  A    between atoms: C_23  and  C_24
REMARK   10  A    between atoms: C_25  and  C_26
REMARK   11  A    between atoms: C_27  and  C_34
REMARK   12  A    between atoms: C_29  and  C_33
REMARK   13  A    between atoms: C_31  and  C_32
REMARK                            x       y       z     vdW  Elec       q    Type
REMARK                         _______ _______ _______ _____ _____    ______ ____
ROOT
ATOM      1  S   UNL     1       2.022  -2.021  -0.028  0.00  0.00    +0.066 S 
ATOM      2  O   UNL     1       3.333  -1.930   0.512  0.00  0.00    -0.153 OA
ATOM      3  O   UNL     1       1.027  -2.870   0.528  0.00  0.00    -0.153 OA
ENDROOT
BRANCH   1   8
ATOM      4  C   UNL     1       3.104  -1.428  -3.625  0.00  0.00    +0.091 C 
ATOM      5  C   UNL     1       2.072  -2.222  -4.429  0.00  0.00    +0.015 C 
ATOM      6  C   UNL     1       0.789  -2.373  -3.608  0.00  0.00    +0.018 C 
ATOM      7  C   UNL     1       1.100  -3.150  -2.320  0.00  0.00    +0.109 C 
ATOM      8  N   UNL     1       2.192  -2.466  -1.613  0.00  0.00    -0.176 NA
ATOM      9  C   UNL     1       3.439  -2.190  -2.339  0.00  0.00    +0.122 C 
BRANCH   4  11
ATOM     10  N   UNL     1       4.300  -0.606  -5.628  0.00  0.00    -0.312 N 
ATOM     11  C   UNL     1       4.355  -1.252  -4.446  0.00  0.00    +0.218 C 
ATOM     12  O   UNL     1       5.411  -1.693  -4.044  0.00  0.00    -0.275 OA
ATOM     13  H   UNL     1       3.342  -0.207  -5.992  0.00  0.00    +0.149 HD
BRANCH  10  14
ATOM     14  C   UNL     1       5.516  -0.435  -6.426  0.00  0.00    +0.070 C 
ATOM     15  C   UNL     1       6.270   0.807  -5.948  0.00  0.00    +0.028 C 
BRANCH  14  17
ATOM     16  C   UNL     1       4.497  -1.558  -8.412  0.00  0.00    +0.005 C 
ATOM     17  C   UNL     1       5.139  -0.268  -7.900  0.00  0.00    +0.018 C 
ENDBRANCH  14  17
ENDBRANCH  10  14
ENDBRANCH   4  11
ENDBRANCH   1   8
BRANCH   1  18
ATOM     18  C   UNL     1       1.356  -0.390  -0.013  0.00  0.00    +0.174 A 
ATOM     19  C   UNL     1       0.002  -0.004   0.002  0.00  0.00    +0.107 A 
ATOM     20  N   UNL     1      -0.016   1.299   0.009  0.00  0.00    -0.081 NA
ATOM     21  O   UNL     1       1.099   1.768   0.001  0.00  0.00    -0.353 OA
ATOM     22  C   UNL     1       2.038   0.803  -0.013  0.00  0.00    +0.187 A 
ATOM     23  C   UNL     1      -1.194  -0.920   0.008  0.00  0.00    +0.071 C 
BRANCH  22  24
ATOM     24  C   UNL     1       3.492   0.988  -0.026  0.00  0.00    +0.051 C 
ATOM     25  C   UNL     1       4.013   2.230  -0.024  0.00  0.00    +0.012 C 
BRANCH  25  26
ATOM     26  C   UNL     1       5.473   2.416  -0.037  0.00  0.00    -0.019 A 
ATOM     27  C   UNL     1       6.277   1.733   0.881  0.00  0.00    -0.043 A 
ATOM     28  C   UNL     1       7.644   1.908   0.859  0.00  0.00    +0.007 A 
ATOM     29  C   UNL     1       8.221   2.766  -0.061  0.00  0.00    -0.050 A 
ATOM     30  C   UNL     1       7.432   3.449  -0.970  0.00  0.00    +0.007 A 
ATOM     31  C   UNL     1       6.064   3.280  -0.964  0.00  0.00    -0.043 A 
ATOM     32  C   UNL     1       5.206   4.026  -1.954  0.00  0.00    +0.044 C 
ATOM     33  C   UNL     1       9.716   2.957  -0.074  0.00  0.00    +0.044 C 
ATOM     34  C   UNL     1       5.650   0.804   1.889  0.00  0.00    +0.044 C 
ENDBRANCH  25  26
ENDBRANCH  22  24
ENDBRANCH   1  18
TORSDOF 7
