REMARK  Name = ZINC66934541
REMARK  6 active torsions:
REMARK  status: ('A' for Active; 'I' for Inactive)
REMARK    1  A    between atoms: C_1  and  C_2
REMARK    2  A    between atoms: C_6  and  C_23
REMARK    3  A    between atoms: N_9  and  S_10
REMARK    4  A    between atoms: S_10  and  C_13
REMARK    5  A    between atoms: C_13  and  C_14
REMARK    6  A    between atoms: C_17  and  N_20
REMARK                            x       y       z     vdW  Elec       q    Type
REMARK                         _______ _______ _______ _____ _____    ______ ____
ROOT
ATOM      1  C   UNL     1       0.235   1.486  -0.199  0.00  0.00    +0.028 C 
ATOM      2  C   UNL     1       0.138  -0.038  -0.096  0.00  0.00    +0.102 C 
ATOM      3  C   UNL     1      -1.335  -0.458  -0.034  0.00  0.00    +0.181 C 
ATOM      4  O   UNL     1      -1.414  -1.857   0.248  0.00  0.00    -0.369 OA
ATOM      5  C   UNL     1      -0.864  -2.231   1.513  0.00  0.00    +0.164 C 
ATOM      6  C   UNL     1       0.633  -1.902   1.531  0.00  0.00    +0.145 C 
ATOM      7  N   UNL     1       0.804  -0.495   1.134  0.00  0.00    -0.173 NA
ENDROOT
BRANCH   5   8
ATOM      8  C   UNL     1      -1.058  -3.710   1.729  0.00  0.00    -0.018 A 
ATOM      9  C   UNL     1      -0.878  -4.591   0.679  0.00  0.00    +0.006 A 
ATOM     10  C   UNL     1      -1.056  -5.948   0.877  0.00  0.00    +0.000 A 
ATOM     11  C   UNL     1      -1.413  -6.423   2.125  0.00  0.00    +0.000 A 
ATOM     12  C   UNL     1      -1.591  -5.542   3.175  0.00  0.00    +0.000 A 
ATOM     13  C   UNL     1      -1.410  -4.186   2.978  0.00  0.00    +0.006 A 
ENDBRANCH   5   8
BRANCH   7  14
ATOM     14  S   UNL     1       1.718   0.543   2.045  0.00  0.00    +0.036 S 
ATOM     15  O   UNL     1       1.010   1.774   2.011  0.00  0.00    -0.158 OA
ATOM     16  O   UNL     1       1.925  -0.140   3.274  0.00  0.00    -0.158 OA
BRANCH  14  17
ATOM     17  C   UNL     1       3.285   0.698   1.144  0.00  0.00    +0.220 C 
BRANCH  17  18
ATOM     18  C   UNL     1       4.204   1.630   1.891  0.00  0.00    -0.025 A 
ATOM     19  C   UNL     1       4.177   2.986   1.625  0.00  0.00    +0.007 A 
ATOM     20  C   UNL     1       5.020   3.841   2.311  0.00  0.00    +0.033 A 
ATOM     21  C   UNL     1       5.889   3.340   3.261  0.00  0.00    +0.126 A 
ATOM     22  C   UNL     1       5.915   1.984   3.528  0.00  0.00    +0.033 A 
ATOM     23  C   UNL     1       5.069   1.129   2.845  0.00  0.00    +0.007 A 
BRANCH  21  24
ATOM     24  N   UNL     1       6.792   4.256   3.994  0.00  0.00    +0.056 N 
ATOM     25  O   UNL     1       6.770   5.442   3.761  0.00  0.00    -0.126 OA
ATOM     26  O   UNL     1       7.552   3.817   4.826  0.00  0.00    -0.126 OA
ENDBRANCH  21  24
ENDBRANCH  17  18
ENDBRANCH  14  17
ENDBRANCH   7  14
TORSDOF 5
