REMARK  Name = ZINC13786649
REMARK  8 active torsions:
REMARK  status: ('A' for Active; 'I' for Inactive)
REMARK    1  A    between atoms: C_1  and  O_2
REMARK    2  A    between atoms: O_2  and  C_3
REMARK    3  A    between atoms: C_8  and  C_9
REMARK    4  A    between atoms: C_17  and  O_33
REMARK    5  A    between atoms: C_20  and  C_21
REMARK    6  A    between atoms: C_20  and  N_61
REMARK    7  A    between atoms: N_23  and  C_24
REMARK    8  A    between atoms: C_27  and  N_30
REMARK                            x       y       z     vdW  Elec       q    Type
REMARK                         _______ _______ _______ _____ _____    ______ ____
ROOT
ATOM      1  C   UNL     1      -4.887   1.067   0.001  0.00  0.00    -0.028 C 
ATOM      2  C   UNL     1      -5.822   2.249  -0.264  0.00  0.00    +0.011 C 
ATOM      3  C   UNL     1      -7.232   1.737  -0.555  0.00  0.00    +0.005 C 
ATOM      4  C   UNL     1      -7.754   0.956   0.652  0.00  0.00    +0.000 C 
ATOM      5  C   UNL     1      -7.787   1.874   1.876  0.00  0.00    +0.003 C 
ATOM      6  C   UNL     1      -6.373   2.378   2.171  0.00  0.00    +0.035 C 
ATOM      7  C   UNL     1      -5.850   3.157   0.968  0.00  0.00    +0.066 C 
ATOM      8  C   UNL     1      -4.424   3.631   1.269  0.00  0.00    +0.016 C 
ATOM      9  C   UNL     1      -3.527   2.411   1.491  0.00  0.00    -0.075 C 
ATOM     10  N   UNL     1      -3.527   1.583   0.266  0.00  0.00    +0.390 N 
ATOM     11  H   UNL     1      -3.230   2.163  -0.528  0.00  0.00    -0.080 HD
ENDROOT
BRANCH   1  17
ATOM     12  C   UNL     1      -4.165   0.590  -2.352  0.00  0.00    +0.122 A 
ATOM     13  C   UNL     1      -4.123  -0.233  -3.469  0.00  0.00    +0.046 A 
ATOM     14  C   UNL     1      -4.767  -1.455  -3.449  0.00  0.00    +0.004 A 
ATOM     15  C   UNL     1      -5.449  -1.861  -2.316  0.00  0.00    +0.000 A 
ATOM     16  C   UNL     1      -5.487  -1.045  -1.201  0.00  0.00    +0.005 A 
ATOM     17  C   UNL     1      -4.845   0.178  -1.215  0.00  0.00    -0.019 A 
BRANCH  12  19
ATOM     18  C   UNL     1      -2.856   2.153  -3.575  0.00  0.00    +0.277 C 
ATOM     19  O   UNL     1      -3.537   1.795  -2.371  0.00  0.00    -0.495 OA
ENDBRANCH  12  19
ENDBRANCH   1  17
BRANCH   7  20
ATOM     20  O   UNL     1      -6.697   4.280   0.717  0.00  0.00    -0.388 OA
ATOM     21  H   UNL     1      -6.761   4.898   1.458  0.00  0.00    +0.210 HD
ENDBRANCH   7  20
BRANCH  10  22
ATOM     22  C   UNL     1      -2.582   0.458   0.418  0.00  0.00    +0.020 C 
BRANCH  22  23
ATOM     23  C   UNL     1      -1.179   1.006   0.468  0.00  0.00    +0.201 C 
ATOM     24  O   UNL     1      -0.993   2.203   0.404  0.00  0.00    -0.278 OA
ATOM     25  N   UNL     1      -0.131   0.167   0.585  0.00  0.00    -0.287 N 
ATOM     26  H   UNL     1      -0.274  -0.792   0.570  0.00  0.00    +0.155 HD
BRANCH  25  27
ATOM     27  C   UNL     1       1.164   0.680   0.721  0.00  0.00    +0.033 A 
ATOM     28  C   UNL     1       1.526   1.842   0.053  0.00  0.00    +0.025 A 
ATOM     29  C   UNL     1       2.804   2.348   0.194  0.00  0.00    +0.034 A 
ATOM     30  C   UNL     1       3.725   1.692   0.991  0.00  0.00    +0.126 A 
ATOM     31  C   UNL     1       3.368   0.532   1.653  0.00  0.00    +0.034 A 
ATOM     32  C   UNL     1       2.091   0.024   1.521  0.00  0.00    +0.025 A 
BRANCH  30  33
ATOM     33  N   UNL     1       5.094   2.235   1.135  0.00  0.00    +0.056 N 
ATOM     34  O   UNL     1       5.906   1.659   1.837  0.00  0.00    -0.126 OA
ATOM     35  O   UNL     1       5.410   3.257   0.553  0.00  0.00    -0.126 OA
ENDBRANCH  30  33
ENDBRANCH  25  27
ENDBRANCH  22  23
ENDBRANCH  10  22
TORSDOF 7
