REMARK  Name = ZINC13041853
REMARK  8 active torsions:
REMARK  status: ('A' for Active; 'I' for Inactive)
REMARK    1  A    between atoms: C_1  and  C_2
REMARK    2  A    between atoms: C_7  and  C_8
REMARK    3  A    between atoms: C_7  and  N_66
REMARK    4  A    between atoms: C_10  and  O_20
REMARK    5  A    between atoms: O_20  and  C_21
REMARK    6  A    between atoms: C_25  and  C_32
REMARK    7  A    between atoms: C_32  and  C_33
REMARK    8  A    between atoms: C_32  and  C_34
REMARK                            x       y       z     vdW  Elec       q    Type
REMARK                         _______ _______ _______ _____ _____    ______ ____
ROOT
ATOM      1  C   UNL     1       0.007   0.004   0.126  0.00  0.00    +0.118 A 
ATOM      2  N   UNL     1       1.140  -0.674   0.071  0.00  0.00    -0.199 NA
ATOM      3  C   UNL     1       2.318  -0.075   0.021  0.00  0.00    +0.232 A 
ATOM      4  C   UNL     1       2.369   1.344   0.027  0.00  0.00    +0.073 A 
ATOM      5  C   UNL     1       3.554   2.217  -0.022  0.00  0.00    -0.023 A 
ATOM      6  C   UNL     1       3.333   3.541  -0.004  0.00  0.00    -0.004 A 
ATOM      7  S   UNL     1       1.565   3.715   0.074  0.00  0.00    -0.073 S 
ATOM      8  C   UNL     1       1.125   1.999   0.086  0.00  0.00    +0.116 A 
ATOM      9  N   UNL     1      -0.007   1.323   0.134  0.00  0.00    -0.227 NA
ATOM     10  C   UNL     1       4.613   4.332  -0.054  0.00  0.00    +0.043 C 
ATOM     11  C   UNL     1       5.711   3.316   0.329  0.00  0.00    +0.010 C 
ATOM     12  C   UNL     1       5.066   1.982  -0.096  0.00  0.00    +0.037 C 
ENDROOT
BRANCH   1  13
ATOM     13  C   UNL     1      -1.298  -0.747   0.180  0.00  0.00    -0.001 C 
BRANCH  13  20
ATOM     14  C   UNL     1      -2.949  -2.575  -4.977  0.00  0.00    +0.007 C 
ATOM     15  C   UNL     1      -2.402  -2.522  -3.550  0.00  0.00    -0.018 C 
ATOM     16  C   UNL     1      -3.494  -2.019  -2.601  0.00  0.00    -0.016 C 
ATOM     17  C   UNL     1      -2.923  -1.910  -1.186  0.00  0.00    -0.078 C 
ATOM     18  C   UNL     1      -0.704  -1.468  -2.053  0.00  0.00    -0.078 C 
ATOM     19  C   UNL     1      -1.208  -1.564  -3.494  0.00  0.00    -0.016 C 
ATOM     20  N   UNL     1      -1.794  -0.956  -1.196  0.00  0.00    +0.384 N 
ATOM     21  H   UNL     1      -2.120  -0.059  -1.573  0.00  0.00    -0.081 HD
ENDBRANCH  13  20
ENDBRANCH   1  13
BRANCH   3  22
ATOM     22  O   UNL     1       3.458  -0.804  -0.033  0.00  0.00    -0.437 OA
BRANCH  22  23
ATOM     23  C   UNL     1       3.357  -2.154   0.066  0.00  0.00    +0.134 A 
ATOM     24  C   UNL     1       3.687  -2.786   1.263  0.00  0.00    +0.047 A 
ATOM     25  C   UNL     1       3.585  -4.142   1.380  0.00  0.00    +0.015 A 
ATOM     26  C   UNL     1       3.157  -4.904   0.287  0.00  0.00    +0.021 A 
ATOM     27  C   UNL     1       3.043  -6.361   0.382  0.00  0.00    -0.027 A 
ATOM     28  C   UNL     1       2.621  -7.045  -0.713  0.00  0.00    +0.096 A 
ATOM     29  C   UNL     1       2.308  -6.347  -1.897  0.00  0.00    +0.337 A 
ATOM     30  O   UNL     1       1.930  -6.972  -2.872  0.00  0.00    -0.245 OA
ATOM     31  O   UNL     1       2.413  -5.011  -1.978  0.00  0.00    -0.422 OA
ATOM     32  C   UNL     1       2.827  -4.272  -0.926  0.00  0.00    +0.143 A 
ATOM     33  C   UNL     1       2.931  -2.893  -1.026  0.00  0.00    +0.093 A 
BRANCH  27  34
ATOM     34  C   UNL     1       3.386  -7.082   1.660  0.00  0.00    +0.014 C 
ATOM     35  C   UNL     1       2.155  -7.839   2.164  0.00  0.00    +0.012 C 
ATOM     36  C   UNL     1       4.522  -8.073   1.398  0.00  0.00    +0.012 C 
ENDBRANCH  27  34
ENDBRANCH  22  23
ENDBRANCH   3  22
TORSDOF 5
