REMARK  Name = ZINC01444179
REMARK  5 active torsions:
REMARK  status: ('A' for Active; 'I' for Inactive)
REMARK    1  A    between atoms: C_3  and  C_8
REMARK    2  A    between atoms: N_9  and  N_10
REMARK    3  A    between atoms: C_11  and  C_13
REMARK    4  A    between atoms: C_13  and  O_14
REMARK    5  A    between atoms: O_14  and  C_15
REMARK                            x       y       z     vdW  Elec       q    Type
REMARK                         _______ _______ _______ _____ _____    ______ ____
ROOT
ATOM      1  N   UNL     1       3.269   6.434   0.004  0.00  0.00    -0.204 N 
ATOM      2  C   UNL     1       2.210   5.600   0.010  0.00  0.00    +0.270 C 
ATOM      3  O   UNL     1       1.084   6.051   0.023  0.00  0.00    -0.270 OA
ATOM      4  H   UNL     1       4.170   6.074  -0.006  0.00  0.00    +0.177 HD
ENDROOT
BRANCH   1   6
ATOM      5  C   UNL     1       4.089   8.623   0.008  0.00  0.00    +0.138 C 
ATOM      6  N   UNL     1       3.069   7.821   0.013  0.00  0.00    -0.188 NA
BRANCH   5   9
ATOM      7  C   UNL     1       4.769  12.314   0.019  0.00  0.00    +0.002 A 
ATOM      8  C   UNL     1       4.973  10.950   0.011  0.00  0.00    +0.009 A 
ATOM      9  C   UNL     1       3.878  10.083   0.017  0.00  0.00    -0.004 A 
ATOM     10  C   UNL     1       2.582  10.605   0.026  0.00  0.00    +0.029 A 
ATOM     11  C   UNL     1       2.393  11.972   0.039  0.00  0.00    +0.042 A 
ATOM     12  C   UNL     1       3.484  12.825   0.033  0.00  0.00    +0.020 A 
ATOM     13 CL   UNL     1       0.784  12.624   0.056  0.00  0.00    -0.084 Cl
ENDBRANCH   5   9
ENDBRANCH   1   6
BRANCH   2  14
ATOM     14  C   UNL     1       2.425   4.109   0.001  0.00  0.00    +0.326 C 
BRANCH  14  15
ATOM     15  O   UNL     1       1.160   3.445   0.009  0.00  0.00    -0.483 OA
BRANCH  15  16
ATOM     16  C   UNL     1       1.176   2.086   0.002  0.00  0.00    +0.121 A 
ATOM     17  C   UNL     1      -0.017   1.377   0.010  0.00  0.00    +0.046 A 
ATOM     18  C   UNL     1       0.002  -0.004   0.002  0.00  0.00    +0.018 A 
ATOM     19  C   UNL     1       1.209  -0.680  -0.013  0.00  0.00    +0.014 A 
ATOM     20  C   UNL     1       2.399   0.024  -0.020  0.00  0.00    +0.018 A 
ATOM     21  C   UNL     1       2.385   1.406  -0.012  0.00  0.00    +0.046 A 
ATOM     22  I   UNL     1       1.233  -2.775  -0.025  0.00  0.00    -0.044 I 
ENDBRANCH  15  16
ENDBRANCH  14  15
ENDBRANCH   2  14
TORSDOF 5
