REMARK  Name = ZINC01205837
REMARK  7 active torsions:
REMARK  status: ('A' for Active; 'I' for Inactive)
REMARK    1  A    between atoms: C_1  and  C_2
REMARK    2  A    between atoms: C_5  and  N_9
REMARK    3  A    between atoms: C_7  and  C_8
REMARK    4  A    between atoms: C_13  and  C_14
REMARK    5  A    between atoms: C_17  and  O_21
REMARK    6  A    between atoms: O_21  and  C_22
REMARK    7  A    between atoms: C_23  and  C_25
REMARK                            x       y       z     vdW  Elec       q    Type
REMARK                         _______ _______ _______ _____ _____    ______ ____
ROOT
ATOM      1  N   UNL     1      -1.028   2.076  -0.283  0.00  0.00    -0.156 N 
ATOM      2  C   UNL     1      -2.244   1.527  -0.479  0.00  0.00    +0.272 C 
ATOM      3  O   UNL     1      -2.566   0.368  -0.285  0.00  0.00    -0.268 OA
ATOM      4  C   UNL     1      -3.105   2.615  -0.974  0.00  0.00    +0.062 C 
ATOM      5  C   UNL     1      -4.444   2.542  -1.315  0.00  0.00    +0.023 C 
ATOM      6  C   UNL     1      -2.229   3.794  -1.031  0.00  0.00    +0.069 C 
ATOM      7  N   UNL     1      -1.052   3.428  -0.625  0.00  0.00    -0.177 NA
ATOM      8  C   UNL     1      -2.625   5.177  -1.481  0.00  0.00    +0.068 C 
ENDROOT
BRANCH   1  13
ATOM      9  C   UNL     1       3.531  -0.717   1.615  0.00  0.00    +0.044 C 
ATOM     10  C   UNL     1       2.320   0.025   1.113  0.00  0.00    -0.047 A 
ATOM     11  C   UNL     1       1.117  -0.640   0.960  0.00  0.00    +0.005 A 
ATOM     12  C   UNL     1       0.005   0.037   0.500  0.00  0.00    +0.026 A 
ATOM     13  C   UNL     1       0.096   1.388   0.190  0.00  0.00    +0.061 A 
ATOM     14  C   UNL     1       1.305   2.053   0.344  0.00  0.00    +0.029 A 
ATOM     15  C   UNL     1       2.413   1.370   0.804  0.00  0.00    -0.046 A 
ATOM     16  C   UNL     1       3.727   2.091   0.971  0.00  0.00    +0.044 C 
ENDBRANCH   1  13
BRANCH   5  17
ATOM     17  C   UNL     1      -5.197   3.765  -1.590  0.00  0.00    -0.023 A 
ATOM     18  C   UNL     1      -6.050   3.832  -2.702  0.00  0.00    +0.011 A 
ATOM     19  C   UNL     1      -6.751   4.976  -2.957  0.00  0.00    +0.047 A 
ATOM     20  C   UNL     1      -6.623   6.078  -2.117  0.00  0.00    +0.134 A 
ATOM     21  C   UNL     1      -5.780   6.024  -1.011  0.00  0.00    +0.060 A 
ATOM     22  C   UNL     1      -5.072   4.875  -0.741  0.00  0.00    +0.027 A 
ATOM     23 BR   UNL     1      -5.612   7.527   0.125  0.00  0.00    -0.047 Br
BRANCH  20  24
ATOM     24  O   UNL     1      -7.324   7.211  -2.378  0.00  0.00    -0.494 OA
ATOM     25  C   UNL     1      -8.171   7.199  -3.529  0.00  0.00    +0.277 C 
ENDBRANCH  20  24
ENDBRANCH   5  17
TORSDOF 3
