REMARK  Name = ZINC12622912
REMARK  9 active torsions:
REMARK  status: ('A' for Active; 'I' for Inactive)
REMARK    1  A    between atoms: C_1  and  C_2
REMARK    2  A    between atoms: C_3  and  C_20
REMARK    3  A    between atoms: C_10  and  C_11
REMARK    4  A    between atoms: C_11  and  C_13
REMARK    5  A    between atoms: N_21  and  N_22
REMARK    6  A    between atoms: N_22  and  C_23
REMARK    7  A    between atoms: C_23  and  N_25
REMARK    8  A    between atoms: N_25  and  C_26
REMARK    9  A    between atoms: C_31  and  N_32
REMARK                            x       y       z     vdW  Elec       q    Type
REMARK                         _______ _______ _______ _____ _____    ______ ____
ROOT
ATOM      1  C   UNL     1      -0.203  -3.333  -0.511  0.00  0.00    +0.047 C 
ATOM      2  C   UNL     1      -1.289  -2.303  -0.689  0.00  0.00    -0.012 A 
ATOM      3  C   UNL     1      -1.125  -0.893  -0.618  0.00  0.00    +0.023 A 
ATOM      4  C   UNL     1      -2.468  -0.321  -0.864  0.00  0.00    +0.056 A 
ATOM      5  C   UNL     1      -2.927   0.980  -0.922  0.00  0.00    +0.027 A 
ATOM      6  C   UNL     1      -4.283   1.218  -1.179  0.00  0.00    +0.003 A 
ATOM      7  C   UNL     1      -5.127   0.135  -1.368  0.00  0.00    +0.018 A 
ATOM      8  C   UNL     1      -4.623  -1.149  -1.301  0.00  0.00    +0.092 A 
ATOM      9  N   UNL     1      -3.316  -1.369  -1.054  0.00  0.00    -0.312 N 
ATOM     10  C   UNL     1      -2.596  -2.559  -0.943  0.00  0.00    +0.098 A 
ENDROOT
BRANCH  10  11
ATOM     11  C   UNL     1      -3.176  -3.908  -1.087  0.00  0.00    +0.210 C 
ATOM     12  O   UNL     1      -3.295  -4.404  -2.191  0.00  0.00    -0.285 OA
BRANCH  11  13
ATOM     13  C   UNL     1      -3.611  -4.656   0.109  0.00  0.00    +0.024 A 
ATOM     14  C   UNL     1      -3.572  -4.050   1.368  0.00  0.00    +0.014 A 
ATOM     15  C   UNL     1      -3.985  -4.751   2.480  0.00  0.00    +0.039 A 
ATOM     16  C   UNL     1      -4.428  -6.060   2.353  0.00  0.00    +0.123 A 
ATOM     17  C   UNL     1      -4.463  -6.668   1.107  0.00  0.00    +0.039 A 
ATOM     18  C   UNL     1      -4.059  -5.975  -0.013  0.00  0.00    +0.014 A 
ATOM     19  F   UNL     1      -4.826  -6.744   3.447  0.00  0.00    -0.205 F 
ENDBRANCH  11  13
ENDBRANCH  10  11
BRANCH   3  20
ATOM     20  C   UNL     1       0.058  -0.194  -0.373  0.00  0.00    +0.140 C 
ATOM     21  N   UNL     1       0.050   1.131  -0.343  0.00  0.00    -0.188 NA
BRANCH  21  22
ATOM     22  N   UNL     1       1.143   1.777  -0.117  0.00  0.00    -0.218 N 
ATOM     23  H   UNL     1       1.970   1.294   0.032  0.00  0.00    +0.176 HD
BRANCH  22  24
ATOM     24  C   UNL     1       1.135   3.125  -0.086  0.00  0.00    +0.154 C 
ATOM     25  S   UNL     1       2.585   3.983   0.214  0.00  0.00    -0.017 S 
BRANCH  24  26
ATOM     26  N   UNL     1      -0.015   3.797  -0.292  0.00  0.00    -0.294 N 
ATOM     27  H   UNL     1      -0.823   3.314  -0.531  0.00  0.00    +0.154 HD
BRANCH  26  28
ATOM     28  C   UNL     1      -0.045   5.189  -0.162  0.00  0.00    +0.063 A 
ATOM     29  C   UNL     1       0.934   5.965  -0.769  0.00  0.00    +0.025 A 
ATOM     30  C   UNL     1       0.899   7.340  -0.642  0.00  0.00    +0.002 A 
ATOM     31  C   UNL     1      -0.103   7.943   0.096  0.00  0.00    +0.002 A 
ATOM     32  C   UNL     1      -1.076   7.172   0.706  0.00  0.00    +0.034 A 
ATOM     33  C   UNL     1      -1.050   5.797   0.579  0.00  0.00    +0.147 A 
BRANCH  33  34
ATOM     34  N   UNL     1      -2.091   4.973   1.232  0.00  0.00    +0.058 N 
ATOM     35  O   UNL     1      -3.105   5.554   1.840  0.00  0.00    -0.126 OA
ATOM     36  O   UNL     1      -2.004   3.659   1.205  0.00  0.00    -0.126 OA
ENDBRANCH  33  34
ENDBRANCH  26  28
ENDBRANCH  24  26
ENDBRANCH  22  24
ENDBRANCH  21  22
ENDBRANCH   3  20
TORSDOF 8
