REMARK  Name = ZINC13976491
REMARK  12 active torsions:
REMARK  status: ('A' for Active; 'I' for Inactive)
REMARK    1  A    between atoms: C_1  and  C_2
REMARK    2  A    between atoms: C_6  and  C_8
REMARK    3  A    between atoms: N_10  and  N_11
REMARK    4  A    between atoms: N_11  and  C_12
REMARK    5  A    between atoms: C_12  and  N_14
REMARK    6  A    between atoms: C_15  and  C_17
REMARK    7  A    between atoms: C_17  and  O_18
REMARK    8  A    between atoms: O_18  and  C_19
REMARK    9  A    between atoms: C_21  and  C_29
REMARK   10  A    between atoms: C_24  and  C_25
REMARK   11  A    between atoms: C_25  and  C_26
REMARK   12  A    between atoms: C_25  and  C_27
REMARK                            x       y       z     vdW  Elec       q    Type
REMARK                         _______ _______ _______ _____ _____    ______ ____
ROOT
ATOM      1  N   UNL     1       0.106  -6.915   2.466  0.00  0.00    -0.264 N 
ATOM      2  C   UNL     1       0.124  -8.263   2.453  0.00  0.00    +0.256 C 
ATOM      3  O   UNL     1       0.137  -8.879   3.498  0.00  0.00    -0.272 OA
ATOM      4  H   UNL     1       0.096  -6.423   1.630  0.00  0.00    +0.157 HD
ENDROOT
BRANCH   1   5
ATOM      5  C   UNL     1       0.102  -6.252   3.639  0.00  0.00    +0.153 C 
ATOM      6  S   UNL     1       0.120  -7.122   5.114  0.00  0.00    -0.017 S 
BRANCH   5   7
ATOM      7  N   UNL     1       0.085  -4.905   3.652  0.00  0.00    -0.245 N 
ATOM      8  H   UNL     1       0.082  -4.428   4.496  0.00  0.00    +0.172 HD
BRANCH   7  11
ATOM      9  C   UNL     1       0.052  -2.845   2.458  0.00  0.00    +0.260 C 
ATOM     10  O   UNL     1       0.049  -2.248   3.516  0.00  0.00    -0.269 OA
ATOM     11  N   UNL     1       0.070  -4.193   2.445  0.00  0.00    -0.231 N 
ATOM     12  H   UNL     1       0.072  -4.670   1.601  0.00  0.00    +0.173 HD
BRANCH   9  18
ATOM     13  C   UNL     1      -0.018   1.503   0.010  0.00  0.00    +0.044 C 
ATOM     14  C   UNL     1       0.002  -0.004   0.002  0.00  0.00    -0.050 A 
ATOM     15  C   UNL     1       0.006  -0.688  -1.201  0.00  0.00    +0.003 A 
ATOM     16  C   UNL     1       0.025  -2.071  -1.218  0.00  0.00    +0.001 A 
ATOM     17  C   UNL     1       0.040  -2.778  -0.033  0.00  0.00    +0.013 A 
ATOM     18  C   UNL     1       0.036  -2.095   1.184  0.00  0.00    +0.038 A 
ATOM     19  C   UNL     1       0.023  -0.699   1.194  0.00  0.00    +0.016 A 
ENDBRANCH   9  18
ENDBRANCH   7  11
ENDBRANCH   5   7
ENDBRANCH   1   5
BRANCH   2  20
ATOM     20  C   UNL     1       0.128  -9.004   1.141  0.00  0.00    +0.325 C 
BRANCH  20  21
ATOM     21  O   UNL     1       0.147 -10.411   1.389  0.00  0.00    -0.482 OA
BRANCH  21  22
ATOM     22  C   UNL     1       0.153 -11.229   0.304  0.00  0.00    +0.125 A 
ATOM     23  C   UNL     1       0.146 -10.688  -0.974  0.00  0.00    +0.050 A 
ATOM     24  C   UNL     1       0.152 -11.521  -2.076  0.00  0.00    -0.033 A 
ATOM     25  C   UNL     1       0.165 -12.894  -1.906  0.00  0.00    +0.021 A 
ATOM     26  C   UNL     1       0.172 -13.436  -0.633  0.00  0.00    +0.023 A 
ATOM     27  C   UNL     1       0.172 -12.606   0.471  0.00  0.00    -0.002 A 
ATOM     28 BR   UNL     1       0.174 -14.032  -3.417  0.00  0.00    -0.050 Br
ATOM     29  C   UNL     1       0.144 -10.934  -3.464  0.00  0.00    +0.045 C 
BRANCH  27  30
ATOM     30  C   UNL     1       0.187 -13.196   1.858  0.00  0.00    +0.016 C 
ATOM     31  C   UNL     1      -1.050 -14.076   2.050  0.00  0.00    +0.012 C 
ATOM     32  C   UNL     1       1.448 -14.043   2.038  0.00  0.00    +0.012 C 
ENDBRANCH  27  30
ENDBRANCH  21  22
ENDBRANCH  20  21
ENDBRANCH   2  20
TORSDOF 8
