REMARK  Name = ZINC04294174
REMARK  7 active torsions:
REMARK  status: ('A' for Active; 'I' for Inactive)
REMARK    1  A    between atoms: C_1  and  C_2
REMARK    2  A    between atoms: C_2  and  C_3
REMARK    3  A    between atoms: C_2  and  C_4
REMARK    4  A    between atoms: C_4  and  C_5
REMARK    5  A    between atoms: C_10  and  C_19
REMARK    6  A    between atoms: C_15  and  C_17
REMARK    7  A    between atoms: C_15  and  C_18
REMARK                            x       y       z     vdW  Elec       q    Type
REMARK                         _______ _______ _______ _____ _____    ______ ____
ROOT
ATOM      1  C   UNL     1      -1.268   1.298  -0.106  0.00  0.00    +0.188 C 
ATOM      2  C   UNL     1      -0.056   0.389  -0.103  0.00  0.00    +0.330 C 
ATOM      3  O   UNL     1      -0.064  -0.809   0.059  0.00  0.00    -0.249 OA
ATOM      4  O   UNL     1       1.034   1.153  -0.319  0.00  0.00    -0.439 OA
ATOM      5  C   UNL     1       0.719   2.507   0.105  0.00  0.00    +0.182 C 
ATOM      6  N   UNL     1      -0.733   2.660  -0.125  0.00  0.00    -0.261 N 
ATOM      7  C   UNL     1      -1.346   3.827  -0.360  0.00  0.00    +0.137 C 
ATOM      8  S   UNL     1      -3.056   3.912  -0.402  0.00  0.00    -0.019 S 
ATOM      9  N   UNL     1      -0.604   4.935  -0.562  0.00  0.00    -0.321 N 
ATOM     10  C   UNL     1       0.852   4.924  -0.450  0.00  0.00    +0.033 C 
ATOM     11  C   UNL     1       1.433   3.541  -0.774  0.00  0.00    +0.094 C 
ATOM     12  C   UNL     1       1.438   5.955  -1.416  0.00  0.00    +0.031 C 
ATOM     13  C   UNL     1       1.248   5.295   0.981  0.00  0.00    +0.031 C 
ATOM     14  C   UNL     1       1.065   2.713   1.581  0.00  0.00    +0.078 C 
ATOM     15  H   UNL     1      -1.051   5.764  -0.791  0.00  0.00    +0.148 HD
ENDROOT
BRANCH   1  16
ATOM     16  C   UNL     1      -2.099   1.076   1.160  0.00  0.00    +0.037 C 
BRANCH  16  18
ATOM     17  C   UNL     1      -4.070   1.457  -0.327  0.00  0.00    +0.007 C 
ATOM     18  C   UNL     1      -3.439   1.802   1.023  0.00  0.00    -0.015 C 
ATOM     19  C   UNL     1      -4.375   1.361   2.151  0.00  0.00    +0.007 C 
ENDBRANCH  16  18
ENDBRANCH   1  16
TORSDOF 2
