REMARK  Name = ZINC09599864
REMARK  7 active torsions:
REMARK  status: ('A' for Active; 'I' for Inactive)
REMARK    1  A    between atoms: C_3  and  O_26
REMARK    2  A    between atoms: C_6  and  N_7
REMARK    3  A    between atoms: C_8  and  C_10
REMARK    4  A    between atoms: C_10  and  S_11
REMARK    5  A    between atoms: S_11  and  C_12
REMARK    6  A    between atoms: C_18  and  C_20
REMARK    7  A    between atoms: O_26  and  C_27
REMARK                            x       y       z     vdW  Elec       q    Type
REMARK                         _______ _______ _______ _____ _____    ______ ____
ROOT
ATOM      1  C   UNL     1       2.417  -4.241  -0.258  0.00  0.00    +0.172 C 
ENDROOT
BRANCH   1   3
ATOM      2  N   UNL     1       1.234  -2.083  -0.020  0.00  0.00    -0.285 N 
ATOM      3  C   UNL     1       2.405  -2.739  -0.137  0.00  0.00    +0.227 C 
ATOM      4  O   UNL     1       3.449  -2.122  -0.144  0.00  0.00    -0.275 OA
ATOM      5  H   UNL     1       0.405  -2.580   0.062  0.00  0.00    +0.155 HD
BRANCH   2  11
ATOM      6  C   UNL     1       2.138   0.027  -0.775  0.00  0.00    +0.027 A 
ATOM      7  C   UNL     1       2.117   1.408  -0.773  0.00  0.00    +0.048 A 
ATOM      8  C   UNL     1       1.173   2.087  -0.017  0.00  0.00    +0.130 A 
ATOM      9  C   UNL     1       0.249   1.379   0.739  0.00  0.00    +0.048 A 
ATOM     10  C   UNL     1       0.269  -0.001   0.738  0.00  0.00    +0.027 A 
ATOM     11  C   UNL     1       1.213  -0.681  -0.019  0.00  0.00    +0.034 A 
BRANCH   8  12
ATOM     12  O   UNL     1       1.153   3.446  -0.015  0.00  0.00    -0.406 OA
BRANCH  12  13
ATOM     13  C   UNL     1       0.154   4.080   0.786  0.00  0.00    +0.575 C 
ATOM     14  F   UNL     1       0.322   3.705   2.123  0.00  0.00    -0.133 F 
ATOM     15  F   UNL     1       0.276   5.469   0.672  0.00  0.00    -0.133 F 
ATOM     16  F   UNL     1      -1.115   3.686   0.347  0.00  0.00    -0.133 F 
ENDBRANCH  12  13
ENDBRANCH   8  12
ENDBRANCH   2  11
ENDBRANCH   1   3
BRANCH   1  17
ATOM     17  S   UNL     1       4.130  -4.822  -0.398  0.00  0.00    -0.088 S 
BRANCH  17  18
ATOM     18  C   UNL     1       3.977  -6.573  -0.530  0.00  0.00    +0.160 A 
ATOM     19  N   UNL     1       2.893  -7.335  -0.533  0.00  0.00    -0.133 NA
ATOM     20  N   UNL     1       2.962  -8.590  -0.637  0.00  0.00    -0.125 NA
ATOM     21  C   UNL     1       4.118  -9.223  -0.750  0.00  0.00    +0.189 A 
ATOM     22  S   UNL     1       5.241  -7.829  -0.707  0.00  0.00    -0.024 S 
ATOM     23  N   UNL     1       4.386 -10.584  -0.874  0.00  0.00    -0.263 N 
ATOM     24  C   UNL     1       3.371 -11.472  -0.890  0.00  0.00    +0.222 C 
ATOM     25  O   UNL     1       2.225 -11.085  -0.796  0.00  0.00    -0.275 OA
ATOM     26  H   UNL     1       5.302 -10.893  -0.948  0.00  0.00    +0.157 HD
BRANCH  24  27
ATOM     27  C   UNL     1       3.661 -12.944  -1.023  0.00  0.00    +0.075 C 
ATOM     28  C   UNL     1       4.398 -13.202  -2.339  0.00  0.00    +0.013 C 
ATOM     29  C   UNL     1       4.692 -14.697  -2.475  0.00  0.00    +0.001 C 
ATOM     30  C   UNL     1       3.376 -15.478  -2.466  0.00  0.00    +0.000 C 
ATOM     31  C   UNL     1       2.639 -15.221  -1.150  0.00  0.00    +0.001 C 
ATOM     32  C   UNL     1       2.345 -13.726  -1.014  0.00  0.00    +0.013 C 
ENDBRANCH  24  27
ENDBRANCH  17  18
ENDBRANCH   1  17
TORSDOF 7
