REMARK  Name = ZINC58913515
REMARK  11 active torsions:
REMARK  status: ('A' for Active; 'I' for Inactive)
REMARK    1  A    between atoms: C_1  and  C_2
REMARK    2  A    between atoms: C_5  and  O_33
REMARK    3  A    between atoms: C_6  and  N_8
REMARK    4  A    between atoms: C_9  and  C_11
REMARK    5  A    between atoms: N_13  and  N_14
REMARK    6  A    between atoms: C_15  and  C_16
REMARK    7  A    between atoms: C_18  and  C_32
REMARK    8  A    between atoms: N_19  and  C_22
REMARK    9  A    between atoms: C_20  and  C_21
REMARK   10  A    between atoms: C_27  and  C_28
REMARK   11  A    between atoms: O_33  and  C_34
REMARK                            x       y       z     vdW  Elec       q    Type
REMARK                         _______ _______ _______ _____ _____    ______ ____
ROOT
ATOM      1  N   UNL     1       0.498  -2.931   7.214  0.00  0.00    -0.187 NA
ATOM      2  C   UNL     1       0.593  -2.290   8.341  0.00  0.00    +0.140 C 
ENDROOT
BRANCH   2   3
ATOM      3  C   UNL     1       0.720  -3.037   9.604  0.00  0.00    +0.016 A 
ATOM      4  C   UNL     1       0.830  -2.472  10.952  0.00  0.00    +0.032 A 
ATOM      5  C   UNL     1       0.926  -3.514  11.799  0.00  0.00    +0.022 A 
ATOM      6  N   UNL     1       0.883  -4.674  11.079  0.00  0.00    -0.317 N 
ATOM      7  C   UNL     1       0.753  -4.395   9.754  0.00  0.00    +0.030 A 
ATOM      8  C   UNL     1       0.665  -5.409   8.642  0.00  0.00    +0.064 C 
ATOM      9  C   UNL     1       1.058  -3.417  13.297  0.00  0.00    +0.064 C 
BRANCH   6  10
ATOM     10  C   UNL     1       0.956  -5.962  11.625  0.00  0.00    +0.058 A 
ATOM     11  C   UNL     1      -0.205  -6.626  11.998  0.00  0.00    +0.027 A 
ATOM     12  C   UNL     1      -0.130  -7.896  12.537  0.00  0.00    +0.002 A 
ATOM     13  C   UNL     1       1.100  -8.505  12.705  0.00  0.00    +0.001 A 
ATOM     14  C   UNL     1       2.258  -7.846  12.335  0.00  0.00    +0.014 A 
ATOM     15  C   UNL     1       2.188  -6.579  11.790  0.00  0.00    +0.079 A 
BRANCH  15  16
ATOM     16  C   UNL     1       3.450  -5.864  11.380  0.00  0.00    +0.419 C 
ATOM     17  F   UNL     1       4.555  -6.681  11.642  0.00  0.00    -0.166 F 
ATOM     18  F   UNL     1       3.399  -5.573  10.013  0.00  0.00    -0.166 F 
ATOM     19  F   UNL     1       3.569  -4.674  12.107  0.00  0.00    -0.166 F 
ENDBRANCH  15  16
ENDBRANCH   6  10
ENDBRANCH   2   3
BRANCH   1  22
ATOM     20  C   UNL     1       0.279  -2.885   4.844  0.00  0.00    +0.318 C 
ATOM     21  O   UNL     1       0.295  -4.100   4.832  0.00  0.00    -0.263 OA
ATOM     22  N   UNL     1       0.377  -2.221   6.012  0.00  0.00    -0.199 N 
ATOM     23  H   UNL     1       0.365  -1.251   6.021  0.00  0.00    +0.178 HD
BRANCH  20  25
ATOM     24  N   UNL     1       0.052  -2.794   2.397  0.00  0.00    -0.275 N 
ATOM     25  C   UNL     1       0.150  -2.130   3.566  0.00  0.00    +0.305 C 
ATOM     26  O   UNL     1       0.134  -0.915   3.577  0.00  0.00    -0.265 OA
ATOM     27  H   UNL     1      -0.001  -3.763   2.393  0.00  0.00    +0.155 HD
BRANCH  24  33
ATOM     28  C   UNL     1      -1.306   1.189  -0.143  0.00  0.00    +0.044 C 
ATOM     29  C   UNL     1      -0.626  -0.154  -0.071  0.00  0.00    -0.048 A 
ATOM     30  C   UNL     1      -0.028  -0.685  -1.199  0.00  0.00    +0.007 A 
ATOM     31  C   UNL     1       0.598  -1.917  -1.139  0.00  0.00    +0.048 A 
ATOM     32  C   UNL     1       0.627  -2.622   0.053  0.00  0.00    +0.141 A 
ATOM     33  C   UNL     1       0.025  -2.087   1.190  0.00  0.00    +0.076 A 
ATOM     34  C   UNL     1      -0.596  -0.847   1.123  0.00  0.00    +0.030 A 
BRANCH  32  35
ATOM     35  O   UNL     1       1.241  -3.834   0.113  0.00  0.00    -0.493 OA
ATOM     36  C   UNL     1       1.836  -4.320  -1.092  0.00  0.00    +0.277 C 
ENDBRANCH  32  35
ENDBRANCH  24  33
ENDBRANCH  20  25
ENDBRANCH   1  22
TORSDOF 7
