REMARK  Name = ZINC03299039
REMARK  7 active torsions:
REMARK  status: ('A' for Active; 'I' for Inactive)
REMARK    1  A    between atoms: C_1  and  C_2
REMARK    2  A    between atoms: C_2  and  C_3
REMARK    3  A    between atoms: C_3  and  N_4
REMARK    4  A    between atoms: C_14  and  S_15
REMARK    5  A    between atoms: S_15  and  C_16
REMARK    6  A    between atoms: C_23  and  C_25
REMARK    7  A    between atoms: C_25  and  N_26
REMARK                            x       y       z     vdW  Elec       q    Type
REMARK                         _______ _______ _______ _____ _____    ______ ____
ROOT
ATOM      1  C   UNL     1      -2.529  -3.051  -3.307  0.00  0.00    +0.116 A 
ATOM      2  C   UNL     1      -3.673  -2.778  -4.105  0.00  0.00    +0.043 A 
ATOM      3  C   UNL     1      -4.242  -1.472  -4.473  0.00  0.00    -0.025 A 
ATOM      4  C   UNL     1      -5.333  -1.483  -5.255  0.00  0.00    -0.004 A 
ATOM      5  S   UNL     1      -5.671  -3.203  -5.553  0.00  0.00    -0.073 S 
ATOM      6  C   UNL     1      -4.337  -3.906  -4.623  0.00  0.00    +0.113 A 
ATOM      7  N   UNL     1      -3.919  -5.130  -4.364  0.00  0.00    -0.227 NA
ATOM      8  C   UNL     1      -2.853  -5.323  -3.611  0.00  0.00    +0.115 A 
ATOM      9  N   UNL     1      -2.178  -4.310  -3.097  0.00  0.00    -0.227 NA
ATOM     10  C   UNL     1      -5.825  -0.094  -5.563  0.00  0.00    +0.043 C 
ATOM     11  C   UNL     1      -4.633   0.825  -5.219  0.00  0.00    +0.010 C 
ATOM     12  C   UNL     1      -3.885  -0.014  -4.165  0.00  0.00    +0.037 C 
ENDROOT
BRANCH   1  13
ATOM     13  S   UNL     1      -1.596  -1.733  -2.601  0.00  0.00    -0.031 S 
BRANCH  13  24
ATOM     14  N   UNL     1       0.774  -1.954  -1.338  0.00  0.00    -0.287 N 
ATOM     15  C   UNL     1       1.824  -2.611  -0.793  0.00  0.00    +0.262 A 
ATOM     16  O   UNL     1       2.756  -2.008  -0.292  0.00  0.00    -0.267 OA
ATOM     17  C   UNL     1       1.796  -4.080  -0.823  0.00  0.00    +0.065 A 
ATOM     18  C   UNL     1       2.827  -4.848  -0.284  0.00  0.00    +0.015 A 
ATOM     19  C   UNL     1       2.752  -6.213  -0.344  0.00  0.00    +0.001 A 
ATOM     20  C   UNL     1       1.662  -6.839  -0.935  0.00  0.00    +0.002 A 
ATOM     21  C   UNL     1       0.638  -6.110  -1.471  0.00  0.00    +0.028 A 
ATOM     22  C   UNL     1       0.685  -4.714  -1.425  0.00  0.00    +0.079 A 
ATOM     23  N   UNL     1      -0.307  -3.953  -1.944  0.00  0.00    -0.223 NA
ATOM     24  C   UNL     1      -0.260  -2.645  -1.901  0.00  0.00    +0.178 A 
BRANCH  14  25
ATOM     25  C   UNL     1       0.751  -0.489  -1.329  0.00  0.00    +0.127 C 
BRANCH  25  27
ATOM     26  C   UNL     1       0.038   1.532  -0.045  0.00  0.00    +0.005 C 
ATOM     27  C   UNL     1       0.063   0.002  -0.054  0.00  0.00    +0.018 C 
ENDBRANCH  25  27
ENDBRANCH  14  25
ENDBRANCH  13  24
ENDBRANCH   1  13
BRANCH   8  28
ATOM     28  C   UNL     1      -2.396  -6.731  -3.329  0.00  0.00    -0.001 C 
BRANCH  28  29
ATOM     29  N   UNL     1      -3.146  -7.270  -2.187  0.00  0.00    +0.384 N 
ATOM     30  C   UNL     1      -2.736  -6.620  -0.935  0.00  0.00    -0.078 C 
ATOM     31  C   UNL     1      -3.635  -7.099   0.208  0.00  0.00    -0.019 C 
ATOM     32  C   UNL     1      -3.519  -8.620   0.338  0.00  0.00    -0.004 C 
ATOM     33  C   UNL     1      -3.905  -9.270  -0.994  0.00  0.00    -0.019 C 
ATOM     34  C   UNL     1      -2.998  -8.728  -2.101  0.00  0.00    -0.078 C 
ATOM     35  H   UNL     1      -4.212  -7.050  -2.345  0.00  0.00    -0.081 HD
ENDBRANCH  28  29
ENDBRANCH   8  28
TORSDOF 6
