REMARK  Name = ZINC12445133
REMARK  16 active torsions:
REMARK  status: ('A' for Active; 'I' for Inactive)
REMARK    1  A    between atoms: C_1  and  C_2
REMARK    2  A    between atoms: C_4  and  C_16
REMARK    3  A    between atoms: C_5  and  O_15
REMARK    4  A    between atoms: C_6  and  C_8
REMARK    5  A    between atoms: C_8  and  C_14
REMARK    6  A    between atoms: C_16  and  N_88
REMARK    7  A    between atoms: C_17  and  C_18
REMARK    8  A    between atoms: C_17  and  N_88
REMARK    9  A    between atoms: C_20  and  C_32
REMARK   10  A    between atoms: C_22  and  C_25
REMARK   11  A    between atoms: C_23  and  O_24
REMARK   12  A    between atoms: C_25  and  C_31
REMARK   13  A    between atoms: C_33  and  C_34
REMARK   14  A    between atoms: C_33  and  N_88
REMARK   15  A    between atoms: C_34  and  C_35
REMARK   16  A    between atoms: C_34  and  C_36
REMARK                            x       y       z     vdW  Elec       q    Type
REMARK                         _______ _______ _______ _____ _____    ______ ____
ROOT
ATOM      1  N   UNL     1       0.043   2.680  -2.902  0.00  0.00    +0.385 N 
ATOM      2  H   UNL     1      -0.712   2.955  -2.264  0.00  0.00    -0.081 HD
ENDROOT
BRANCH   1   3
ATOM      3  C   UNL     1       1.020   1.852  -2.163  0.00  0.00    -0.039 C 
BRANCH   3   7
ATOM      4  C   UNL     1       4.309   4.671   0.341  0.00  0.00    +0.044 C 
ATOM      5  C   UNL     1       2.997   3.931   0.291  0.00  0.00    -0.050 A 
ATOM      6  C   UNL     1       2.626   3.261  -0.860  0.00  0.00    +0.008 A 
ATOM      7  C   UNL     1       1.424   2.582  -0.908  0.00  0.00    -0.022 A 
ATOM      8  C   UNL     1       0.590   2.571   0.201  0.00  0.00    +0.122 A 
ATOM      9  C   UNL     1       0.962   3.247   1.353  0.00  0.00    +0.000 A 
ATOM     10  C   UNL     1       2.167   3.921   1.398  0.00  0.00    +0.011 A 
BRANCH   9  11
ATOM     11  C   UNL     1       0.056   3.242   2.557  0.00  0.00    -0.004 C 
ATOM     12  C   UNL     1      -1.291   3.864   2.183  0.00  0.00    +0.011 C 
ATOM     13  C   UNL     1      -2.212   3.859   3.406  0.00  0.00    +0.001 C 
ATOM     14  C   UNL     1      -1.569   4.672   4.531  0.00  0.00    +0.000 C 
ATOM     15  C   UNL     1      -0.222   4.051   4.905  0.00  0.00    +0.001 C 
ATOM     16  C   UNL     1       0.698   4.056   3.682  0.00  0.00    +0.011 C 
ATOM     17  C   UNL     1      -0.159   1.802   3.027  0.00  0.00    +0.016 C 
ENDBRANCH   9  11
BRANCH   8  18
ATOM     18  O   UNL     1      -0.593   1.903   0.156  0.00  0.00    -0.506 OA
ATOM     19  H   UNL     1      -0.535   0.980   0.437  0.00  0.00    +0.292 HD
ENDBRANCH   8  18
ENDBRANCH   3   7
ENDBRANCH   1   3
BRANCH   1  20
ATOM     20  C   UNL     1      -0.532   1.905  -4.021  0.00  0.00    -0.039 C 
BRANCH  20  21
ATOM     21  C   UNL     1      -1.534   0.926  -3.466  0.00  0.00    -0.022 A 
ATOM     22  C   UNL     1      -1.210  -0.413  -3.366  0.00  0.00    +0.008 A 
ATOM     23  C   UNL     1      -2.129  -1.312  -2.856  0.00  0.00    -0.050 A 
ATOM     24  C   UNL     1      -3.374  -0.873  -2.445  0.00  0.00    +0.011 A 
ATOM     25  C   UNL     1      -3.703   0.465  -2.542  0.00  0.00    +0.000 A 
ATOM     26  C   UNL     1      -2.781   1.369  -3.049  0.00  0.00    +0.122 A 
ATOM     27  C   UNL     1      -1.773  -2.772  -2.748  0.00  0.00    +0.044 C 
BRANCH  25  28
ATOM     28  C   UNL     1      -5.060   0.943  -2.093  0.00  0.00    -0.004 C 
ATOM     29  C   UNL     1      -4.892   2.006  -1.006  0.00  0.00    +0.011 C 
ATOM     30  C   UNL     1      -6.270   2.492  -0.551  0.00  0.00    +0.001 C 
ATOM     31  C   UNL     1      -7.066   1.311   0.009  0.00  0.00    +0.000 C 
ATOM     32  C   UNL     1      -7.234   0.248  -1.078  0.00  0.00    +0.001 C 
ATOM     33  C   UNL     1      -5.856  -0.237  -1.534  0.00  0.00    +0.011 C 
ATOM     34  C   UNL     1      -5.808   1.544  -3.284  0.00  0.00    +0.016 C 
ENDBRANCH  25  28
BRANCH  26  35
ATOM     35  O   UNL     1      -3.100   2.687  -3.141  0.00  0.00    -0.506 OA
ATOM     36  H   UNL     1      -3.512   2.934  -3.980  0.00  0.00    +0.292 HD
ENDBRANCH  26  35
ENDBRANCH  20  21
ENDBRANCH   1  20
BRANCH   1  37
ATOM     37  C   UNL     1       0.702   3.898  -3.418  0.00  0.00    -0.075 C 
BRANCH  37  38
ATOM     38  C   UNL     1      -0.376   4.902  -3.833  0.00  0.00    -0.034 C 
ATOM     39  C   UNL     1      -1.186   5.317  -2.603  0.00  0.00    +0.005 C 
ATOM     40  C   UNL     1       0.286   6.137  -4.448  0.00  0.00    +0.005 C 
ENDBRANCH  37  38
ENDBRANCH   1  37
TORSDOF 10
