REMARK  Name = ZINC67589180
REMARK  4 active torsions:
REMARK  status: ('A' for Active; 'I' for Inactive)
REMARK    1  A    between atoms: C_3  and  C_6
REMARK    2  A    between atoms: C_6  and  C_7
REMARK    3  A    between atoms: C_7  and  N_8
REMARK    4  A    between atoms: C_15  and  C_18
REMARK                            x       y       z     vdW  Elec       q    Type
REMARK                         _______ _______ _______ _____ _____    ______ ____
ROOT
ATOM      1  N   UNL     1       5.635   2.502   1.403  0.00  0.00    -0.299 N 
ATOM      2  C   UNL     1       6.279   2.728   2.565  0.00  0.00    +0.302 C 
ATOM      3  O   UNL     1       5.688   2.608   3.621  0.00  0.00    -0.253 OA
ATOM      4  N   UNL     1       7.578   3.087   2.557  0.00  0.00    -0.281 N 
ATOM      5  C   UNL     1       8.282   3.354   1.292  0.00  0.00    +0.137 C 
ATOM      6  C   UNL     1       8.988   4.710   1.410  0.00  0.00    +0.179 C 
ATOM      7  O   UNL     1       9.787   4.723   2.596  0.00  0.00    -0.369 OA
ATOM      8  C   UNL     1       9.039   4.585   3.806  0.00  0.00    +0.166 C 
ATOM      9  C   UNL     1       8.333   3.228   3.812  0.00  0.00    +0.145 C 
ATOM     10  H   UNL     1       6.084   2.667   0.560  0.00  0.00    +0.150 HD
ENDROOT
BRANCH   8  11
ATOM     11  C   UNL     1       9.971   4.675   4.987  0.00  0.00    -0.017 A 
ATOM     12  C   UNL     1      11.252   4.163   4.897  0.00  0.00    +0.007 A 
ATOM     13  C   UNL     1      12.107   4.246   5.979  0.00  0.00    +0.015 A 
ATOM     14  C   UNL     1      11.681   4.842   7.153  0.00  0.00    +0.018 A 
ATOM     15  C   UNL     1      10.400   5.354   7.243  0.00  0.00    +0.015 A 
ATOM     16  C   UNL     1       9.547   5.275   6.158  0.00  0.00    +0.007 A 
ATOM     17 BR   UNL     1      12.851   4.955   8.634  0.00  0.00    -0.050 Br
ENDBRANCH   8  11
BRANCH   1  18
ATOM     18  C   UNL     1       4.256   2.007   1.415  0.00  0.00    +0.111 C 
BRANCH  18  19
ATOM     19  C   UNL     1       3.763   1.836  -0.024  0.00  0.00    +0.061 C 
BRANCH  19  22
ATOM     20  C   UNL     1      -0.014   1.343   0.008  0.00  0.00    +0.008 A 
ATOM     21  C   UNL     1       1.186   2.030  -0.001  0.00  0.00    +0.011 A 
ATOM     22  C   UNL     1       2.345   1.327  -0.012  0.00  0.00    -0.009 A 
ATOM     23  S   UNL     1       1.755  -0.358  -0.009  0.00  0.00    -0.102 S 
ATOM     24  C   UNL     1       0.004  -0.012   0.006  0.00  0.00    +0.045 A 
ENDBRANCH  19  22
ENDBRANCH  18  19
ENDBRANCH   1  18
TORSDOF 4
