REMARK  Name = ZINC05488289
REMARK  2 active torsions:
REMARK  status: ('A' for Active; 'I' for Inactive)
REMARK    1  A    between atoms: N_14  and  C_17
REMARK    2  A    between atoms: C_22  and  N_23
REMARK                            x       y       z     vdW  Elec       q    Type
REMARK                         _______ _______ _______ _____ _____    ______ ____
ROOT
ATOM      1  C   UNL     1      -0.091  -2.774   0.015  0.00  0.00    +0.000 A 
ATOM      2  C   UNL     1      -1.205  -2.046   0.390  0.00  0.00    +0.000 A 
ATOM      3  C   UNL     1      -1.157  -0.668   0.383  0.00  0.00    +0.004 A 
ATOM      4  C   UNL     1       0.002  -0.004   0.002  0.00  0.00    -0.037 A 
ATOM      5  C   UNL     1       1.113  -0.728  -0.366  0.00  0.00    -0.044 A 
ATOM      6  C   UNL     1       1.062  -2.116  -0.361  0.00  0.00    +0.004 A 
ATOM      7  C   UNL     1       2.409  -0.077  -0.775  0.00  0.00    +0.038 C 
ATOM      8  C   UNL     1       2.183   1.390  -1.138  0.00  0.00    +0.037 C 
ATOM      9  C   UNL     1       1.404   2.055  -0.000  0.00  0.00    +0.130 C 
ATOM     10  C   UNL     1      -0.018   1.503   0.010  0.00  0.00    +0.065 C 
ATOM     11  C   UNL     1      -0.770   1.997  -1.230  0.00  0.00    +0.118 C 
ATOM     12  N   UNL     1      -0.696   3.463  -1.294  0.00  0.00    -0.305 N 
ATOM     13  C   UNL     1       0.704   3.909  -1.354  0.00  0.00    +0.268 C 
ATOM     14  O   UNL     1       1.388   3.469  -0.179  0.00  0.00    -0.358 OA
ENDROOT
BRANCH  12  15
ATOM     15  C   UNL     1      -1.425   3.954  -2.379  0.00  0.00    +0.062 A 
ATOM     16  C   UNL     1      -1.099   3.561  -3.671  0.00  0.00    +0.025 A 
ATOM     17  C   UNL     1      -1.822   4.049  -4.742  0.00  0.00    +0.002 A 
ATOM     18  C   UNL     1      -2.868   4.928  -4.530  0.00  0.00    +0.002 A 
ATOM     19  C   UNL     1      -3.195   5.322  -3.245  0.00  0.00    +0.034 A 
ATOM     20  C   UNL     1      -2.480   4.833  -2.169  0.00  0.00    +0.147 A 
BRANCH  20  21
ATOM     21  N   UNL     1      -2.834   5.250  -0.793  0.00  0.00    +0.058 N 
ATOM     22  O   UNL     1      -3.759   6.020  -0.610  0.00  0.00    -0.126 OA
ATOM     23  O   UNL     1      -2.200   4.822   0.155  0.00  0.00    -0.126 OA
ENDBRANCH  20  21
ENDBRANCH  12  15
TORSDOF 2
