REMARK  Name = ZINC39699428
REMARK  16 active torsions:
REMARK  status: ('A' for Active; 'I' for Inactive)
REMARK    1  A    between atoms: C_1  and  C_2
REMARK    2  A    between atoms: C_4  and  C_38
REMARK    3  A    between atoms: C_7  and  C_14
REMARK    4  A    between atoms: C_14  and  N_15
REMARK    5  A    between atoms: N_15  and  C_16
REMARK    6  A    between atoms: N_15  and  C_19
REMARK    7  A    between atoms: C_16  and  C_17
REMARK    8  A    between atoms: C_17  and  O_18
REMARK    9  A    between atoms: C_19  and  C_21
REMARK   10  A    between atoms: C_19  and  C_35
REMARK   11  A    between atoms: N_25  and  C_26
REMARK   12  A    between atoms: C_26  and  C_27
REMARK   13  A    between atoms: C_30  and  O_33
REMARK   14  A    between atoms: O_33  and  C_34
REMARK   15  A    between atoms: C_35  and  C_36
REMARK   16  A    between atoms: C_35  and  C_37
REMARK                            x       y       z     vdW  Elec       q    Type
REMARK                         _______ _______ _______ _____ _____    ______ ____
ROOT
ATOM      1  N   UNL     1      -0.676  -7.038   2.552  0.00  0.00    +0.389 N 
ATOM      2  H   UNL     1      -0.493  -6.418   3.327  0.00  0.00    -0.081 HD
ENDROOT
BRANCH   1   3
ATOM      3  C   UNL     1      -0.888  -6.248   1.332  0.00  0.00    -0.061 C 
BRANCH   3  10
ATOM      4  C   UNL     1      -0.131   1.037  -0.272  0.00  0.00    +0.044 C 
ATOM      5  C   UNL     1      -0.064  -0.469  -0.242  0.00  0.00    -0.048 A 
ATOM      6  C   UNL     1      -0.163  -1.167  -1.446  0.00  0.00    +0.007 A 
ATOM      7  C   UNL     1      -0.108  -2.524  -1.483  0.00  0.00    -0.042 A 
ATOM      8  C   UNL     1       0.058  -3.257  -0.228  0.00  0.00    -0.004 A 
ATOM      9  C   UNL     1       0.118  -4.620  -0.217  0.00  0.00    -0.006 C 
ATOM     10  C   UNL     1       0.293  -5.296   1.129  0.00  0.00    +0.082 C 
ATOM     11  C   UNL     1       0.385  -4.406   2.348  0.00  0.00    +0.222 C 
ATOM     12  O   UNL     1       0.526  -4.896   3.452  0.00  0.00    -0.275 OA
ATOM     13  N   UNL     1       0.314  -3.093   2.208  0.00  0.00    -0.285 N 
ATOM     14  C   UNL     1       0.161  -2.494   1.028  0.00  0.00    +0.041 A 
ATOM     15  C   UNL     1       0.097  -1.090   0.955  0.00  0.00    +0.027 A 
ATOM     16  C   UNL     1      -0.218  -3.260  -2.793  0.00  0.00    +0.044 C 
ATOM     17  H   UNL     1       0.375  -2.540   3.003  0.00  0.00    +0.155 HD
ENDBRANCH   3  10
ENDBRANCH   1   3
BRANCH   1  18
ATOM     18  C   UNL     1       0.472  -7.934   2.361  0.00  0.00    -0.050 C 
BRANCH  18  19
ATOM     19  C   UNL     1       1.761  -7.200   2.737  0.00  0.00    +0.137 C 
BRANCH  19  20
ATOM     20  O   UNL     1       1.770  -6.944   4.143  0.00  0.00    -0.397 OA
ATOM     21  H   UNL     1       2.560  -6.479   4.453  0.00  0.00    +0.209 HD
ENDBRANCH  19  20
ENDBRANCH  18  19
ENDBRANCH   1  18
BRANCH   1  22
ATOM     22  C   UNL     1      -1.877  -7.835   2.835  0.00  0.00    +0.005 C 
BRANCH  22  23
ATOM     23  C   UNL     1      -2.068  -8.860   1.747  0.00  0.00    +0.139 A 
ATOM     24  N   UNL     1      -1.153  -9.660   1.256  0.00  0.00    -0.115 NA
ATOM     25  N   UNL     1      -1.705 -10.386   0.346  0.00  0.00    -0.023 NA
ATOM     26  N   UNL     1      -2.948 -10.069   0.243  0.00  0.00    -0.044 NA
ATOM     27  N   UNL     1      -3.212  -9.136   1.094  0.00  0.00    -0.226 N 
BRANCH  27  28
ATOM     28  C   UNL     1      -4.511  -8.494   1.306  0.00  0.00    +0.182 C 
BRANCH  28  29
ATOM     29  C   UNL     1      -4.634  -7.296   0.401  0.00  0.00    -0.026 A 
ATOM     30  C   UNL     1      -4.204  -6.055   0.835  0.00  0.00    +0.009 A 
ATOM     31  C   UNL     1      -4.316  -4.955   0.007  0.00  0.00    +0.046 A 
ATOM     32  C   UNL     1      -4.860  -5.096  -1.262  0.00  0.00    +0.120 A 
ATOM     33  C   UNL     1      -5.291  -6.341  -1.695  0.00  0.00    +0.046 A 
ATOM     34  C   UNL     1      -5.172  -7.439  -0.865  0.00  0.00    +0.009 A 
BRANCH  32  35
ATOM     35  O   UNL     1      -4.972  -4.015  -2.078  0.00  0.00    -0.495 OA
ATOM     36  C   UNL     1      -5.542  -4.234  -3.370  0.00  0.00    +0.277 C 
ENDBRANCH  32  35
ENDBRANCH  28  29
ENDBRANCH  27  28
ENDBRANCH  22  23
BRANCH  22  37
ATOM     37  C   UNL     1      -1.714  -8.544   4.181  0.00  0.00    -0.024 C 
ATOM     38  C   UNL     1      -1.597  -7.502   5.295  0.00  0.00    +0.006 C 
ATOM     39  C   UNL     1      -2.931  -9.434   4.439  0.00  0.00    +0.006 C 
ENDBRANCH  22  37
ENDBRANCH   1  22
TORSDOF 11
