REMARK  Name = ZINC09723781
REMARK  6 active torsions:
REMARK  status: ('A' for Active; 'I' for Inactive)
REMARK    1  A    between atoms: C_8  and  C_31
REMARK    2  A    between atoms: C_11  and  C_12
REMARK    3  A    between atoms: C_11  and  N_63
REMARK    4  A    between atoms: N_14  and  C_15
REMARK    5  A    between atoms: C_18  and  S_21
REMARK    6  A    between atoms: S_21  and  N_24
REMARK                            x       y       z     vdW  Elec       q    Type
REMARK                         _______ _______ _______ _____ _____    ______ ____
ROOT
ATOM      1  C   UNL     1      -7.151   1.311  -3.259  0.00  0.00    +0.201 C 
ATOM      2  O   UNL     1      -6.363   1.197  -2.344  0.00  0.00    -0.278 OA
ATOM      3  N   UNL     1      -6.892   2.167  -4.268  0.00  0.00    -0.287 N 
ATOM      4  H   UNL     1      -7.550   2.305  -4.967  0.00  0.00    +0.155 HD
ENDROOT
BRANCH   3   5
ATOM      5  C   UNL     1      -5.674   2.854  -4.307  0.00  0.00    +0.033 A 
ATOM      6  C   UNL     1      -5.084   3.292  -3.129  0.00  0.00    +0.025 A 
ATOM      7  C   UNL     1      -3.881   3.970  -3.171  0.00  0.00    +0.030 A 
ATOM      8  C   UNL     1      -3.265   4.214  -4.385  0.00  0.00    +0.106 A 
ATOM      9  C   UNL     1      -3.853   3.784  -5.560  0.00  0.00    +0.030 A 
ATOM     10  C   UNL     1      -5.053   3.101  -5.524  0.00  0.00    +0.025 A 
BRANCH   8  11
ATOM     11  S   UNL     1      -1.732   5.080  -4.434  0.00  0.00    +0.061 S 
ATOM     12  O   UNL     1      -1.665   5.856  -3.246  0.00  0.00    -0.153 OA
ATOM     13  O   UNL     1      -1.633   5.658  -5.728  0.00  0.00    -0.153 OA
BRANCH  11  14
ATOM     14  N   UNL     1      -0.527   3.948  -4.328  0.00  0.00    -0.177 NA
ATOM     15  C   UNL     1       0.011   3.530  -2.990  0.00  0.00    +0.109 C 
ATOM     16  C   UNL     1      -0.433   2.160  -2.743  0.00  0.00    +0.017 C 
ATOM     17  C   UNL     1       0.005   1.155  -3.803  0.00  0.00    +0.001 C 
ATOM     18  C   UNL     1      -1.081   1.164  -4.840  0.00  0.00    +0.001 C 
ATOM     19  C   UNL     1      -0.700   2.080  -6.028  0.00  0.00    +0.017 C 
ATOM     20  C   UNL     1       0.019   3.352  -5.513  0.00  0.00    +0.109 C 
ENDBRANCH  11  14
ENDBRANCH   8  11
ENDBRANCH   3   5
BRANCH   1  21
ATOM     21  C   UNL     1      -8.419   0.497  -3.268  0.00  0.00    +0.020 C 
BRANCH  21  31
ATOM     22  C   UNL     1      -7.722  -4.066   1.206  0.00  0.00    +0.000 A 
ATOM     23  C   UNL     1      -6.578  -4.024   0.430  0.00  0.00    +0.000 A 
ATOM     24  C   UNL     1      -6.507  -3.160  -0.644  0.00  0.00    +0.002 A 
ATOM     25  C   UNL     1      -7.577  -2.332  -0.950  0.00  0.00    -0.061 A 
ATOM     26  C   UNL     1      -8.716  -2.371  -0.174  0.00  0.00    -0.047 A 
ATOM     27  C   UNL     1      -8.787  -3.241   0.904  0.00  0.00    +0.004 A 
ATOM     28  C   UNL     1      -9.902  -1.487  -0.463  0.00  0.00    +0.029 C 
ATOM     29  C   UNL     1      -9.804  -0.931  -1.885  0.00  0.00    +0.024 C 
ATOM     30  C   UNL     1      -7.456  -1.413  -2.137  0.00  0.00    -0.041 C 
ATOM     31  N   UNL     1      -8.461  -0.340  -2.047  0.00  0.00    +0.396 N 
ATOM     32  H   UNL     1      -8.252   0.248  -1.232  0.00  0.00    -0.080 HD
BRANCH  29  33
ATOM     33  C   UNL     1     -10.850   0.135  -2.084  0.00  0.00    +0.197 C 
ATOM     34  O   UNL     1     -10.644   1.266  -1.698  0.00  0.00    -0.278 OA
ATOM     35  N   UNL     1     -12.014  -0.168  -2.692  0.00  0.00    -0.331 N 
ATOM     36  H   UNL     1     -12.179  -1.073  -3.000  0.00  0.00    +0.145 HD
ATOM     37  H   UNL     1     -12.688   0.518  -2.820  0.00  0.00    +0.145 HD
ENDBRANCH  29  33
ENDBRANCH  21  31
ENDBRANCH   1  21
TORSDOF 6
