REMARK  Name = ZINC19941786
REMARK  4 active torsions:
REMARK  status: ('A' for Active; 'I' for Inactive)
REMARK    1  A    between atoms: C_10  and  C_13
REMARK    2  A    between atoms: C_13  and  C_14
REMARK    3  A    between atoms: N_16  and  C_17
REMARK    4  A    between atoms: C_19  and  N_24
REMARK                            x       y       z     vdW  Elec       q    Type
REMARK                         _______ _______ _______ _____ _____    ______ ____
ROOT
ATOM      1  C   UNL     1       3.603  -2.066  -0.146  0.00  0.00    +0.219 C 
ATOM      2  O   UNL     1       3.592  -0.853  -0.140  0.00  0.00    -0.275 OA
ATOM      3  N   UNL     1       2.447  -2.751  -0.036  0.00  0.00    -0.284 N 
ATOM      4  H   UNL     1       2.463  -3.847   0.049  0.00  0.00    +0.155 HD
ENDROOT
BRANCH   3   5
ATOM      5  C   UNL     1       1.226  -2.067  -0.032  0.00  0.00    +0.054 A 
ATOM      6  C   UNL     1       1.125  -0.819  -0.632  0.00  0.00    +0.057 A 
ATOM      7  C   UNL     1      -0.081  -0.146  -0.626  0.00  0.00    +0.128 A 
ATOM      8  C   UNL     1      -1.187  -0.711  -0.018  0.00  0.00    +0.034 A 
ATOM      9  C   UNL     1      -1.093  -1.956   0.575  0.00  0.00    +0.024 A 
ATOM     10  C   UNL     1       0.112  -2.635   0.573  0.00  0.00    +0.062 A 
ATOM     11 CL   UNL     1       0.231  -4.195   1.325  0.00  0.00    -0.082 Cl
BRANCH   7  12
ATOM     12  N   UNL     1      -0.188   1.185  -1.266  0.00  0.00    +0.056 N 
ATOM     13  O   UNL     1       0.786   1.685  -1.797  0.00  0.00    -0.126 OA
ATOM     14  O   UNL     1      -1.253   1.776  -1.266  0.00  0.00    -0.126 OA
ENDBRANCH   7  12
ENDBRANCH   3   5
BRANCH   1  15
ATOM     15  C   UNL     1       4.908  -2.808  -0.277  0.00  0.00    +0.120 C 
BRANCH  15  25
ATOM     16  C   UNL     1       8.218  -3.888   3.908  0.00  0.00    +0.002 A 
ATOM     17  C   UNL     1       7.364  -2.939   4.441  0.00  0.00    +0.001 A 
ATOM     18  C   UNL     1       6.744  -2.026   3.608  0.00  0.00    +0.016 A 
ATOM     19  C   UNL     1       6.977  -2.067   2.243  0.00  0.00    +0.030 A 
ATOM     20  C   UNL     1       7.819  -3.035   1.696  0.00  0.00    +0.047 A 
ATOM     21  C   UNL     1       8.450  -3.935   2.548  0.00  0.00    +0.024 A 
ATOM     22  N   UNL     1       8.063  -3.105   0.327  0.00  0.00    -0.284 N 
ATOM     23  C   UNL     1       7.349  -2.535  -0.637  0.00  0.00    +0.231 C 
ATOM     24  O   UNL     1       7.758  -2.607  -1.777  0.00  0.00    -0.274 OA
ATOM     25  C   UNL     1       6.057  -1.803  -0.384  0.00  0.00    +0.146 C 
ATOM     26  S   UNL     1       6.214  -0.883   1.178  0.00  0.00    -0.110 S 
ATOM     27  H   UNL     1       8.923  -3.679  -0.049  0.00  0.00    +0.155 HD
ENDBRANCH  15  25
ENDBRANCH   1  15
TORSDOF 4
