REMARK  Name = ZINC02432516
REMARK  8 active torsions:
REMARK  status: ('A' for Active; 'I' for Inactive)
REMARK    1  A    between atoms: C_1  and  C_2
REMARK    2  A    between atoms: C_2  and  C_3
REMARK    3  A    between atoms: C_3  and  C_4
REMARK    4  A    between atoms: C_4  and  N_5
REMARK    5  A    between atoms: C_11  and  C_13
REMARK    6  A    between atoms: C_11  and  C_14
REMARK    7  A    between atoms: C_15  and  C_19
REMARK    8  A    between atoms: C_15  and  C_23
REMARK                            x       y       z     vdW  Elec       q    Type
REMARK                         _______ _______ _______ _____ _____    ______ ____
ROOT
ATOM      1  N   UNL     1       2.067  -2.127  -2.361  0.00  0.00    -0.259 N 
ATOM      2  C   UNL     1       1.101  -2.307  -3.316  0.00  0.00    +0.025 C 
ATOM      3  C   UNL     1       1.391  -2.914  -4.485  0.00  0.00    +0.053 C 
ATOM      4  C   UNL     1       0.399  -3.108  -5.465  0.00  0.00    +0.164 C 
ATOM      5  O   UNL     1       0.697  -3.644  -6.514  0.00  0.00    -0.292 OA
ATOM      6  C   UNL     1      -1.020  -2.666  -5.239  0.00  0.00    +0.086 C 
ATOM      7  C   UNL     1      -1.317  -2.692  -3.736  0.00  0.00    -0.023 C 
ATOM      8  C   UNL     1      -0.292  -1.805  -3.026  0.00  0.00    +0.058 C 
ATOM      9  C   UNL     1      -1.206  -4.126  -3.214  0.00  0.00    +0.011 C 
ATOM     10  C   UNL     1      -2.727  -2.157  -3.480  0.00  0.00    +0.011 C 
ATOM     11  C   UNL     1       2.783  -3.406  -4.784  0.00  0.00    +0.256 C 
ATOM     12  N   UNL     1       3.701  -3.150  -3.686  0.00  0.00    -0.274 N 
ATOM     13  C   UNL     1       3.327  -2.538  -2.555  0.00  0.00    +0.307 C 
ATOM     14  O   UNL     1       4.152  -2.355  -1.681  0.00  0.00    -0.252 OA
ATOM     15  H   UNL     1       4.625  -3.430  -3.779  0.00  0.00    +0.152 HD
ENDROOT
BRANCH  11  16
ATOM     16  C   UNL     1       2.732  -4.912  -5.047  0.00  0.00    +0.424 C 
ATOM     17  F   UNL     1       2.064  -5.153  -6.253  0.00  0.00    -0.168 F 
ATOM     18  F   UNL     1       4.035  -5.416  -5.127  0.00  0.00    -0.168 F 
ATOM     19  F   UNL     1       2.050  -5.546  -4.002  0.00  0.00    -0.168 F 
ENDBRANCH  11  16
BRANCH  11  20
ATOM     20  C   UNL     1       3.300  -2.702  -6.040  0.00  0.00    +0.424 C 
ATOM     21  F   UNL     1       3.175  -1.317  -5.883  0.00  0.00    -0.168 F 
ATOM     22  F   UNL     1       4.646  -3.029  -6.237  0.00  0.00    -0.168 F 
ATOM     23  F   UNL     1       2.553  -3.115  -7.147  0.00  0.00    -0.168 F 
ENDBRANCH  11  20
BRANCH   1  24
ATOM     24  C   UNL     1       1.715  -1.466  -1.102  0.00  0.00    +0.115 C 
BRANCH  24  25
ATOM     25  C   UNL     1       1.297  -2.518  -0.073  0.00  0.00    +0.019 C 
BRANCH  25  27
ATOM     26  C   UNL     1       0.511  -2.879   2.271  0.00  0.00    +0.004 C 
ATOM     27  C   UNL     1       0.929  -1.827   1.242  0.00  0.00    -0.002 C 
ENDBRANCH  25  27
ENDBRANCH  24  25
ENDBRANCH   1  24
TORSDOF 5
