REMARK  Name = ZINC31823117
REMARK  11 active torsions:
REMARK  status: ('A' for Active; 'I' for Inactive)
REMARK    1  A    between atoms: C_1  and  C_2
REMARK    2  A    between atoms: C_2  and  O_3
REMARK    3  A    between atoms: O_3  and  C_4
REMARK    4  A    between atoms: C_4  and  C_6
REMARK    5  A    between atoms: C_7  and  C_28
REMARK    6  A    between atoms: C_9  and  N_11
REMARK    7  A    between atoms: C_12  and  C_14
REMARK    8  A    between atoms: C_14  and  S_15
REMARK    9  A    between atoms: S_15  and  C_16
REMARK   10  A    between atoms: C_20  and  C_26
REMARK   11  A    between atoms: C_21  and  C_25
REMARK                            x       y       z     vdW  Elec       q    Type
REMARK                         _______ _______ _______ _____ _____    ______ ____
ROOT
ATOM      1  C   UNL     1      -5.127   1.473  -0.358  0.00  0.00    +0.173 C 
ENDROOT
BRANCH   1   3
ATOM      2  N   UNL     1      -2.673   1.163  -0.345  0.00  0.00    -0.279 N 
ATOM      3  C   UNL     1      -3.720   2.011  -0.321  0.00  0.00    +0.228 C 
ATOM      4  O   UNL     1      -3.530   3.208  -0.269  0.00  0.00    -0.275 OA
ATOM      5  H   UNL     1      -2.846   0.077  -0.392  0.00  0.00    +0.155 HD
BRANCH   2   9
ATOM      6  C   UNL     1       0.907   3.038  -0.236  0.00  0.00    +0.101 A 
ATOM      7  C   UNL     1       0.988   1.653  -0.292  0.00  0.00    -0.028 A 
ATOM      8  C   UNL     1      -0.189   0.957  -0.328  0.00  0.00    +0.035 A 
ATOM      9  C   UNL     1      -1.376   1.659  -0.311  0.00  0.00    +0.073 A 
ATOM     10  S   UNL     1      -0.856   3.311  -0.235  0.00  0.00    -0.067 S 
ATOM     11  C   UNL     1       2.318   0.946  -0.313  0.00  0.00    +0.045 C 
BRANCH   6  12
ATOM     12  C   UNL     1       1.955   3.991  -0.191  0.00  0.00    +0.346 C 
ATOM     13  O   UNL     1       3.114   3.620  -0.200  0.00  0.00    -0.244 OA
BRANCH  12  14
ATOM     14  O   UNL     1       1.668   5.308  -0.138  0.00  0.00    -0.461 OA
BRANCH  14  16
ATOM     15  C   UNL     1       2.255   7.650  -0.039  0.00  0.00    +0.048 C 
ATOM     16  C   UNL     1       2.774   6.212  -0.095  0.00  0.00    +0.229 C 
ENDBRANCH  14  16
ENDBRANCH  12  14
ENDBRANCH   6  12
ENDBRANCH   2   9
ENDBRANCH   1   3
BRANCH   1  17
ATOM     17  S   UNL     1      -6.301   2.850  -0.313  0.00  0.00    -0.077 S 
BRANCH  17  18
ATOM     18  C   UNL     1      -7.820   1.959  -0.366  0.00  0.00    +0.191 A 
ATOM     19  N   UNL     1      -7.796   0.632  -0.427  0.00  0.00    -0.207 NA
ATOM     20  C   UNL     1      -8.903  -0.090  -0.464  0.00  0.00    +0.129 A 
ATOM     21  C   UNL     1     -10.165   0.568  -0.450  0.00  0.00    +0.050 A 
ATOM     22  C   UNL     1     -11.504   0.005  -0.487  0.00  0.00    -0.028 A 
ATOM     23  C   UNL     1     -12.561   0.829  -0.464  0.00  0.00    -0.008 A 
ATOM     24  S   UNL     1     -11.823   2.451  -0.389  0.00  0.00    -0.073 S 
ATOM     25  C   UNL     1     -10.115   1.977  -0.390  0.00  0.00    +0.115 A 
ATOM     26  N   UNL     1      -8.967   2.625  -0.351  0.00  0.00    -0.214 NA
ATOM     27  C   UNL     1     -14.024   0.470  -0.495  0.00  0.00    +0.052 C 
ATOM     28  C   UNL     1     -11.702  -1.487  -0.552  0.00  0.00    +0.045 C 
ATOM     29  N   UNL     1      -8.835  -1.470  -0.521  0.00  0.00    -0.343 N 
ATOM     30  H   UNL     1      -9.759  -2.066  -0.551  0.00  0.00    +0.144 HD
ATOM     31  H   UNL     1      -7.856  -1.973  -0.535  0.00  0.00    +0.144 HD
ENDBRANCH  17  18
ENDBRANCH   1  17
TORSDOF 7
