REMARK  Name = ZINC13723182
REMARK  6 active torsions:
REMARK  status: ('A' for Active; 'I' for Inactive)
REMARK    1  A    between atoms: C_6  and  C_7
REMARK    2  A    between atoms: C_10  and  C_12
REMARK    3  A    between atoms: C_12  and  N_13
REMARK    4  A    between atoms: N_13  and  C_14
REMARK    5  A    between atoms: C_14  and  C_15
REMARK    6  A    between atoms: C_15  and  C_16
REMARK                            x       y       z     vdW  Elec       q    Type
REMARK                         _______ _______ _______ _____ _____    ______ ____
ROOT
ATOM      1  C   UNL     1       3.696  -0.683  -0.036  0.00  0.00    +0.135 A 
ATOM      2  C   UNL     1       4.928  -0.108  -0.045  0.00  0.00    +0.050 A 
ATOM      3  C   UNL     1       5.866  -1.160  -0.059  0.00  0.00    +0.046 A 
ATOM      4  C   UNL     1       5.168  -2.312  -0.058  0.00  0.00    +0.119 A 
ATOM      5  O   UNL     1       3.857  -2.020  -0.039  0.00  0.00    -0.458 OA
ENDROOT
BRANCH   1  11
ATOM      6  C   UNL     1       2.379   1.431  -0.013  0.00  0.00    +0.014 A 
ATOM      7  C   UNL     1       1.170   2.097   0.002  0.00  0.00    +0.040 A 
ATOM      8  C   UNL     1      -0.017   1.383   0.010  0.00  0.00    +0.142 A 
ATOM      9  C   UNL     1       0.002  -0.004   0.002  0.00  0.00    +0.077 A 
ATOM     10  C   UNL     1       1.205  -0.680  -0.013  0.00  0.00    +0.034 A 
ATOM     11  C   UNL     1       2.404   0.035  -0.021  0.00  0.00    +0.019 A 
ATOM     12 CL   UNL     1      -1.490  -0.891   0.011  0.00  0.00    -0.081 Cl
ATOM     13  F   UNL     1      -1.197   2.040   0.019  0.00  0.00    -0.204 F 
ENDBRANCH   1  11
BRANCH   4  14
ATOM     14  C   UNL     1       5.759  -3.698  -0.071  0.00  0.00    +0.155 C 
BRANCH  14  15
ATOM     15  N   UNL     1       5.964  -4.155   1.310  0.00  0.00    -0.309 NA
ATOM     16  H   UNL     1       6.651  -3.468   1.826  0.00  0.00    +0.122 HD
BRANCH  15  17
ATOM     17  C   UNL     1       6.541  -5.506   1.337  0.00  0.00    +0.086 C 
BRANCH  17  18
ATOM     18  C   UNL     1       6.740  -5.947   2.789  0.00  0.00    +0.051 C 
BRANCH  18  19
ATOM     19  C   UNL     1       7.331  -7.332   2.816  0.00  0.00    -0.028 A 
ATOM     20  C   UNL     1       8.687  -7.501   3.029  0.00  0.00    +0.006 A 
ATOM     21  C   UNL     1       9.230  -8.772   3.055  0.00  0.00    +0.020 A 
ATOM     22  C   UNL     1       8.417  -9.876   2.868  0.00  0.00    +0.042 A 
ATOM     23  C   UNL     1       7.061  -9.708   2.655  0.00  0.00    +0.040 A 
ATOM     24  C   UNL     1       6.517  -8.436   2.634  0.00  0.00    +0.046 A 
ATOM     25 CL   UNL     1       4.814  -8.224   2.374  0.00  0.00    -0.083 Cl
ATOM     26 CL   UNL     1       9.100 -11.472   2.900  0.00  0.00    -0.083 Cl
ENDBRANCH  18  19
ENDBRANCH  17  18
ENDBRANCH  15  17
ENDBRANCH  14  15
ENDBRANCH   4  14
TORSDOF 6
