REMARK  Name = ZINC39931864
REMARK  7 active torsions:
REMARK  status: ('A' for Active; 'I' for Inactive)
REMARK    1  A    between atoms: C_1  and  C_2
REMARK    2  A    between atoms: C_2  and  O_3
REMARK    3  A    between atoms: O_3  and  C_4
REMARK    4  A    between atoms: C_7  and  N_8
REMARK    5  A    between atoms: N_8  and  C_9
REMARK    6  A    between atoms: C_12  and  C_16
REMARK    7  A    between atoms: C_13  and  O_15
REMARK                            x       y       z     vdW  Elec       q    Type
REMARK                         _______ _______ _______ _____ _____    ______ ____
ROOT
ATOM      1  C   UNL     1       0.765  -1.757  -1.334  0.00  0.00    +0.345 C 
ATOM      2  C   UNL     1       1.745  -2.045  -2.444  0.00  0.00    +0.081 C 
ATOM      3  C   UNL     1       2.988  -2.495  -2.165  0.00  0.00    +0.085 C 
ATOM      4  C   UNL     1       1.336  -1.835  -3.788  0.00  0.00    +0.200 C 
ATOM      5  O   UNL     1       2.119  -1.950  -4.714  0.00  0.00    -0.287 OA
ATOM      6  C   UNL     1      -0.080  -1.470  -4.019  0.00  0.00    +0.067 A 
ATOM      7  C   UNL     1      -0.515  -1.029  -5.266  0.00  0.00    +0.035 A 
ATOM      8  C   UNL     1      -1.839  -0.680  -5.442  0.00  0.00    +0.043 A 
ATOM      9  C   UNL     1      -2.731  -0.767  -4.384  0.00  0.00    +0.043 A 
ATOM     10  C   UNL     1      -2.309  -1.211  -3.145  0.00  0.00    +0.085 A 
ATOM     11  C   UNL     1      -0.984  -1.573  -2.953  0.00  0.00    +0.153 A 
ATOM     12  O   UNL     1      -0.564  -2.050  -1.760  0.00  0.00    -0.457 OA
ATOM     13 CL   UNL     1      -3.437  -1.314  -1.829  0.00  0.00    -0.080 Cl
ATOM     14 CL   UNL     1      -2.390  -0.131  -6.994  0.00  0.00    -0.083 Cl
ENDROOT
BRANCH   3  15
ATOM     15  N   UNL     1       3.801  -2.927  -3.175  0.00  0.00    -0.320 N 
ATOM     16  H   UNL     1       3.458  -2.992  -4.080  0.00  0.00    +0.152 HD
BRANCH  15  17
ATOM     17  C   UNL     1       5.122  -3.273  -2.906  0.00  0.00    +0.034 A 
ATOM     18  C   UNL     1       5.611  -3.183  -1.603  0.00  0.00    +0.024 A 
ATOM     19  C   UNL     1       6.904  -3.520  -1.327  0.00  0.00    +0.020 A 
ATOM     20  C   UNL     1       7.750  -3.959  -2.353  0.00  0.00    +0.105 A 
ATOM     21  C   UNL     1       7.261  -4.051  -3.668  0.00  0.00    +0.133 A 
ATOM     22  C   UNL     1       5.946  -3.711  -3.934  0.00  0.00    +0.069 A 
BRANCH  20  23
ATOM     23  C   UNL     1       9.142  -4.321  -2.057  0.00  0.00    +0.390 C 
ATOM     24  O   UNL     1       9.565  -4.239  -0.912  0.00  0.00    -0.240 OA
ATOM     25  O   UNL     1       9.879  -4.704  -2.956  0.00  0.00    -0.240 OA
ENDBRANCH  20  23
BRANCH  21  26
ATOM     26  O   UNL     1       8.072  -4.474  -4.669  0.00  0.00    -0.506 OA
ATOM     27  H   UNL     1       8.058  -5.431  -4.808  0.00  0.00    +0.292 HD
ENDBRANCH  21  26
ENDBRANCH  15  17
ENDBRANCH   3  15
BRANCH   1  28
ATOM     28  O   UNL     1       0.852  -0.377  -0.973  0.00  0.00    -0.338 OA
BRANCH  28  30
ATOM     29  C   UNL     1       0.302   1.452   0.509  0.00  0.00    +0.034 C 
ATOM     30  C   UNL     1       0.141  -0.042   0.221  0.00  0.00    +0.161 C 
ENDBRANCH  28  30
ENDBRANCH   1  28
TORSDOF 6
