REMARK  Name = ZINC39964811
REMARK  12 active torsions:
REMARK  status: ('A' for Active; 'I' for Inactive)
REMARK    1  A    between atoms: C_1  and  C_2
REMARK    2  A    between atoms: C_7  and  C_12
REMARK    3  A    between atoms: C_12  and  C_36
REMARK    4  A    between atoms: C_13  and  C_14
REMARK    5  A    between atoms: C_16  and  C_33
REMARK    6  A    between atoms: C_17  and  O_22
REMARK    7  A    between atoms: C_18  and  O_20
REMARK    8  A    between atoms: O_20  and  C_21
REMARK    9  A    between atoms: O_22  and  C_23
REMARK   10  A    between atoms: C_23  and  C_24
REMARK   11  A    between atoms: C_28  and  N_30
REMARK   12  A    between atoms: C_33  and  C_34
REMARK                            x       y       z     vdW  Elec       q    Type
REMARK                         _______ _______ _______ _____ _____    ______ ____
ROOT
ATOM      1  C   UNL     1      -0.085  -6.909   2.827  0.00  0.00    -0.020 A 
ATOM      2  C   UNL     1      -0.203  -8.020   3.669  0.00  0.00    +0.015 A 
ATOM      3  C   UNL     1      -1.446  -8.545   3.946  0.00  0.00    +0.002 A 
ATOM      4  C   UNL     1      -2.584  -7.974   3.391  0.00  0.00    +0.166 A 
ATOM      5  C   UNL     1      -2.474  -6.867   2.551  0.00  0.00    +0.162 A 
ATOM      6  C   UNL     1      -1.232  -6.331   2.273  0.00  0.00    +0.057 A 
ENDROOT
BRANCH   1   8
ATOM      7  C   UNL     1       2.183  -6.293   3.494  0.00  0.00    +0.072 C 
ATOM      8  C   UNL     1       1.241  -6.346   2.530  0.00  0.00    +0.026 C 
BRANCH   7  15
ATOM      9  C   UNL     1       5.775  -8.685   8.993  0.00  0.00    +0.044 C 
ATOM     10  C   UNL     1       4.855  -7.830   8.159  0.00  0.00    -0.048 A 
ATOM     11  C   UNL     1       4.753  -6.460   8.457  0.00  0.00    +0.005 A 
ATOM     12  C   UNL     1       3.955  -5.623   7.764  0.00  0.00    +0.027 A 
ATOM     13  C   UNL     1       3.153  -6.144   6.649  0.00  0.00    +0.060 A 
ATOM     14  N   UNL     1       2.315  -5.584   5.824  0.00  0.00    -0.359 N 
ATOM     15  C   UNL     1       1.823  -6.631   4.918  0.00  0.00    +0.216 C 
ATOM     16  N   UNL     1       2.486  -7.876   5.326  0.00  0.00    -0.359 N 
ATOM     17  C   UNL     1       3.261  -7.594   6.333  0.00  0.00    +0.061 A 
ATOM     18  C   UNL     1       4.167  -8.409   7.155  0.00  0.00    +0.030 A 
ATOM     19  H   UNL     1       2.062  -4.648   5.810  0.00  0.00    +0.162 HD
ATOM     20  H   UNL     1       2.369  -8.748   4.918  0.00  0.00    +0.162 HD
ENDBRANCH   7  15
BRANCH   7  21
ATOM     21  C   UNL     1       3.525  -5.917   3.165  0.00  0.00    +0.099 C 
ATOM     22  N   UNL     1       4.590  -5.618   2.904  0.00  0.00    -0.191 NA
ENDBRANCH   7  21
ENDBRANCH   1   8
BRANCH   5  23
ATOM     23  O   UNL     1      -3.591  -6.312   2.010  0.00  0.00    -0.491 OA
ATOM     24  C   UNL     1      -3.406  -5.179   1.158  0.00  0.00    +0.277 C 
ENDBRANCH   5  23
BRANCH   4  25
ATOM     25  O   UNL     1      -3.807  -8.497   3.668  0.00  0.00    -0.483 OA
BRANCH  25  26
ATOM     26  C   UNL     1      -4.494  -7.973   4.806  0.00  0.00    +0.264 C 
BRANCH  26  27
ATOM     27  C   UNL     1      -5.824  -8.667   4.954  0.00  0.00    -0.008 A 
ATOM     28  C   UNL     1      -6.944  -8.157   4.325  0.00  0.00    +0.007 A 
ATOM     29  C   UNL     1      -8.163  -8.794   4.460  0.00  0.00    +0.003 A 
ATOM     30  C   UNL     1      -8.262  -9.942   5.224  0.00  0.00    +0.033 A 
ATOM     31  C   UNL     1      -7.142 -10.453   5.852  0.00  0.00    +0.127 A 
ATOM     32  C   UNL     1      -5.921  -9.818   5.713  0.00  0.00    +0.039 A 
BRANCH  31  33
ATOM     33  N   UNL     1      -7.248 -11.682   6.670  0.00  0.00    +0.056 N 
ATOM     34  O   UNL     1      -8.315 -12.238   6.790  0.00  0.00    -0.126 OA
ATOM     35  O   UNL     1      -6.268 -12.129   7.220  0.00  0.00    -0.126 OA
ENDBRANCH  31  33
ENDBRANCH  26  27
ENDBRANCH  25  26
ENDBRANCH   4  25
BRANCH   3  36
ATOM     36  C   UNL     1      -1.572  -9.742   4.853  0.00  0.00    +0.065 C 
BRANCH  36  37
ATOM     37  C   UNL     1      -1.623 -10.998   4.023  0.00  0.00    -0.030 C 
ATOM     38  C   UNL     1      -0.769 -11.966   4.246  0.00  0.00    +0.004 C 
ENDBRANCH  36  37
ENDBRANCH   3  36
TORSDOF 10
