REMARK  Name = ZINC27238090
REMARK  15 active torsions:
REMARK  status: ('A' for Active; 'I' for Inactive)
REMARK    1  A    between atoms: C_1  and  C_2
REMARK    2  A    between atoms: C_2  and  O_3
REMARK    3  A    between atoms: O_3  and  C_4
REMARK    4  A    between atoms: C_7  and  C_10
REMARK    5  A    between atoms: C_10  and  C_11
REMARK    6  A    between atoms: C_10  and  C_16
REMARK    7  A    between atoms: C_10  and  O_35
REMARK    8  A    between atoms: C_11  and  C_12
REMARK    9  A    between atoms: C_12  and  C_13
REMARK   10  A    between atoms: C_13  and  C_14
REMARK   11  A    between atoms: C_13  and  C_15
REMARK   12  A    between atoms: C_16  and  C_18
REMARK   13  A    between atoms: C_16  and  O_26
REMARK   14  A    between atoms: C_18  and  N_19
REMARK   15  A    between atoms: O_26  and  C_27
REMARK                            x       y       z     vdW  Elec       q    Type
REMARK                         _______ _______ _______ _____ _____    ______ ____
ROOT
ATOM      1  C   UNL     1       2.381  -2.679  -0.219  0.00  0.00    +0.193 C 
ENDROOT
BRANCH   1   2
ATOM      2  C   UNL     1       2.020  -3.925  -1.031  0.00  0.00    +0.126 C 
BRANCH   2   6
ATOM      3  C   UNL     1      -0.902  -6.211   1.090  0.00  0.00    +0.121 A 
ATOM      4  C   UNL     1      -1.239  -4.976   0.556  0.00  0.00    +0.046 A 
ATOM      5  C   UNL     1      -0.293  -4.238  -0.129  0.00  0.00    +0.010 A 
ATOM      6  C   UNL     1       0.990  -4.731  -0.283  0.00  0.00    -0.012 A 
ATOM      7  C   UNL     1       1.327  -5.965   0.243  0.00  0.00    +0.010 A 
ATOM      8  C   UNL     1       0.386  -6.703   0.933  0.00  0.00    +0.046 A 
BRANCH   3   9
ATOM      9  O   UNL     1      -1.831  -6.938   1.764  0.00  0.00    -0.492 OA
BRANCH   9  11
ATOM     10  C   UNL     1      -2.586  -8.868   3.008  0.00  0.00    +0.048 C 
ATOM     11  C   UNL     1      -1.413  -8.201   2.286  0.00  0.00    +0.225 C 
ENDBRANCH   9  11
ENDBRANCH   3   9
ENDBRANCH   2   6
BRANCH   2  12
ATOM     12  O   UNL     1       3.192  -4.718  -1.232  0.00  0.00    -0.380 OA
ATOM     13  H   UNL     1       4.058  -4.296  -1.763  0.00  0.00    +0.211 HD
ENDBRANCH   2  12
BRANCH   2  14
ATOM     14  C   UNL     1       1.452  -3.502  -2.387  0.00  0.00    +0.043 C 
BRANCH  14  15
ATOM     15  C   UNL     1       0.976  -4.741  -3.149  0.00  0.00    +0.006 C 
BRANCH  15  16
ATOM     16  C   UNL     1       0.407  -4.319  -4.505  0.00  0.00    -0.017 C 
ATOM     17  C   UNL     1       0.047  -5.564  -5.317  0.00  0.00    +0.007 C 
ATOM     18  C   UNL     1      -0.847  -3.470  -4.290  0.00  0.00    +0.007 C 
ENDBRANCH  15  16
ENDBRANCH  14  15
ENDBRANCH   2  14
ENDBRANCH   1   2
BRANCH   1  19
ATOM     19  C   UNL     1       2.804  -3.095   1.192  0.00  0.00    -0.030 C 
BRANCH  19  20
ATOM     20  N   UNL     1       3.220  -1.906   1.948  0.00  0.00    +0.382 N 
ATOM     21  C   UNL     1       4.404  -1.271   1.329  0.00  0.00    -0.079 C 
ATOM     22  C   UNL     1       5.030  -0.221   2.207  0.00  0.00    -0.019 C 
ATOM     23  C   UNL     1       6.159  -0.879   3.027  0.00  0.00    -0.002 C 
ATOM     24  C   UNL     1       5.645  -1.636   4.163  0.00  0.00    -0.002 C 
ATOM     25  C   UNL     1       4.720  -2.791   3.723  0.00  0.00    -0.019 C 
ATOM     26  C   UNL     1       3.370  -2.219   3.387  0.00  0.00    -0.079 C 
ATOM     27  H   UNL     1       2.421  -1.152   1.894  0.00  0.00    -0.082 HD
ENDBRANCH  19  20
ENDBRANCH   1  19
BRANCH   1  28
ATOM     28  O   UNL     1       1.245  -1.816  -0.140  0.00  0.00    -0.486 OA
BRANCH  28  29
ATOM     29  C   UNL     1       1.263  -0.699  -0.915  0.00  0.00    +0.139 A 
ATOM     30  C   UNL     1       2.298  -0.496  -1.816  0.00  0.00    +0.048 A 
ATOM     31  C   UNL     1       2.315   0.639  -2.603  0.00  0.00    +0.023 A 
ATOM     32  C   UNL     1       1.300   1.574  -2.493  0.00  0.00    +0.043 A 
ATOM     33  C   UNL     1       0.267   1.374  -1.596  0.00  0.00    +0.043 A 
ATOM     34  C   UNL     1       0.246   0.239  -0.806  0.00  0.00    +0.084 A 
ATOM     35 CL   UNL     1      -1.051  -0.013   0.319  0.00  0.00    -0.080 Cl
ATOM     36 CL   UNL     1       1.324   2.999  -3.484  0.00  0.00    -0.083 Cl
ENDBRANCH  28  29
ENDBRANCH   1  28
TORSDOF 12
