REMARK  Name = ZINC40169818
REMARK  11 active torsions:
REMARK  status: ('A' for Active; 'I' for Inactive)
REMARK    1  A    between atoms: C_1  and  C_2
REMARK    2  A    between atoms: C_2  and  O_3
REMARK    3  A    between atoms: O_3  and  C_4
REMARK    4  A    between atoms: C_4  and  C_6
REMARK    5  A    between atoms: C_7  and  C_32
REMARK    6  A    between atoms: C_8  and  C_31
REMARK    7  A    between atoms: C_10  and  N_11
REMARK    8  A    between atoms: C_12  and  C_14
REMARK    9  A    between atoms: C_14  and  C_16
REMARK   10  A    between atoms: C_14  and  S_17
REMARK   11  A    between atoms: S_17  and  C_18
REMARK                            x       y       z     vdW  Elec       q    Type
REMARK                         _______ _______ _______ _____ _____    ______ ____
ROOT
ATOM      1  N   UNL     1      -3.047  -2.529   2.498  0.00  0.00    -0.278 N 
ATOM      2  C   UNL     1      -3.827  -2.875   3.541  0.00  0.00    +0.231 C 
ATOM      3  O   UNL     1      -4.928  -3.345   3.345  0.00  0.00    -0.274 OA
ATOM      4  H   UNL     1      -2.166  -2.153   2.655  0.00  0.00    +0.155 HD
ENDROOT
BRANCH   1   9
ATOM      5  C   UNL     1      -2.842  -2.416   0.016  0.00  0.00    +0.091 A 
ATOM      6  C   UNL     1      -3.551  -2.715  -1.208  0.00  0.00    -0.025 A 
ATOM      7  C   UNL     1      -4.779  -3.243  -1.061  0.00  0.00    -0.008 A 
ATOM      8  S   UNL     1      -4.978  -3.337   0.705  0.00  0.00    -0.078 S 
ATOM      9  C   UNL     1      -3.502  -2.711   1.202  0.00  0.00    +0.086 A 
ATOM     10  C   UNL     1      -5.753  -3.656  -2.134  0.00  0.00    +0.052 C 
ATOM     11  C   UNL     1      -2.950  -2.450  -2.565  0.00  0.00    +0.045 C 
BRANCH   5  12
ATOM     12  C   UNL     1      -1.497  -1.838   0.006  0.00  0.00    +0.342 C 
ATOM     13  O   UNL     1      -0.523  -2.566  -0.007  0.00  0.00    -0.245 OA
BRANCH  12  14
ATOM     14  O   UNL     1      -1.339  -0.499   0.012  0.00  0.00    -0.461 OA
BRANCH  14  16
ATOM     15  C   UNL     1      -0.019   1.526   0.010  0.00  0.00    +0.048 C 
ATOM     16  C   UNL     1       0.002  -0.004   0.002  0.00  0.00    +0.229 C 
ENDBRANCH  14  16
ENDBRANCH  12  14
ENDBRANCH   5  12
ENDBRANCH   1   9
BRANCH   2  17
ATOM     17  C   UNL     1      -3.332  -2.677   4.951  0.00  0.00    +0.137 C 
ATOM     18  C   UNL     1      -2.390  -3.823   5.326  0.00  0.00    +0.029 C 
BRANCH  17  19
ATOM     19  S   UNL     1      -4.744  -2.658   6.090  0.00  0.00    -0.073 S 
BRANCH  19  20
ATOM     20  C   UNL     1      -4.025  -2.275   7.653  0.00  0.00    +0.197 A 
ATOM     21  N   UNL     1      -2.751  -2.054   7.892  0.00  0.00    -0.122 NA
ATOM     22  N   UNL     1      -2.571  -1.802   9.140  0.00  0.00    -0.129 NA
ATOM     23  C   UNL     1      -3.726  -1.847   9.778  0.00  0.00    +0.162 A 
ATOM     24  N   UNL     1      -4.687  -2.147   8.838  0.00  0.00    -0.270 N 
ATOM     25  C   UNL     1      -6.019  -2.260   9.198  0.00  0.00    +0.058 A 
ATOM     26  C   UNL     1      -6.991  -2.565   8.254  0.00  0.00    +0.027 A 
ATOM     27  C   UNL     1      -8.312  -2.673   8.635  0.00  0.00    +0.002 A 
ATOM     28  C   UNL     1      -8.684  -2.481   9.957  0.00  0.00    +0.001 A 
ATOM     29  C   UNL     1      -7.737  -2.178  10.910  0.00  0.00    +0.010 A 
ATOM     30  C   UNL     1      -6.394  -2.064  10.539  0.00  0.00    -0.001 A 
ATOM     31  C   UNL     1      -5.363  -1.743  11.531  0.00  0.00    +0.013 A 
ATOM     32  C   UNL     1      -4.074  -1.649  11.135  0.00  0.00    +0.049 A 
ENDBRANCH  19  20
ENDBRANCH  17  19
ENDBRANCH   2  17
TORSDOF 7
