REMARK  Name = ZINC40530394
REMARK  13 active torsions:
REMARK  status: ('A' for Active; 'I' for Inactive)
REMARK    1  A    between atoms: C_1  and  C_2
REMARK    2  A    between atoms: C_2  and  C_3
REMARK    3  A    between atoms: C_3  and  O_4
REMARK    4  A    between atoms: O_4  and  C_5
REMARK    5  A    between atoms: C_8  and  C_11
REMARK    6  A    between atoms: C_16  and  O_25
REMARK    7  A    between atoms: C_20  and  N_24
REMARK    8  A    between atoms: C_21  and  C_22
REMARK    9  A    between atoms: O_25  and  C_26
REMARK   10  A    between atoms: C_26  and  C_28
REMARK   11  A    between atoms: C_29  and  C_39
REMARK   12  A    between atoms: C_32  and  C_38
REMARK   13  A    between atoms: C_33  and  C_37
REMARK                            x       y       z     vdW  Elec       q    Type
REMARK                         _______ _______ _______ _____ _____    ______ ____
ROOT
ATOM      1  C   UNL     1      -6.412  -4.639   0.002  0.00  0.00    +0.098 C 
ATOM      2  C   UNL     1      -6.513  -5.482   1.246  0.00  0.00    +0.008 A 
ATOM      3  C   UNL     1      -6.675  -4.866   2.474  0.00  0.00    +0.012 A 
ATOM      4  C   UNL     1      -6.771  -5.623   3.625  0.00  0.00    +0.047 A 
ATOM      5  C   UNL     1      -6.704  -7.007   3.552  0.00  0.00    +0.136 A 
ATOM      6  C   UNL     1      -6.542  -7.627   2.324  0.00  0.00    +0.093 A 
ATOM      7  C   UNL     1      -6.446  -6.864   1.167  0.00  0.00    +0.138 A 
ATOM      8  O   UNL     1      -6.288  -7.486  -0.027  0.00  0.00    -0.441 OA
ATOM      9  C   UNL     1      -6.577  -6.834  -1.166  0.00  0.00    +0.199 C 
ATOM     10  C   UNL     1      -6.649  -5.486  -1.216  0.00  0.00    +0.098 C 
ENDROOT
BRANCH   1  14
ATOM     11  C   UNL     1      -2.513  -2.903  -0.217  0.00  0.00    +0.121 A 
ATOM     12  C   UNL     1      -3.634  -2.088  -0.157  0.00  0.00    +0.046 A 
ATOM     13  C   UNL     1      -4.893  -2.652  -0.086  0.00  0.00    +0.008 A 
ATOM     14  C   UNL     1      -5.037  -4.027  -0.075  0.00  0.00    -0.034 A 
ATOM     15  C   UNL     1      -3.921  -4.841  -0.135  0.00  0.00    +0.008 A 
ATOM     16  C   UNL     1      -2.660  -4.283  -0.212  0.00  0.00    +0.046 A 
BRANCH  11  17
ATOM     17  O   UNL     1      -1.273  -2.351  -0.287  0.00  0.00    -0.492 OA
BRANCH  17  18
ATOM     18  C   UNL     1      -1.197  -0.924  -0.288  0.00  0.00    +0.229 C 
BRANCH  18  20
ATOM     19  C   UNL     1       0.349   1.036  -0.373  0.00  0.00    +0.007 C 
ATOM     20  C   UNL     1       0.268  -0.492  -0.371  0.00  0.00    +0.038 C 
ENDBRANCH  18  20
ENDBRANCH  17  18
ENDBRANCH  11  17
ENDBRANCH   1  14
BRANCH   9  21
ATOM     21  N   UNL     1      -6.803  -7.558  -2.309  0.00  0.00    -0.328 N 
ATOM     22  H   UNL     1      -6.753  -8.527  -2.288  0.00  0.00    +0.145 HD
ATOM     23  H   UNL     1      -7.013  -7.102  -3.139  0.00  0.00    +0.145 HD
ENDBRANCH   9  21
BRANCH  10  24
ATOM     24  C   UNL     1      -6.961  -4.851  -2.462  0.00  0.00    +0.101 C 
ATOM     25  N   UNL     1      -7.207  -4.348  -3.450  0.00  0.00    -0.191 NA
ENDBRANCH  10  24
BRANCH   5  26
ATOM     26  O   UNL     1      -6.798  -7.754   4.684  0.00  0.00    -0.420 OA
BRANCH  26  27
ATOM     27  C   UNL     1      -5.695  -8.406   5.105  0.00  0.00    +0.380 C 
ATOM     28  O   UNL     1      -4.633  -8.234   4.539  0.00  0.00    -0.241 OA
BRANCH  27  29
ATOM     29  C   UNL     1      -5.777  -9.324   6.248  0.00  0.00    +0.216 A 
ATOM     30  C   UNL     1      -4.734 -10.028   6.762  0.00  0.00    +0.010 A 
ATOM     31  C   UNL     1      -5.278 -10.800   7.878  0.00  0.00    +0.024 A 
ATOM     32  C   UNL     1      -4.733 -11.702   8.796  0.00  0.00    +0.015 A 
ATOM     33  C   UNL     1      -5.534 -12.268   9.746  0.00  0.00    -0.047 A 
ATOM     34  C   UNL     1      -6.885 -11.952   9.807  0.00  0.00    -0.044 A 
ATOM     35  C   UNL     1      -7.442 -11.065   8.912  0.00  0.00    +0.050 A 
ATOM     36  C   UNL     1      -6.647 -10.476   7.935  0.00  0.00    +0.137 A 
ATOM     37  O   UNL     1      -6.897  -9.591   6.951  0.00  0.00    -0.448 OA
ATOM     38  C   UNL     1      -7.752 -12.588  10.863  0.00  0.00    +0.044 C 
ATOM     39  C   UNL     1      -4.948 -13.242  10.736  0.00  0.00    +0.044 C 
ATOM     40  C   UNL     1      -3.307 -10.017   6.278  0.00  0.00    +0.048 C 
ENDBRANCH  27  29
ENDBRANCH  26  27
ENDBRANCH   5  26
TORSDOF 9
