REMARK  Name = ZINC39852749
REMARK  8 active torsions:
REMARK  status: ('A' for Active; 'I' for Inactive)
REMARK    1  A    between atoms: C_1  and  C_2
REMARK    2  A    between atoms: C_5  and  C_8
REMARK    3  A    between atoms: N_10  and  N_11
REMARK    4  A    between atoms: C_12  and  C_14
REMARK    5  A    between atoms: C_14  and  C_15
REMARK    6  A    between atoms: C_15  and  C_16
REMARK    7  A    between atoms: C_16  and  C_17
REMARK    8  A    between atoms: C_25  and  C_27
REMARK                            x       y       z     vdW  Elec       q    Type
REMARK                         _______ _______ _______ _____ _____    ______ ____
ROOT
ATOM      1  C   UNL     1       0.161 -10.567   3.721  0.00  0.00    +0.038 C 
ENDROOT
BRANCH   1   2
ATOM      2  C   UNL     1       0.175 -11.077   5.139  0.00  0.00    -0.013 A 
ATOM      3  C   UNL     1      -0.991 -11.387   5.963  0.00  0.00    +0.005 A 
ATOM      4  C   UNL     1      -2.372 -11.325   5.749  0.00  0.00    +0.030 A 
ATOM      5  C   UNL     1      -3.230 -11.695   6.747  0.00  0.00    +0.042 A 
ATOM      6  C   UNL     1      -2.741 -12.131   7.972  0.00  0.00    +0.022 A 
ATOM      7  C   UNL     1      -1.385 -12.198   8.204  0.00  0.00    +0.027 A 
ATOM      8  C   UNL     1      -0.492 -11.829   7.204  0.00  0.00    +0.047 A 
ATOM      9  N   UNL     1       0.882 -11.788   7.133  0.00  0.00    -0.353 N 
ATOM     10  C   UNL     1       1.272 -11.341   5.891  0.00  0.00    +0.069 A 
ATOM     11  H   UNL     1       1.485 -12.039   7.850  0.00  0.00    +0.166 HD
ATOM     12 CL   UNL     1      -4.944 -11.619   6.481  0.00  0.00    -0.084 Cl
BRANCH  10  13
ATOM     13  C   UNL     1       2.672 -11.173   5.446  0.00  0.00    +0.087 A 
ATOM     14  C   UNL     1       3.679 -10.968   6.390  0.00  0.00    +0.030 A 
ATOM     15  C   UNL     1       4.984 -10.812   5.958  0.00  0.00    +0.004 A 
ATOM     16  C   UNL     1       5.241 -10.866   4.595  0.00  0.00    +0.020 A 
ATOM     17  C   UNL     1       4.196 -11.072   3.714  0.00  0.00    +0.111 A 
ATOM     18  N   UNL     1       2.962 -11.223   4.151  0.00  0.00    -0.254 NA
ENDBRANCH  10  13
ENDBRANCH   1   2
BRANCH   1  19
ATOM     19  C   UNL     1       0.141  -9.037   3.729  0.00  0.00    +0.014 C 
BRANCH  19  20
ATOM     20  C   UNL     1       0.127  -8.519   2.290  0.00  0.00    +0.097 C 
BRANCH  20  22
ATOM     21  N   UNL     1       0.092  -6.332   1.134  0.00  0.00    -0.234 N 
ATOM     22  C   UNL     1       0.107  -7.013   2.298  0.00  0.00    +0.229 C 
ATOM     23  O   UNL     1       0.104  -6.412   3.352  0.00  0.00    -0.274 OA
ATOM     24  H   UNL     1       0.095  -6.813   0.292  0.00  0.00    +0.173 HD
BRANCH  21  27
ATOM     25  C   UNL     1       0.059  -4.251  -0.021  0.00  0.00    +0.260 C 
ATOM     26  O   UNL     1       0.062  -4.853  -1.077  0.00  0.00    -0.269 OA
ATOM     27  N   UNL     1       0.074  -4.931   1.142  0.00  0.00    -0.230 N 
ATOM     28  H   UNL     1       0.072  -4.451   1.985  0.00  0.00    +0.173 HD
BRANCH  25  33
ATOM     29  C   UNL     1      -0.018   1.503   0.010  0.00  0.00    +0.044 C 
ATOM     30  C   UNL     1       0.002  -0.004   0.002  0.00  0.00    -0.050 A 
ATOM     31  C   UNL     1       0.006  -0.686  -1.202  0.00  0.00    +0.004 A 
ATOM     32  C   UNL     1       0.024  -2.066  -1.216  0.00  0.00    +0.013 A 
ATOM     33  C   UNL     1       0.040  -2.773  -0.013  0.00  0.00    +0.038 A 
ATOM     34  C   UNL     1       0.036  -2.079   1.198  0.00  0.00    +0.013 A 
ATOM     35  C   UNL     1       0.023  -0.699   1.198  0.00  0.00    +0.004 A 
ENDBRANCH  25  33
ENDBRANCH  21  27
ENDBRANCH  20  22
ENDBRANCH  19  20
ENDBRANCH   1  19
TORSDOF 7
