REMARK  Name = ZINC38705273
REMARK  18 active torsions:
REMARK  status: ('A' for Active; 'I' for Inactive)
REMARK    1  A    between atoms: C_1  and  C_2
REMARK    2  A    between atoms: C_4  and  C_39
REMARK    3  A    between atoms: C_5  and  C_9
REMARK    4  A    between atoms: C_6  and  O_8
REMARK    5  A    between atoms: N_17  and  C_34
REMARK    6  A    between atoms: C_18  and  C_20
REMARK    7  A    between atoms: C_23  and  O_28
REMARK    8  A    between atoms: C_24  and  O_26
REMARK    9  A    between atoms: O_26  and  C_27
REMARK   10  A    between atoms: O_28  and  C_29
REMARK   11  A    between atoms: C_29  and  C_30
REMARK   12  A    between atoms: C_30  and  C_31
REMARK   13  A    between atoms: C_31  and  C_32
REMARK   14  A    between atoms: C_31  and  C_33
REMARK   15  A    between atoms: C_34  and  C_35
REMARK   16  A    between atoms: C_35  and  C_36
REMARK   17  A    between atoms: C_36  and  O_37
REMARK   18  A    between atoms: O_37  and  C_38
REMARK                            x       y       z     vdW  Elec       q    Type
REMARK                         _______ _______ _______ _____ _____    ______ ____
ROOT
ATOM      1  C   UNL     1      -0.191  -4.647  -0.106  0.00  0.00    +0.102 A 
ATOM      2  C   UNL     1       0.060  -5.312   1.099  0.00  0.00    +0.035 A 
ATOM      3  C   UNL     1       0.106  -6.657   0.785  0.00  0.00    +0.126 A 
ATOM      4  N   UNL     1      -0.113  -6.740  -0.561  0.00  0.00    -0.272 N 
ATOM      5  H   UNL     1      -0.139  -7.564  -1.071  0.00  0.00    +0.189 HD
ATOM      6  N   UNL     1      -0.288  -5.563  -1.049  0.00  0.00    -0.173 NA
ATOM      7  C   UNL     1       0.368  -7.415   2.014  0.00  0.00    +0.265 C 
ATOM      8  O   UNL     1       0.467  -8.625   2.075  0.00  0.00    -0.268 OA
ATOM      9  N   UNL     1       0.482  -6.581   3.063  0.00  0.00    -0.285 N 
ATOM     10  C   UNL     1       0.301  -5.205   2.580  0.00  0.00    +0.141 C 
ENDROOT
BRANCH   1  15
ATOM     11  C   UNL     1      -0.735   1.046  -0.814  0.00  0.00    +0.044 C 
ATOM     12  C   UNL     1      -0.591  -0.442  -0.627  0.00  0.00    -0.047 A 
ATOM     13  C   UNL     1      -1.529  -1.299  -1.173  0.00  0.00    +0.007 A 
ATOM     14  C   UNL     1      -1.404  -2.664  -1.007  0.00  0.00    -0.037 A 
ATOM     15  C   UNL     1      -0.330  -3.181  -0.288  0.00  0.00    +0.047 A 
ATOM     16  C   UNL     1       0.617  -2.313   0.263  0.00  0.00    +0.127 A 
ATOM     17  C   UNL     1       0.482  -0.945   0.084  0.00  0.00    +0.049 A 
ATOM     18  C   UNL     1      -2.430  -3.593  -1.603  0.00  0.00    +0.044 C 
BRANCH  16  19
ATOM     19  O   UNL     1       1.668  -2.808   0.966  0.00  0.00    -0.506 OA
ATOM     20  H   UNL     1       2.472  -2.926   0.442  0.00  0.00    +0.292 HD
ENDBRANCH  16  19
ENDBRANCH   1  15
BRANCH  10  21
ATOM     21  C   UNL     1      -0.889  -4.573   3.255  0.00  0.00    -0.019 A 
ATOM     22  C   UNL     1      -2.054  -5.298   3.423  0.00  0.00    +0.009 A 
ATOM     23  C   UNL     1      -3.148  -4.723   4.041  0.00  0.00    +0.050 A 
ATOM     24  C   UNL     1      -3.079  -3.415   4.494  0.00  0.00    +0.162 A 
ATOM     25  C   UNL     1      -1.906  -2.684   4.326  0.00  0.00    +0.162 A 
ATOM     26  C   UNL     1      -0.812  -3.269   3.709  0.00  0.00    +0.055 A 
BRANCH  25  27
ATOM     27  O   UNL     1      -1.834  -1.401   4.769  0.00  0.00    -0.491 OA
ATOM     28  C   UNL     1      -0.599  -0.712   4.562  0.00  0.00    +0.277 C 
ENDBRANCH  25  27
BRANCH  24  29
ATOM     29  O   UNL     1      -4.154  -2.847   5.102  0.00  0.00    -0.488 OA
BRANCH  29  30
ATOM     30  C   UNL     1      -5.324  -3.656   5.240  0.00  0.00    +0.229 C 
BRANCH  30  31
ATOM     31  C   UNL     1      -6.420  -2.852   5.942  0.00  0.00    +0.044 C 
BRANCH  31  32
ATOM     32  C   UNL     1      -7.673  -3.718   6.090  0.00  0.00    -0.014 C 
ATOM     33  C   UNL     1      -7.372  -4.894   7.023  0.00  0.00    +0.007 C 
ATOM     34  C   UNL     1      -8.808  -2.878   6.678  0.00  0.00    +0.007 C 
ENDBRANCH  31  32
ENDBRANCH  30  31
ENDBRANCH  29  30
ENDBRANCH  24  29
ENDBRANCH  10  21
BRANCH   9  35
ATOM     35  C   UNL     1       0.742  -6.976   4.449  0.00  0.00    +0.111 C 
BRANCH  35  36
ATOM     36  C   UNL     1       2.252  -7.010   4.695  0.00  0.00    +0.047 C 
BRANCH  36  37
ATOM     37  C   UNL     1       2.523  -7.423   6.143  0.00  0.00    +0.161 C 
BRANCH  37  38
ATOM     38  O   UNL     1       3.934  -7.455   6.373  0.00  0.00    -0.383 OA
ATOM     39  C   UNL     1       4.298  -7.831   7.702  0.00  0.00    +0.193 C 
ENDBRANCH  37  38
ENDBRANCH  36  37
ENDBRANCH  35  36
ENDBRANCH   9  35
TORSDOF 12
