REMARK  Name = ZINC22711028
REMARK  5 active torsions:
REMARK  status: ('A' for Active; 'I' for Inactive)
REMARK    1  A    between atoms: C_1  and  O_2
REMARK    2  A    between atoms: O_2  and  C_3
REMARK    3  A    between atoms: C_6  and  C_9
REMARK    4  A    between atoms: C_14  and  C_26
REMARK    5  A    between atoms: C_19  and  C_21
REMARK                            x       y       z     vdW  Elec       q    Type
REMARK                         _______ _______ _______ _____ _____    ______ ____
ROOT
ATOM      1  C   UNL     1       3.711  -0.707  -0.037  0.00  0.00    +0.032 C 
ATOM      2  C   UNL     1       4.506  -0.314  -1.283  0.00  0.00    +0.060 C 
ATOM      3  C   UNL     1       5.843  -1.018  -1.276  0.00  0.00    +0.020 C 
ATOM      4  C   UNL     1       6.459  -1.327  -0.115  0.00  0.00    +0.041 C 
ATOM      5  C   UNL     1       7.794  -2.037  -0.077  0.00  0.00    +0.175 C 
ATOM      6  N   UNL     1       8.410  -2.012  -1.398  0.00  0.00    -0.220 N 
ATOM      7  C   UNL     1       7.738  -1.679  -2.528  0.00  0.00    +0.219 A 
ATOM      8  N   UNL     1       8.568  -1.766  -3.531  0.00  0.00    -0.189 NA
ATOM      9  C   UNL     1       9.771  -2.144  -3.085  0.00  0.00    +0.256 A 
ATOM     10  N   UNL     1       9.717  -2.303  -1.785  0.00  0.00    -0.143 NA
ATOM     11  N   UNL     1       6.400  -1.322  -2.495  0.00  0.00    -0.287 N 
ATOM     12  C   UNL     1       5.872  -1.001   1.121  0.00  0.00    +0.164 C 
ATOM     13  O   UNL     1       6.463  -1.271   2.148  0.00  0.00    -0.292 OA
ATOM     14  C   UNL     1       4.532  -0.326   1.200  0.00  0.00    +0.088 C 
ATOM     15  H   UNL     1       5.786  -1.278  -3.407  0.00  0.00    +0.155 HD
ENDROOT
BRANCH   5  16
ATOM     16  C   UNL     1       7.589  -3.467   0.352  0.00  0.00    -0.018 A 
ATOM     17  C   UNL     1       6.780  -4.303  -0.395  0.00  0.00    +0.007 A 
ATOM     18  C   UNL     1       6.596  -5.616  -0.005  0.00  0.00    +0.020 A 
ATOM     19  C   UNL     1       7.211  -6.090   1.139  0.00  0.00    +0.041 A 
ATOM     20  C   UNL     1       8.016  -5.251   1.890  0.00  0.00    +0.020 A 
ATOM     21  C   UNL     1       8.204  -3.940   1.496  0.00  0.00    +0.007 A 
ATOM     22 CL   UNL     1       6.975  -7.737   1.634  0.00  0.00    -0.084 Cl
ENDBRANCH   5  16
BRANCH   1  26
ATOM     23  C   UNL     1      -0.017   1.383   0.010  0.00  0.00    +0.120 A 
ATOM     24  C   UNL     1       1.177   2.091   0.002  0.00  0.00    +0.046 A 
ATOM     25  C   UNL     1       2.380   1.413  -0.013  0.00  0.00    +0.007 A 
ATOM     26  C   UNL     1       2.396   0.030  -0.021  0.00  0.00    -0.043 A 
ATOM     27  C   UNL     1       1.208  -0.677  -0.013  0.00  0.00    +0.007 A 
ATOM     28  C   UNL     1       0.002  -0.004   0.002  0.00  0.00    +0.046 A 
BRANCH  23  30
ATOM     29  C   UNL     1      -1.145   3.475   0.026  0.00  0.00    +0.277 C 
ATOM     30  O   UNL     1      -1.202   2.048   0.019  0.00  0.00    -0.495 OA
ENDBRANCH  23  30
ENDBRANCH   1  26
BRANCH   9  31
ATOM     31  C   UNL     1      10.994  -2.352  -3.940  0.00  0.00    +0.454 C 
ATOM     32  F   UNL     1      10.870  -3.553  -4.646  0.00  0.00    -0.163 F 
ATOM     33  F   UNL     1      11.117  -1.291  -4.844  0.00  0.00    -0.163 F 
ATOM     34  F   UNL     1      12.129  -2.405  -3.125  0.00  0.00    -0.163 F 
ENDBRANCH   9  31
TORSDOF 4
