REMARK  Name = ZINC57556802
REMARK  4 active torsions:
REMARK  status: ('A' for Active; 'I' for Inactive)
REMARK    1  A    between atoms: C_6  and  N_7
REMARK    2  A    between atoms: C_11  and  S_12
REMARK    3  A    between atoms: S_12  and  C_13
REMARK    4  A    between atoms: C_13  and  C_14
REMARK                            x       y       z     vdW  Elec       q    Type
REMARK                         _______ _______ _______ _____ _____    ______ ____
ROOT
ATOM      1  C   UNL     1      -0.017   1.383   0.010  0.00  0.00    +0.032 A 
ATOM      2  C   UNL     1       1.170   2.091   0.002  0.00  0.00    +0.043 A 
ATOM      3  C   UNL     1       2.380   1.418  -0.013  0.00  0.00    +0.161 A 
ATOM      4  C   UNL     1       2.403   0.031  -0.021  0.00  0.00    +0.195 A 
ATOM      5  C   UNL     1       1.216  -0.681  -0.013  0.00  0.00    +0.185 A 
ATOM      6  C   UNL     1       0.002  -0.004   0.002  0.00  0.00    +0.087 A 
ATOM      7  F   UNL     1       1.237  -2.032  -0.021  0.00  0.00    -0.200 F 
ATOM      8  F   UNL     1       3.584  -0.624  -0.037  0.00  0.00    -0.199 F 
ATOM      9  F   UNL     1       3.538   2.112  -0.022  0.00  0.00    -0.202 F 
ENDROOT
BRANCH   6  10
ATOM     10  N   UNL     1      -1.204  -0.723   0.010  0.00  0.00    -0.292 N 
ATOM     11  C   UNL     1      -2.155  -0.741  -0.987  0.00  0.00    +0.113 A 
ATOM     12  C   UNL     1      -3.142  -1.554  -0.573  0.00  0.00    +0.131 A 
ATOM     13  N   UNL     1      -2.818  -2.028   0.642  0.00  0.00    -0.230 NA
ATOM     14  C   UNL     1      -1.653  -1.542   1.003  0.00  0.00    +0.174 A 
BRANCH  14  15
ATOM     15  S   UNL     1      -0.816  -1.886   2.515  0.00  0.00    -0.072 S 
BRANCH  15  16
ATOM     16  C   UNL     1      -1.927  -3.027   3.382  0.00  0.00    +0.195 C 
BRANCH  16  17
ATOM     17  C   UNL     1      -1.336  -3.397   4.679  0.00  0.00    +0.074 C 
ATOM     18  N   UNL     1      -0.880  -3.683   5.679  0.00  0.00    -0.196 NA
ENDBRANCH  16  17
ENDBRANCH  15  16
ENDBRANCH  14  15
ENDBRANCH   6  10
TORSDOF 4
