REMARK  Name = ZINC21171485
REMARK  7 active torsions:
REMARK  status: ('A' for Active; 'I' for Inactive)
REMARK    1  A    between atoms: C_1  and  C_2
REMARK    2  A    between atoms: C_5  and  S_8
REMARK    3  A    between atoms: S_8  and  C_11
REMARK    4  A    between atoms: C_12  and  N_25
REMARK    5  A    between atoms: C_14  and  S_16
REMARK    6  A    between atoms: S_16  and  C_19
REMARK    7  A    between atoms: C_28  and  O_31
REMARK                            x       y       z     vdW  Elec       q    Type
REMARK                         _______ _______ _______ _____ _____    ______ ____
ROOT
ATOM      1  C   UNL     1      -3.762   1.452   2.921  0.00  0.00    +0.212 A 
ATOM      2  C   UNL     1      -2.985   0.545   3.581  0.00  0.00    +0.116 A 
ATOM      3  S   UNL     1      -3.622  -0.984   2.906  0.00  0.00    -0.032 S 
ATOM      4  C   UNL     1      -4.839  -0.252   1.819  0.00  0.00    +0.224 A 
ATOM      5  N   UNL     1      -4.665   1.028   2.060  0.00  0.00    -0.201 NA
ENDROOT
BRANCH   2   6
ATOM      6  N   UNL     1      -1.976   0.752   4.525  0.00  0.00    -0.322 N 
ATOM      7  C   UNL     1      -2.296   0.083   5.792  0.00  0.00    +0.108 C 
ATOM      8  C   UNL     1      -1.246   0.450   6.843  0.00  0.00    +0.050 C 
ATOM      9  C   UNL     1       0.137   0.016   6.350  0.00  0.00    +0.118 C 
ATOM     10  C   UNL     1       0.425   0.690   5.005  0.00  0.00    +0.050 C 
ATOM     11  C   UNL     1      -0.673   0.316   4.007  0.00  0.00    +0.108 C 
BRANCH   9  12
ATOM     12  O   UNL     1       1.128   0.408   7.302  0.00  0.00    -0.392 OA
ATOM     13  H   UNL     1       2.188   0.179   7.118  0.00  0.00    +0.210 HD
ENDBRANCH   9  12
ENDBRANCH   2   6
BRANCH   1  14
ATOM     14  S   UNL     1      -3.558   3.176   3.216  0.00  0.00    +0.044 S 
ATOM     15  O   UNL     1      -4.791   3.795   2.876  0.00  0.00    -0.163 OA
ATOM     16  O   UNL     1      -2.973   3.301   4.505  0.00  0.00    -0.163 OA
BRANCH  14  21
ATOM     17  C   UNL     1       0.531   5.193  -0.736  0.00  0.00    +0.044 C 
ATOM     18  C   UNL     1      -0.490   4.690   0.252  0.00  0.00    -0.050 A 
ATOM     19  C   UNL     1      -1.817   4.582  -0.121  0.00  0.00    +0.005 A 
ATOM     20  C   UNL     1      -2.754   4.120   0.784  0.00  0.00    +0.028 A 
ATOM     21  C   UNL     1      -2.364   3.765   2.062  0.00  0.00    +0.095 A 
ATOM     22  C   UNL     1      -1.038   3.878   2.436  0.00  0.00    +0.028 A 
ATOM     23  C   UNL     1      -0.100   4.336   1.530  0.00  0.00    +0.005 A 
ENDBRANCH  14  21
ENDBRANCH   1  14
BRANCH   4  24
ATOM     24  S   UNL     1      -5.974  -1.038   0.724  0.00  0.00    +0.049 S 
ATOM     25  O   UNL     1      -7.051  -0.131   0.536  0.00  0.00    -0.162 OA
ATOM     26  O   UNL     1      -6.165  -2.357   1.215  0.00  0.00    -0.162 OA
BRANCH  24  27
ATOM     27  C   UNL     1      -5.169  -1.193  -0.836  0.00  0.00    +0.096 A 
ATOM     28  C   UNL     1      -4.428  -2.324  -1.122  0.00  0.00    +0.027 A 
ATOM     29  C   UNL     1      -3.801  -2.448  -2.348  0.00  0.00    +0.002 A 
ATOM     30  C   UNL     1      -3.912  -1.439  -3.286  0.00  0.00    +0.000 A 
ATOM     31  C   UNL     1      -4.649  -0.305  -2.998  0.00  0.00    +0.002 A 
ATOM     32  C   UNL     1      -5.276  -0.181  -1.772  0.00  0.00    +0.027 A 
ENDBRANCH  24  27
ENDBRANCH   4  24
TORSDOF 6
