REMARK  Name = ZINC05796532
REMARK  8 active torsions:
REMARK  status: ('A' for Active; 'I' for Inactive)
REMARK    1  A    between atoms: C_1  and  C_2
REMARK    2  A    between atoms: C_2  and  C_3
REMARK    3  A    between atoms: C_2  and  C_4
REMARK    4  A    between atoms: C_12  and  N_26
REMARK    5  A    between atoms: C_14  and  S_16
REMARK    6  A    between atoms: S_16  and  C_17
REMARK    7  A    between atoms: C_17  and  C_18
REMARK    8  A    between atoms: C_19  and  C_20
REMARK                            x       y       z     vdW  Elec       q    Type
REMARK                         _______ _______ _______ _____ _____    ______ ____
ROOT
ATOM      1  C   UNL     1     -10.241   3.895   0.676  0.00  0.00    +0.126 C 
ATOM      2  C   UNL     1      -8.722   3.709   0.618  0.00  0.00    +0.068 C 
ATOM      3  C   UNL     1      -8.412   2.688  -0.474  0.00  0.00    -0.020 A 
ATOM      4  C   UNL     1      -9.346   2.404  -1.406  0.00  0.00    +0.021 A 
ATOM      5  S   UNL     1      -8.596   1.196  -2.460  0.00  0.00    -0.071 S 
ATOM      6  C   UNL     1      -7.023   1.073  -1.647  0.00  0.00    +0.115 A 
ATOM      7  C   UNL     1      -7.135   1.982  -0.575  0.00  0.00    +0.051 A 
ATOM      8  C   UNL     1      -5.989   2.087   0.262  0.00  0.00    +0.129 A 
ATOM      9  N   UNL     1      -4.924   1.351  -0.005  0.00  0.00    -0.207 NA
ATOM     10  C   UNL     1      -4.885   0.512  -1.033  0.00  0.00    +0.191 A 
ATOM     11  N   UNL     1      -5.922   0.377  -1.850  0.00  0.00    -0.215 NA
ATOM     12  C   UNL     1     -10.716   3.003  -1.498  0.00  0.00    +0.203 C 
ATOM     13  O   UNL     1     -10.756   4.150  -0.633  0.00  0.00    -0.371 OA
ENDROOT
BRANCH   1  15
ATOM     14  C   UNL     1     -12.091   5.254   1.663  0.00  0.00    +0.010 C 
ATOM     15  C   UNL     1     -10.573   5.076   1.591  0.00  0.00    +0.012 C 
ATOM     16  C   UNL     1     -10.023   4.806   2.993  0.00  0.00    +0.010 C 
ENDBRANCH   1  15
BRANCH   8  17
ATOM     17  N   UNL     1      -5.990   2.949   1.343  0.00  0.00    -0.343 N 
ATOM     18  H   UNL     1      -5.249   2.942   1.970  0.00  0.00    +0.144 HD
ATOM     19  H   UNL     1      -6.731   3.561   1.476  0.00  0.00    +0.144 HD
ENDBRANCH   8  17
BRANCH  10  20
ATOM     20  S   UNL     1      -3.427  -0.434  -1.323  0.00  0.00    -0.082 S 
BRANCH  20  21
ATOM     21  C   UNL     1      -2.396   0.150   0.045  0.00  0.00    +0.104 C 
BRANCH  21  22
ATOM     22  C   UNL     1      -1.059  -0.543  -0.002  0.00  0.00    -0.015 C 
ATOM     23  C   UNL     1       0.038   0.150  -0.276  0.00  0.00    +0.004 C 
BRANCH  23  24
ATOM     24  C   UNL     1      -0.068   1.559  -0.711  0.00  0.00    -0.025 A 
ATOM     25  C   UNL     1      -1.046   1.937  -1.631  0.00  0.00    +0.008 A 
ATOM     26  C   UNL     1      -1.142   3.254  -2.030  0.00  0.00    +0.001 A 
ATOM     27  C   UNL     1      -0.264   4.198  -1.527  0.00  0.00    +0.000 A 
ATOM     28  C   UNL     1       0.712   3.829  -0.618  0.00  0.00    +0.001 A 
ATOM     29  C   UNL     1       0.815   2.515  -0.208  0.00  0.00    +0.008 A 
ENDBRANCH  23  24
ENDBRANCH  21  22
ENDBRANCH  20  21
ENDBRANCH  10  20
TORSDOF 6
