REMARK  Name = ZINC51995389
REMARK  6 active torsions:
REMARK  status: ('A' for Active; 'I' for Inactive)
REMARK    1  A    between atoms: C_6  and  N_7
REMARK    2  A    between atoms: N_10  and  C_13
REMARK    3  A    between atoms: C_13  and  C_14
REMARK    4  A    between atoms: C_14  and  N_15
REMARK    5  A    between atoms: N_15  and  C_16
REMARK    6  A    between atoms: C_17  and  C_22
REMARK                            x       y       z     vdW  Elec       q    Type
REMARK                         _______ _______ _______ _____ _____    ______ ____
ROOT
ATOM      1  N   UNL     1      -1.198  -0.721   0.010  0.00  0.00    -0.333 N 
ATOM      2  C   UNL     1      -2.491  -0.029   0.130  0.00  0.00    +0.086 C 
ATOM      3  C   UNL     1      -3.416  -0.529  -0.985  0.00  0.00    -0.060 C 
ATOM      4  N   UNL     1      -3.504  -1.994  -0.925  0.00  0.00    +0.383 N 
ATOM      5  C   UNL     1      -2.190  -2.586  -1.206  0.00  0.00    -0.060 C 
ATOM      6  C   UNL     1      -1.205  -2.187  -0.108  0.00  0.00    +0.086 C 
ATOM      7  H   UNL     1      -3.808  -2.275  -0.005  0.00  0.00    -0.082 HD
ENDROOT
BRANCH   1  13
ATOM      8  C   UNL     1       1.215  -0.680   0.001  0.00  0.00    +0.026 A 
ATOM      9  C   UNL     1       2.400   0.030  -0.008  0.00  0.00    +0.040 A 
ATOM     10  C   UNL     1       2.379   1.414  -0.015  0.00  0.00    +0.124 A 
ATOM     11  C   UNL     1       1.170   2.090  -0.013  0.00  0.00    +0.040 A 
ATOM     12  C   UNL     1      -0.017   1.385  -0.004  0.00  0.00    +0.026 A 
ATOM     13  C   UNL     1       0.002  -0.004   0.002  0.00  0.00    +0.030 A 
ATOM     14  F   UNL     1       3.539   2.107  -0.023  0.00  0.00    -0.205 F 
ENDBRANCH   1  13
BRANCH   4  15
ATOM     15  C   UNL     1      -4.474  -2.465  -1.923  0.00  0.00    -0.060 C 
BRANCH  15  16
ATOM     16  C   UNL     1      -4.660  -3.977  -1.779  0.00  0.00    +0.083 C 
BRANCH  16  17
ATOM     17  N   UNL     1      -5.628  -4.447  -2.773  0.00  0.00    -0.338 N 
ATOM     18  H   UNL     1      -6.036  -3.817  -3.388  0.00  0.00    +0.147 HD
BRANCH  17  19
ATOM     19  C   UNL     1      -5.959  -5.787  -2.836  0.00  0.00    +0.104 A 
ATOM     20  C   UNL     1      -6.846  -6.425  -3.706  0.00  0.00    +0.118 A 
ATOM     21  C   UNL     1      -6.957  -7.802  -3.505  0.00  0.00    +0.157 A 
ATOM     22  N   UNL     1      -6.240  -8.328  -2.552  0.00  0.00    -0.196 NA
ATOM     23  S   UNL     1      -5.391  -7.050  -1.889  0.00  0.00    +0.029 S 
ATOM     24 CL   UNL     1      -8.008  -8.774  -4.486  0.00  0.00    -0.060 Cl
BRANCH  20  25
ATOM     25  C   UNL     1      -7.579  -5.726  -4.719  0.00  0.00    +0.105 C 
ATOM     26  N   UNL     1      -8.160  -5.171  -5.522  0.00  0.00    -0.191 NA
ENDBRANCH  20  25
ENDBRANCH  17  19
ENDBRANCH  16  17
ENDBRANCH  15  16
ENDBRANCH   4  15
TORSDOF 6
