REMARK  Name = ZINC35471941
REMARK  8 active torsions:
REMARK  status: ('A' for Active; 'I' for Inactive)
REMARK    1  A    between atoms: C_2  and  C_3
REMARK    2  A    between atoms: C_3  and  N_4
REMARK    3  A    between atoms: C_7  and  C_12
REMARK    4  A    between atoms: C_16  and  O_18
REMARK    5  A    between atoms: O_18  and  C_19
REMARK    6  A    between atoms: N_27  and  C_29
REMARK    7  A    between atoms: C_29  and  C_30
REMARK    8  A    between atoms: C_30  and  N_31
REMARK                            x       y       z     vdW  Elec       q    Type
REMARK                         _______ _______ _______ _____ _____    ______ ____
ROOT
ATOM      1  N   UNL     1      -1.367  -1.539  -1.254  0.00  0.00    -0.253 N 
ATOM      2  C   UNL     1      -1.937  -1.132  -2.426  0.00  0.00    +0.043 C 
ATOM      3  C   UNL     1      -1.988  -1.947  -3.499  0.00  0.00    +0.058 C 
ATOM      4  C   UNL     1      -1.389  -3.332  -3.361  0.00  0.00    +0.142 C 
ATOM      5  N   UNL     1      -0.798  -3.675  -2.056  0.00  0.00    -0.288 N 
ATOM      6  C   UNL     1      -0.819  -2.749  -1.078  0.00  0.00    +0.307 C 
ATOM      7  O   UNL     1      -0.330  -3.021   0.001  0.00  0.00    -0.252 OA
ATOM      8  C   UNL     1      -2.622  -1.298  -4.578  0.00  0.00    +0.247 C 
ATOM      9  O   UNL     1      -2.805  -1.801  -5.672  0.00  0.00    -0.270 OA
ATOM     10  N   UNL     1      -3.000  -0.052  -4.242  0.00  0.00    -0.294 N 
ATOM     11  C   UNL     1      -2.598   0.163  -2.844  0.00  0.00    +0.159 C 
ATOM     12  H   UNL     1      -0.399  -4.547  -1.906  0.00  0.00    +0.151 HD
ENDROOT
BRANCH   4  13
ATOM     13  C   UNL     1      -2.471  -4.338  -3.659  0.00  0.00    -0.019 A 
ATOM     14  C   UNL     1      -3.405  -4.655  -2.689  0.00  0.00    +0.006 A 
ATOM     15  C   UNL     1      -4.399  -5.577  -2.960  0.00  0.00    +0.004 A 
ATOM     16  C   UNL     1      -4.462  -6.184  -4.199  0.00  0.00    +0.046 A 
ATOM     17  C   UNL     1      -3.526  -5.868  -5.173  0.00  0.00    +0.129 A 
ATOM     18  C   UNL     1      -2.533  -4.938  -4.901  0.00  0.00    +0.052 A 
BRANCH  17  19
ATOM     19  O   UNL     1      -3.585  -6.464  -6.393  0.00  0.00    -0.456 OA
BRANCH  19  20
ATOM     20  C   UNL     1      -2.586  -7.319  -6.734  0.00  0.00    +0.128 A 
ATOM     21  C   UNL     1      -1.618  -7.664  -5.802  0.00  0.00    +0.046 A 
ATOM     22  C   UNL     1      -0.603  -8.534  -6.152  0.00  0.00    +0.004 A 
ATOM     23  C   UNL     1      -0.551  -9.060  -7.429  0.00  0.00    +0.000 A 
ATOM     24  C   UNL     1      -1.514  -8.717  -8.360  0.00  0.00    +0.004 A 
ATOM     25  C   UNL     1      -2.535  -7.853  -8.014  0.00  0.00    +0.046 A 
ENDBRANCH  19  20
ENDBRANCH  17  19
ENDBRANCH   4  13
BRANCH   1  26
ATOM     26  C   UNL     1      -1.347  -0.600  -0.130  0.00  0.00    +0.141 C 
BRANCH  26  28
ATOM     27  C   UNL     1      -0.161   1.533  -0.195  0.00  0.00    +0.005 C 
ATOM     28  C   UNL     1      -0.087   0.225  -0.187  0.00  0.00    -0.015 C 
ENDBRANCH  26  28
ENDBRANCH   1  26
BRANCH  10  29
ATOM     29  C   UNL     1      -3.685   0.912  -5.107  0.00  0.00    +0.090 C 
BRANCH  29  30
ATOM     30  C   UNL     1      -5.199   0.741  -4.963  0.00  0.00    -0.060 C 
BRANCH  30  31
ATOM     31  N   UNL     1      -5.885   1.708  -5.830  0.00  0.00    +0.381 N 
ATOM     32  C   UNL     1      -5.594   3.070  -5.368  0.00  0.00    -0.079 C 
ATOM     33  C   UNL     1      -6.240   4.083  -6.316  0.00  0.00    -0.019 C 
ATOM     34  C   UNL     1      -7.756   3.861  -6.335  0.00  0.00    -0.004 C 
ATOM     35  C   UNL     1      -8.045   2.415  -6.746  0.00  0.00    -0.019 C 
ATOM     36  C   UNL     1      -7.332   1.464  -5.783  0.00  0.00    -0.079 C 
ATOM     37  H   UNL     1      -5.558   1.599  -6.778  0.00  0.00    -0.082 HD
ENDBRANCH  30  31
ENDBRANCH  29  30
ENDBRANCH  10  29
TORSDOF 8
