REMARK  Name = ZINC22039057
REMARK  9 active torsions:
REMARK  status: ('A' for Active; 'I' for Inactive)
REMARK    1  A    between atoms: C_4  and  C_7
REMARK    2  A    between atoms: C_7  and  C_8
REMARK    3  A    between atoms: C_7  and  N_14
REMARK    4  A    between atoms: N_17  and  C_20
REMARK    5  A    between atoms: C_20  and  C_21
REMARK    6  A    between atoms: C_21  and  C_23
REMARK    7  A    between atoms: C_21  and  O_36
REMARK    8  A    between atoms: C_23  and  O_24
REMARK    9  A    between atoms: O_24  and  C_25
REMARK                            x       y       z     vdW  Elec       q    Type
REMARK                         _______ _______ _______ _____ _____    ______ ____
ROOT
ATOM      1  N   UNL     1       4.793  -0.167  -0.918  0.00  0.00    +0.389 N 
ATOM      2  C   UNL     1       4.195   0.027  -2.246  0.00  0.00    -0.062 C 
ATOM      3  C   UNL     1       5.163   0.822  -3.127  0.00  0.00    +0.066 C 
ATOM      4  N   UNL     1       6.437   0.098  -3.227  0.00  0.00    -0.303 NA
ATOM      5  C   UNL     1       7.035  -0.097  -1.899  0.00  0.00    +0.066 C 
ATOM      6  C   UNL     1       6.068  -0.892  -1.018  0.00  0.00    -0.062 C 
ATOM      7  H   UNL     1       4.999   0.825  -0.489  0.00  0.00    -0.080 HD
ENDROOT
BRANCH   1   8
ATOM      8  C   UNL     1       3.862  -0.862  -0.018  0.00  0.00    -0.007 C 
BRANCH   8  12
ATOM      9  C   UNL     1       0.198   1.321   0.202  0.00  0.00    +0.000 A 
ATOM     10  C   UNL     1       1.404   1.996   0.183  0.00  0.00    +0.000 A 
ATOM     11  C   UNL     1       2.590   1.289   0.112  0.00  0.00    +0.002 A 
ATOM     12  C   UNL     1       2.570  -0.092   0.059  0.00  0.00    -0.057 A 
ATOM     13  C   UNL     1       1.363  -0.766   0.078  0.00  0.00    +0.002 A 
ATOM     14  C   UNL     1       0.177  -0.060   0.149  0.00  0.00    +0.000 A 
ENDBRANCH   8  12
BRANCH   8  15
ATOM     15  C   UNL     1       4.472  -0.961   1.356  0.00  0.00    -0.057 A 
ATOM     16  C   UNL     1       5.184   0.105   1.875  0.00  0.00    +0.002 A 
ATOM     17  C   UNL     1       5.739   0.017   3.138  0.00  0.00    +0.000 A 
ATOM     18  C   UNL     1       5.590  -1.141   3.878  0.00  0.00    +0.000 A 
ATOM     19  C   UNL     1       4.883  -2.209   3.358  0.00  0.00    +0.000 A 
ATOM     20  C   UNL     1       4.324  -2.118   2.097  0.00  0.00    +0.002 A 
ENDBRANCH   8  15
ENDBRANCH   1   8
BRANCH   4  21
ATOM     21  C   UNL     1       7.368   0.793  -4.127  0.00  0.00    +0.117 C 
BRANCH  21  22
ATOM     22  C   UNL     1       6.820   0.757  -5.554  0.00  0.00    +0.154 C 
BRANCH  22  23
ATOM     23  O   UNL     1       6.675  -0.601  -5.975  0.00  0.00    -0.388 OA
ATOM     24  H   UNL     1       6.291  -0.827  -6.981  0.00  0.00    +0.210 HD
ENDBRANCH  22  23
BRANCH  22  25
ATOM     25  C   UNL     1       7.789   1.480  -6.491  0.00  0.00    +0.193 C 
BRANCH  25  26
ATOM     26  O   UNL     1       7.223   1.549  -7.802  0.00  0.00    -0.369 OA
BRANCH  26  27
ATOM     27  C   UNL     1       8.005   2.298  -8.734  0.00  0.00    +0.149 C 
ATOM     28  C   UNL     1       7.605   3.770  -8.659  0.00  0.00    +0.037 C 
ATOM     29  C   UNL     1       8.293   4.517  -9.808  0.00  0.00    +0.007 C 
ATOM     30  C   UNL     1       7.650   4.077 -11.122  0.00  0.00    +0.035 C 
ATOM     31  C   UNL     1       7.618   2.575 -11.218  0.00  0.00    -0.042 A 
ATOM     32  C   UNL     1       7.777   1.758 -10.121  0.00  0.00    -0.016 A 
ATOM     33  C   UNL     1       7.729   0.379 -10.278  0.00  0.00    +0.006 A 
ATOM     34  C   UNL     1       7.527  -0.179 -11.524  0.00  0.00    +0.000 A 
ATOM     35  C   UNL     1       7.372   0.641 -12.626  0.00  0.00    +0.000 A 
ATOM     36  C   UNL     1       7.417   2.011 -12.472  0.00  0.00    +0.004 A 
ENDBRANCH  26  27
ENDBRANCH  25  26
ENDBRANCH  22  25
ENDBRANCH  21  22
ENDBRANCH   4  21
TORSDOF 9
