REMARK  Name = ZINC56800598
REMARK  5 active torsions:
REMARK  status: ('A' for Active; 'I' for Inactive)
REMARK    1  A    between atoms: C_1  and  C_2
REMARK    2  A    between atoms: C_2  and  C_3
REMARK    3  A    between atoms: N_12  and  C_13
REMARK    4  A    between atoms: C_13  and  C_14
REMARK    5  A    between atoms: C_14  and  C_20
REMARK                            x       y       z     vdW  Elec       q    Type
REMARK                         _______ _______ _______ _____ _____    ______ ____
ROOT
ATOM      1  C   UNL     1      -2.996   1.702   3.432  0.00  0.00    +0.117 C 
ENDROOT
BRANCH   1  10
ATOM      2  C   UNL     1       0.695  -0.607   1.231  0.00  0.00    +0.077 C 
ATOM      3  C   UNL     1       0.829  -2.119   1.026  0.00  0.00    +0.022 C 
ATOM      4  C   UNL     1       1.375  -2.757   2.305  0.00  0.00    +0.003 C 
ATOM      5  C   UNL     1       0.398  -2.511   3.457  0.00  0.00    +0.019 C 
ATOM      6  C   UNL     1       0.259  -1.004   3.690  0.00  0.00    +0.109 C 
ATOM      7  N   UNL     1      -0.124  -0.360   2.425  0.00  0.00    -0.283 N 
ATOM      8  C   UNL     1      -1.208   0.439   2.361  0.00  0.00    +0.302 C 
ATOM      9  O   UNL     1      -1.576   0.880   1.290  0.00  0.00    -0.253 OA
ATOM     10  N   UNL     1      -1.885   0.748   3.485  0.00  0.00    -0.298 N 
ATOM     11  H   UNL     1      -1.636   0.339   4.329  0.00  0.00    +0.150 HD
BRANCH   2  13
ATOM     12  C   UNL     1       0.877  -0.239  -1.233  0.00  0.00    +0.006 C 
ATOM     13  C   UNL     1       0.022   0.019   0.008  0.00  0.00    +0.019 C 
ENDBRANCH   2  13
ENDBRANCH   1  10
BRANCH   1  14
ATOM     14  C   UNL     1      -3.506   1.968   4.850  0.00  0.00    +0.016 C 
ATOM     15  C   UNL     1      -4.738   2.877   4.788  0.00  0.00    +0.041 C 
ATOM     16  C   UNL     1      -4.337   4.228   4.189  0.00  0.00    +0.160 C 
ATOM     17  O   UNL     1      -3.295   4.806   4.978  0.00  0.00    -0.380 OA
ATOM     18  C   UNL     1      -2.101   4.023   5.033  0.00  0.00    +0.160 C 
ATOM     19  C   UNL     1      -2.413   2.664   5.666  0.00  0.00    +0.041 C 
BRANCH  14  20
ATOM     20  C   UNL     1      -3.873   0.663   5.508  0.00  0.00    -0.037 A 
ATOM     21  C   UNL     1      -3.314   0.322   6.726  0.00  0.00    +0.004 A 
ATOM     22  C   UNL     1      -3.650  -0.875   7.330  0.00  0.00    +0.003 A 
ATOM     23  C   UNL     1      -4.544  -1.732   6.718  0.00  0.00    +0.038 A 
ATOM     24  C   UNL     1      -5.104  -1.392   5.498  0.00  0.00    +0.124 A 
ATOM     25  C   UNL     1      -4.772  -0.190   4.896  0.00  0.00    +0.042 A 
ATOM     26  F   UNL     1      -5.977  -2.230   4.898  0.00  0.00    -0.205 F 
ENDBRANCH  14  20
ENDBRANCH   1  14
TORSDOF 4
