REMARK  Name = ZINC35552363
REMARK  10 active torsions:
REMARK  status: ('A' for Active; 'I' for Inactive)
REMARK    1  A    between atoms: C_1  and  C_2
REMARK    2  A    between atoms: C_2  and  C_3
REMARK    3  A    between atoms: C_3  and  C_4
REMARK    4  A    between atoms: C_4  and  C_5
REMARK    5  A    between atoms: C_5  and  C_6
REMARK    6  A    between atoms: C_6  and  N_7
REMARK    7  A    between atoms: C_8  and  C_10
REMARK    8  A    between atoms: C_10  and  C_11
REMARK    9  A    between atoms: C_11  and  C_13
REMARK   10  A    between atoms: C_11  and  C_21
REMARK                            x       y       z     vdW  Elec       q    Type
REMARK                         _______ _______ _______ _____ _____    ______ ____
ROOT
ATOM      1  C   UNL     1       3.027  -7.861  -5.208  0.00  0.00    +0.060 C 
ENDROOT
BRANCH   1   2
ATOM      2  C   UNL     1       3.622  -8.348  -6.504  0.00  0.00    -0.015 A 
ATOM      3  C   UNL     1       4.857  -8.091  -6.962  0.00  0.00    +0.087 A 
ATOM      4  N   UNL     1       5.042  -8.701  -8.172  0.00  0.00    -0.360 N 
ATOM      5  H   UNL     1       5.856  -8.660  -8.699  0.00  0.00    +0.165 HD
ATOM      6  C   UNL     1       3.901  -9.383  -8.532  0.00  0.00    +0.047 A 
ATOM      7  C   UNL     1       2.964  -9.197  -7.500  0.00  0.00    +0.003 A 
ATOM      8  C   UNL     1       1.701  -9.786  -7.591  0.00  0.00    +0.010 A 
ATOM      9  C   UNL     1       1.384 -10.545  -8.682  0.00  0.00    +0.001 A 
ATOM     10  C   UNL     1       2.307 -10.735  -9.702  0.00  0.00    +0.002 A 
ATOM     11  C   UNL     1       3.555 -10.155  -9.636  0.00  0.00    +0.026 A 
ENDBRANCH   1   2
BRANCH   1  12
ATOM     12  C   UNL     1       3.860  -8.358  -4.054  0.00  0.00    -0.038 A 
ATOM     13  C   UNL     1       5.192  -8.002  -3.960  0.00  0.00    +0.006 A 
ATOM     14  C   UNL     1       5.957  -8.458  -2.903  0.00  0.00    +0.022 A 
ATOM     15  C   UNL     1       5.389  -9.271  -1.938  0.00  0.00    +0.059 A 
ATOM     16  C   UNL     1       4.055  -9.628  -2.033  0.00  0.00    +0.060 A 
ATOM     17  C   UNL     1       3.289  -9.166  -3.089  0.00  0.00    +0.025 A 
ATOM     18 CL   UNL     1       3.341 -10.648  -0.824  0.00  0.00    -0.082 Cl
ATOM     19 CL   UNL     1       6.350  -9.844  -0.611  0.00  0.00    -0.082 Cl
ENDBRANCH   1  12
BRANCH   1  20
ATOM     20  C   UNL     1       3.006  -6.331  -5.199  0.00  0.00    +0.108 C 
BRANCH  20  22
ATOM     21  N   UNL     1       2.162  -4.523  -3.738  0.00  0.00    -0.315 N 
ATOM     22  C   UNL     1       2.301  -5.845  -3.959  0.00  0.00    +0.214 C 
ATOM     23  O   UNL     1       1.858  -6.644  -3.161  0.00  0.00    -0.276 OA
ATOM     24  H   UNL     1       2.515  -3.884  -4.376  0.00  0.00    +0.149 HD
BRANCH  21  25
ATOM     25  C   UNL     1       1.476  -4.051  -2.532  0.00  0.00    +0.104 C 
BRANCH  25  26
ATOM     26  C   UNL     1       1.455  -2.521  -2.524  0.00  0.00    +0.019 C 
BRANCH  26  27
ATOM     27  C   UNL     1       0.739  -2.027  -1.265  0.00  0.00    +0.002 C 
BRANCH  27  28
ATOM     28  C   UNL     1       0.718  -0.497  -1.257  0.00  0.00    -0.000 C 
BRANCH  28  30
ATOM     29  C   UNL     1      -0.019   1.526   0.010  0.00  0.00    +0.004 C 
ATOM     30  C   UNL     1       0.002  -0.004   0.002  0.00  0.00    -0.003 C 
ENDBRANCH  28  30
ENDBRANCH  27  28
ENDBRANCH  26  27
ENDBRANCH  25  26
ENDBRANCH  21  25
ENDBRANCH  20  22
ENDBRANCH   1  20
TORSDOF 9
