REMARK  Name = ZINC41584641
REMARK  5 active torsions:
REMARK  status: ('A' for Active; 'I' for Inactive)
REMARK    1  A    between atoms: C_3  and  C_7
REMARK    2  A    between atoms: N_13  and  C_14
REMARK    3  A    between atoms: C_14  and  C_15
REMARK    4  A    between atoms: C_16  and  O_34
REMARK    5  A    between atoms: C_23  and  C_24
REMARK                            x       y       z     vdW  Elec       q    Type
REMARK                         _______ _______ _______ _____ _____    ______ ____
ROOT
ATOM      1  C   UNL     1       5.030   0.394   3.007  0.00  0.00    +0.020 A 
ATOM      2  C   UNL     1       4.858  -0.980   3.071  0.00  0.00    +0.122 A 
ATOM      3  C   UNL     1       5.678  -1.759   3.882  0.00  0.00    +0.046 A 
ATOM      4  C   UNL     1       6.665  -1.174   4.624  0.00  0.00    +0.019 A 
ATOM      5  C   UNL     1       6.850   0.207   4.569  0.00  0.00    +0.068 A 
ATOM      6  C   UNL     1       6.032   1.004   3.751  0.00  0.00    +0.144 A 
ATOM      7  O   UNL     1       6.403   2.298   3.857  0.00  0.00    -0.451 OA
ATOM      8  C   UNL     1       7.446   2.455   4.706  0.00  0.00    +0.176 C 
ATOM      9  C   UNL     1       8.050   3.627   5.027  0.00  0.00    +0.058 C 
ATOM     10  C   UNL     1       7.798   1.125   5.228  0.00  0.00    +0.231 C 
ATOM     11  O   UNL     1       8.683   0.843   6.016  0.00  0.00    -0.283 OA
ENDROOT
BRANCH   9  12
ATOM     12  C   UNL     1       7.650   4.868   4.349  0.00  0.00    -0.020 A 
ATOM     13  C   UNL     1       8.360   6.053   4.577  0.00  0.00    +0.009 A 
ATOM     14  C   UNL     1       7.980   7.214   3.938  0.00  0.00    +0.022 A 
ATOM     15  C   UNL     1       6.899   7.210   3.072  0.00  0.00    +0.059 A 
ATOM     16  C   UNL     1       6.191   6.041   2.840  0.00  0.00    +0.060 A 
ATOM     17  C   UNL     1       6.563   4.870   3.468  0.00  0.00    +0.029 A 
ATOM     18 CL   UNL     1       4.838   6.048   1.753  0.00  0.00    -0.082 Cl
ATOM     19 CL   UNL     1       6.428   8.678   2.272  0.00  0.00    -0.082 Cl
ENDBRANCH   9  12
BRANCH   2  20
ATOM     20  O   UNL     1       3.880  -1.570   2.337  0.00  0.00    -0.506 OA
ATOM     21  H   UNL     1       4.162  -1.843   1.454  0.00  0.00    +0.292 HD
ENDBRANCH   2  20
BRANCH   1  22
ATOM     22  C   UNL     1       4.134   1.225   2.125  0.00  0.00    -0.035 C 
BRANCH  22  28
ATOM     23  C   UNL     1       3.798   2.037  -0.105  0.00  0.00    -0.036 C 
ATOM     24  C   UNL     1       4.375   2.077  -1.522  0.00  0.00    -0.011 C 
ATOM     25  C   UNL     1       5.720   2.808  -1.499  0.00  0.00    -0.003 C 
ATOM     26  C   UNL     1       6.655   2.106  -0.511  0.00  0.00    -0.019 C 
ATOM     27  C   UNL     1       5.994   2.065   0.868  0.00  0.00    -0.078 C 
ATOM     28  N   UNL     1       4.726   1.330   0.785  0.00  0.00    +0.387 N 
ATOM     29  H   UNL     1       4.898   0.404   0.422  0.00  0.00    -0.080 HD
BRANCH  23  32
ATOM     30  C   UNL     1       0.091   1.330  -0.139  0.00  0.00    +0.020 A 
ATOM     31  C   UNL     1       1.286   2.034  -0.123  0.00  0.00    +0.005 A 
ATOM     32  C   UNL     1       2.474   1.318  -0.122  0.00  0.00    -0.043 A 
ATOM     33  C   UNL     1       2.427  -0.063  -0.138  0.00  0.00    +0.112 A 
ATOM     34  N   UNL     1       1.272  -0.699  -0.154  0.00  0.00    -0.263 NA
ATOM     35  C   UNL     1       0.124  -0.051  -0.155  0.00  0.00    +0.111 A 
ENDBRANCH  23  32
ENDBRANCH  22  28
ENDBRANCH   1  22
TORSDOF 5
