REMARK  Name = ZINC23436911
REMARK  9 active torsions:
REMARK  status: ('A' for Active; 'I' for Inactive)
REMARK    1  A    between atoms: C_1  and  C_2
REMARK    2  A    between atoms: C_2  and  C_3
REMARK    3  A    between atoms: C_3  and  C_4
REMARK    4  A    between atoms: C_4  and  N_5
REMARK    5  A    between atoms: N_5  and  C_6
REMARK    6  A    between atoms: C_6  and  C_7
REMARK    7  A    between atoms: C_13  and  C_15
REMARK    8  A    between atoms: C_18  and  N_21
REMARK    9  A    between atoms: N_21  and  N_22
REMARK                            x       y       z     vdW  Elec       q    Type
REMARK                         _______ _______ _______ _____ _____    ______ ____
ROOT
ATOM      1  C   UNL     1       2.199   0.463  -0.289  0.00  0.00    +0.037 A 
ATOM      2  C   UNL     1       1.169   0.143  -1.179  0.00  0.00    +0.015 A 
ATOM      3  C   UNL     1       0.106   1.003  -1.337  0.00  0.00    +0.025 A 
ATOM      4  C   UNL     1       0.056   2.190  -0.613  0.00  0.00    +0.048 A 
ATOM      5  C   UNL     1       1.079   2.512   0.274  0.00  0.00    +0.025 A 
ATOM      6  C   UNL     1       2.145   1.656   0.437  0.00  0.00    +0.015 A 
ENDROOT
BRANCH   1   8
ATOM      7  N   UNL     1       4.599   0.025  -0.107  0.00  0.00    -0.293 N 
ATOM      8  C   UNL     1       3.340  -0.457  -0.117  0.00  0.00    +0.247 C 
ATOM      9  O   UNL     1       3.144  -1.649   0.017  0.00  0.00    -0.270 OA
BRANCH   7  10
ATOM     10  C   UNL     1       4.830   1.471  -0.138  0.00  0.00    +0.108 C 
BRANCH  10  11
ATOM     11  C   UNL     1       5.088   1.977   1.282  0.00  0.00    +0.019 C 
BRANCH  11  13
ATOM     12  C   UNL     1       5.452   4.009   2.690  0.00  0.00    +0.004 C 
ATOM     13  C   UNL     1       5.194   3.503   1.269  0.00  0.00    -0.002 C 
ENDBRANCH  11  13
ENDBRANCH  10  11
ENDBRANCH   7  10
BRANCH   7  14
ATOM     14  C   UNL     1       5.736  -0.898  -0.066  0.00  0.00    +0.143 C 
BRANCH  14  15
ATOM     15  C   UNL     1       6.149  -1.248  -1.472  0.00  0.00    -0.030 A 
ATOM     16  C   UNL     1       5.589  -2.342  -2.105  0.00  0.00    +0.005 A 
ATOM     17  C   UNL     1       5.964  -2.661  -3.397  0.00  0.00    +0.000 A 
ATOM     18  C   UNL     1       6.908  -1.892  -4.052  0.00  0.00    +0.000 A 
ATOM     19  C   UNL     1       7.473  -0.801  -3.417  0.00  0.00    +0.000 A 
ATOM     20  C   UNL     1       7.093  -0.480  -2.127  0.00  0.00    +0.005 A 
ENDBRANCH  14  15
ENDBRANCH   7  14
ENDBRANCH   1   8
BRANCH   4  21
ATOM     21  N   UNL     1      -1.017   3.060  -0.779  0.00  0.00    -0.237 N 
ATOM     22  H   UNL     1      -1.824   2.809  -1.483  0.00  0.00    +0.174 HD
BRANCH  21  23
ATOM     23  N   UNL     1      -1.065   4.161  -0.109  0.00  0.00    -0.177 NA
ATOM     24  C   UNL     1      -2.079   4.982  -0.266  0.00  0.00    +0.152 C 
ATOM     25  C   UNL     1      -2.301   6.280   0.412  0.00  0.00    +0.029 A 
ATOM     26  C   UNL     1      -1.577   6.996   1.359  0.00  0.00    +0.027 A 
ATOM     27  C   UNL     1      -2.056   8.210   1.813  0.00  0.00    +0.019 A 
ATOM     28  C   UNL     1      -3.252   8.710   1.325  0.00  0.00    +0.017 A 
ATOM     29  C   UNL     1      -3.978   8.006   0.386  0.00  0.00    +0.025 A 
ATOM     30  C   UNL     1      -3.512   6.782  -0.083  0.00  0.00    +0.043 A 
ATOM     31  N   UNL     1      -4.035   5.886  -1.008  0.00  0.00    -0.280 N 
ATOM     32  C   UNL     1      -3.237   4.816  -1.161  0.00  0.00    +0.269 C 
ATOM     33  O   UNL     1      -3.437   3.874  -1.906  0.00  0.00    -0.268 OA
ATOM     34 BR   UNL     1      -1.077   9.190   3.100  0.00  0.00    -0.050 Br
ATOM     35  H   UNL     1      -4.991   6.106  -1.506  0.00  0.00    +0.155 HD
ENDBRANCH  21  23
ENDBRANCH   4  21
TORSDOF 8
