REMARK  Name = ZINC06803785
REMARK  8 active torsions:
REMARK  status: ('A' for Active; 'I' for Inactive)
REMARK    1  A    between atoms: C_7  and  C_21
REMARK    2  A    between atoms: C_8  and  C_18
REMARK    3  A    between atoms: N_9  and  C_10
REMARK    4  A    between atoms: C_10  and  C_11
REMARK    5  A    between atoms: C_21  and  N_22
REMARK    6  A    between atoms: N_22  and  C_23
REMARK    7  A    between atoms: C_23  and  C_24
REMARK    8  A    between atoms: C_24  and  C_25
REMARK                            x       y       z     vdW  Elec       q    Type
REMARK                         _______ _______ _______ _____ _____    ______ ____
ROOT
ATOM      1  C   UNL     1      -0.016   1.360   0.009  0.00  0.00    +0.001 A 
ATOM      2  C   UNL     1       1.170   2.084   0.002  0.00  0.00    +0.002 A 
ATOM      3  C   UNL     1       2.386   1.439  -0.013  0.00  0.00    +0.026 A 
ATOM      4  C   UNL     1       2.431   0.047  -0.021  0.00  0.00    +0.050 A 
ATOM      5  C   UNL     1       1.227  -0.685  -0.013  0.00  0.00    +0.002 A 
ATOM      6  C   UNL     1       0.002  -0.004   0.002  0.00  0.00    +0.010 A 
ATOM      7  C   UNL     1       1.577  -2.055  -0.025  0.00  0.00    -0.025 A 
ATOM      8  C   UNL     1       2.935  -2.137  -0.038  0.00  0.00    +0.134 A 
ATOM      9  N   UNL     1       3.464  -0.859  -0.036  0.00  0.00    -0.330 N 
ENDROOT
BRANCH   8  10
ATOM     10  C   UNL     1       3.713  -3.379  -0.053  0.00  0.00    +0.403 C 
ATOM     11  O   UNL     1       4.936  -3.336  -0.065  0.00  0.00    -0.239 OA
ATOM     12  O   UNL     1       3.139  -4.461  -0.054  0.00  0.00    -0.239 OA
ENDBRANCH   8  10
BRANCH   9  13
ATOM     13  C   UNL     1       4.891  -0.526  -0.049  0.00  0.00    +0.157 C 
BRANCH  13  14
ATOM     14  C   UNL     1       5.394  -0.420   1.367  0.00  0.00    -0.028 A 
ATOM     15  C   UNL     1       5.348   0.794   2.028  0.00  0.00    +0.007 A 
ATOM     16  C   UNL     1       5.810   0.892   3.327  0.00  0.00    +0.020 A 
ATOM     17  C   UNL     1       6.318  -0.224   3.966  0.00  0.00    +0.041 A 
ATOM     18  C   UNL     1       6.364  -1.438   3.305  0.00  0.00    +0.020 A 
ATOM     19  C   UNL     1       5.897  -1.537   2.008  0.00  0.00    +0.007 A 
ATOM     20 CL   UNL     1       6.899  -0.101   5.598  0.00  0.00    -0.084 Cl
ENDBRANCH  13  14
ENDBRANCH   9  13
BRANCH   7  21
ATOM     21  C   UNL     1       0.617  -3.217  -0.022  0.00  0.00    -0.044 C 
BRANCH  21  22
ATOM     22  N   UNL     1       0.291  -3.587  -1.406  0.00  0.00    +0.382 N 
ATOM     23  H   UNL     1      -0.134  -2.800  -1.873  0.00  0.00    -0.085 HD
ATOM     24  H   UNL     1       1.136  -3.850  -1.891  0.00  0.00    -0.085 HD
BRANCH  22  25
ATOM     25  C   UNL     1      -0.644  -4.719  -1.403  0.00  0.00    -0.078 C 
BRANCH  25  26
ATOM     26  C   UNL     1      -0.983  -5.104  -2.845  0.00  0.00    +0.011 C 
BRANCH  26  27
ATOM     27  C   UNL     1      -1.943  -6.266  -2.842  0.00  0.00    -0.075 C 
ATOM     28  C   UNL     1      -3.208  -6.008  -2.933  0.00  0.00    -0.028 C 
ATOM     29  C   UNL     1      -4.282  -7.056  -2.933  0.00  0.00    +0.027 C 
ATOM     30  C   UNL     1      -3.679  -8.429  -3.238  0.00  0.00    +0.004 C 
ATOM     31  C   UNL     1      -2.465  -8.640  -2.324  0.00  0.00    +0.005 C 
ATOM     32  C   UNL     1      -1.372  -7.650  -2.740  0.00  0.00    +0.030 C 
ENDBRANCH  26  27
ENDBRANCH  25  26
ENDBRANCH  22  25
ENDBRANCH  21  22
ENDBRANCH   7  21
TORSDOF 8
