REMARK  Name = ZINC67582679
REMARK  8 active torsions:
REMARK  status: ('A' for Active; 'I' for Inactive)
REMARK    1  A    between atoms: C_1  and  C_2
REMARK    2  A    between atoms: C_2  and  C_4
REMARK    3  A    between atoms: C_2  and  N_12
REMARK    4  A    between atoms: N_15  and  C_16
REMARK    5  A    between atoms: N_15  and  C_17
REMARK    6  A    between atoms: C_17  and  C_19
REMARK    7  A    between atoms: C_17  and  C_20
REMARK    8  A    between atoms: C_24  and  O_26
REMARK                            x       y       z     vdW  Elec       q    Type
REMARK                         _______ _______ _______ _____ _____    ______ ____
ROOT
ATOM      1  N   UNL     1       0.583  -0.637  -1.546  0.00  0.00    -0.293 N 
ATOM      2  C   UNL     1       1.918  -0.649  -1.367  0.00  0.00    +0.303 C 
ATOM      3  O   UNL     1       2.393  -0.276  -0.311  0.00  0.00    -0.253 OA
ATOM      4  N   UNL     1       2.728  -1.074  -2.357  0.00  0.00    -0.282 N 
ATOM      5  C   UNL     1       2.155  -1.523  -3.628  0.00  0.00    +0.134 C 
ATOM      6  H   UNL     1       0.204  -0.934  -2.388  0.00  0.00    +0.151 HD
ENDROOT
BRANCH   1   8
ATOM      7  C   UNL     1      -0.422   1.349  -0.532  0.00  0.00    +0.033 C 
ATOM      8  C   UNL     1      -0.297  -0.174  -0.469  0.00  0.00    +0.102 C 
BRANCH   8   9
ATOM      9  C   UNL     1      -1.659  -0.797  -0.631  0.00  0.00    -0.026 A 
ATOM     10  C   UNL     1      -2.211  -0.934  -1.892  0.00  0.00    +0.007 A 
ATOM     11  C   UNL     1      -3.461  -1.505  -2.042  0.00  0.00    +0.022 A 
ATOM     12  C   UNL     1      -4.160  -1.940  -0.930  0.00  0.00    +0.059 A 
ATOM     13  C   UNL     1      -3.608  -1.804   0.332  0.00  0.00    +0.060 A 
ATOM     14  C   UNL     1      -2.354  -1.236   0.479  0.00  0.00    +0.027 A 
ATOM     15 CL   UNL     1      -4.484  -2.349   1.728  0.00  0.00    -0.082 Cl
ATOM     16 CL   UNL     1      -5.730  -2.657  -1.118  0.00  0.00    -0.082 Cl
ENDBRANCH   8   9
ENDBRANCH   1   8
BRANCH   4  17
ATOM     17  C   UNL     1       4.179  -1.087  -2.162  0.00  0.00    +0.104 C 
ATOM     18  C   UNL     1       4.834  -0.109  -3.139  0.00  0.00    +0.033 C 
BRANCH  17  19
ATOM     19  C   UNL     1       4.707  -2.476  -2.412  0.00  0.00    -0.024 A 
ATOM     20  C   UNL     1       5.987  -2.650  -2.908  0.00  0.00    +0.006 A 
ATOM     21  C   UNL     1       6.474  -3.923  -3.138  0.00  0.00    +0.004 A 
ATOM     22  C   UNL     1       5.683  -5.025  -2.875  0.00  0.00    +0.045 A 
ATOM     23  C   UNL     1       4.399  -4.853  -2.378  0.00  0.00    +0.117 A 
ATOM     24  C   UNL     1       3.915  -3.575  -2.142  0.00  0.00    +0.050 A 
BRANCH  23  25
ATOM     25  O   UNL     1       3.619  -5.936  -2.119  0.00  0.00    -0.507 OA
ATOM     26  H   UNL     1       3.709  -6.278  -1.219  0.00  0.00    +0.292 HD
ENDBRANCH  23  25
ENDBRANCH  17  19
ENDBRANCH   4  17
TORSDOF 5
