REMARK  Name = ZINC02461106
REMARK  6 active torsions:
REMARK  status: ('A' for Active; 'I' for Inactive)
REMARK    1  A    between atoms: C_3  and  C_6
REMARK    2  A    between atoms: C_8  and  S_16
REMARK    3  A    between atoms: C_9  and  S_11
REMARK    4  A    between atoms: S_11  and  C_12
REMARK    5  A    between atoms: C_12  and  C_13
REMARK    6  A    between atoms: S_16  and  C_19
REMARK                            x       y       z     vdW  Elec       q    Type
REMARK                         _______ _______ _______ _____ _____    ______ ____
ROOT
ATOM      1  C   UNL     1       3.566   0.618  -0.029  0.00  0.00    +0.266 A 
ATOM      2  N   UNL     1       4.307  -0.468  -0.047  0.00  0.00    -0.186 NA
ATOM      3  C   UNL     1       5.599  -0.108  -0.057  0.00  0.00    +0.234 A 
ATOM      4  C   UNL     1       5.651   1.246  -0.044  0.00  0.00    +0.208 A 
ATOM      5  O   UNL     1       4.379   1.694  -0.032  0.00  0.00    -0.424 OA
ENDROOT
BRANCH   1   8
ATOM      6  C   UNL     1      -0.016   1.344   0.009  0.00  0.00    +0.042 A 
ATOM      7  C   UNL     1       1.323   1.776  -0.001  0.00  0.00    +0.055 A 
ATOM      8  C   UNL     1       2.098   0.653  -0.015  0.00  0.00    +0.189 A 
ATOM      9  O   UNL     1       1.280  -0.418  -0.012  0.00  0.00    -0.458 OA
ATOM     10  C   UNL     1       0.002  -0.004   0.002  0.00  0.00    +0.196 A 
ENDBRANCH   1   8
BRANCH   3  11
ATOM     11  S   UNL     1       6.981  -1.201  -0.081  0.00  0.00    +0.046 S 
ATOM     12  O   UNL     1       8.077  -0.482   0.466  0.00  0.00    -0.163 OA
ATOM     13  O   UNL     1       6.532  -2.435   0.463  0.00  0.00    -0.163 OA
BRANCH  11  14
ATOM     14  C   UNL     1       7.373  -1.508  -1.771  0.00  0.00    +0.095 A 
ATOM     15  C   UNL     1       6.779  -2.565  -2.437  0.00  0.00    +0.028 A 
ATOM     16  C   UNL     1       7.086  -2.806  -3.763  0.00  0.00    +0.017 A 
ATOM     17  C   UNL     1       7.987  -1.990  -4.424  0.00  0.00    +0.018 A 
ATOM     18  C   UNL     1       8.581  -0.933  -3.757  0.00  0.00    +0.017 A 
ATOM     19  C   UNL     1       8.269  -0.690  -2.432  0.00  0.00    +0.028 A 
ATOM     20 BR   UNL     1       8.408  -2.320  -6.237  0.00  0.00    -0.050 Br
ENDBRANCH  11  14
ENDBRANCH   3  11
BRANCH   4  21
ATOM     21  S   UNL     1       7.109   2.237  -0.050  0.00  0.00    -0.075 S 
BRANCH  21  22
ATOM     22  C   UNL     1       6.482   3.939  -0.027  0.00  0.00    +0.173 C 
BRANCH  22  23
ATOM     23  C   UNL     1       7.643   4.901  -0.029  0.00  0.00    +0.221 C 
ATOM     24  O   UNL     1       8.780   4.480  -0.045  0.00  0.00    -0.275 OA
ATOM     25  N   UNL     1       7.416   6.229  -0.014  0.00  0.00    -0.329 N 
ATOM     26  H   UNL     1       6.507   6.566  -0.001  0.00  0.00    +0.145 HD
ATOM     27  H   UNL     1       8.163   6.849  -0.015  0.00  0.00    +0.145 HD
ENDBRANCH  22  23
ENDBRANCH  21  22
ENDBRANCH   4  21
TORSDOF 6
