REMARK  Name = ZINC47599395
REMARK  12 active torsions:
REMARK  status: ('A' for Active; 'I' for Inactive)
REMARK    1  A    between atoms: C_1  and  C_2
REMARK    2  A    between atoms: C_2  and  CA_3
REMARK    3  A    between atoms: CA_3  and  C_5
REMARK    4  A    between atoms: CA_3  and  N_7
REMARK    5  A    between atoms: C_5  and  O_6
REMARK    6  A    between atoms: N_10  and  C_11
REMARK    7  A    between atoms: C_11  and  C_12
REMARK    8  A    between atoms: C_12  and  C_14
REMARK    9  A    between atoms: C_12  and  C_23
REMARK   10  A    between atoms: C_17  and  N_20
REMARK   11  A    between atoms: N_20  and  C_21
REMARK   12  A    between atoms: N_20  and  C_22
REMARK                            x       y       z     vdW  Elec       q    Type
REMARK                         _______ _______ _______ _____ _____    ______ ____
ROOT
ATOM      1  C   UNL     1      -1.347   2.932  -5.884  0.00  0.00    +0.068 C 
ENDROOT
BRANCH   1   2
ATOM      2  C   UNL     1      -0.935   1.960  -6.960  0.00  0.00    -0.013 A 
ATOM      3  C   UNL     1       0.258   1.907  -7.574  0.00  0.00    +0.088 A 
ATOM      4  N   UNL     1       0.263   0.894  -8.494  0.00  0.00    -0.360 N 
ATOM      5  H   UNL     1       1.015   0.661  -9.061  0.00  0.00    +0.165 HD
ATOM      6  C   UNL     1      -0.957   0.256  -8.495  0.00  0.00    +0.047 A 
ATOM      7  C   UNL     1      -1.759   0.891  -7.530  0.00  0.00    +0.003 A 
ATOM      8  C   UNL     1      -3.062   0.447  -7.305  0.00  0.00    +0.010 A 
ATOM      9  C   UNL     1      -3.553  -0.608  -8.023  0.00  0.00    +0.001 A 
ATOM     10  C   UNL     1      -2.764  -1.241  -8.973  0.00  0.00    +0.002 A 
ATOM     11  C   UNL     1      -1.478  -0.813  -9.217  0.00  0.00    +0.026 A 
ENDBRANCH   1   2
BRANCH   1  12
ATOM     12  C   UNL     1      -1.257   4.339  -6.417  0.00  0.00    -0.038 A 
ATOM     13  C   UNL     1      -0.046   4.829  -6.872  0.00  0.00    +0.006 A 
ATOM     14  C   UNL     1       0.040   6.117  -7.361  0.00  0.00    +0.023 A 
ATOM     15  C   UNL     1      -1.092   6.922  -7.395  0.00  0.00    +0.029 A 
ATOM     16  C   UNL     1      -2.307   6.427  -6.937  0.00  0.00    +0.023 A 
ATOM     17  C   UNL     1      -2.387   5.136  -6.455  0.00  0.00    +0.006 A 
BRANCH  15  18
ATOM     18  N   UNL     1      -1.009   8.226  -7.889  0.00  0.00    -0.336 N 
ATOM     19  C   UNL     1       0.293   8.790  -8.253  0.00  0.00    +0.129 C 
ATOM     20  C   UNL     1      -2.224   9.030  -8.041  0.00  0.00    +0.129 C 
ENDBRANCH  15  18
ENDBRANCH   1  12
BRANCH   1  21
ATOM     21  C   UNL     1      -0.416   2.783  -4.679  0.00  0.00    +0.118 C 
BRANCH  21  25
ATOM     22  N   UNL     1      -0.030  -0.126  -2.464  0.00  0.00    -0.294 N 
ATOM     23  C   UNL     1       0.131   1.096  -3.008  0.00  0.00    +0.300 C 
ATOM     24  O   UNL     1       0.927   1.877  -2.523  0.00  0.00    -0.253 OA
ATOM     25  N   UNL     1      -0.591   1.454  -4.088  0.00  0.00    -0.299 N 
ATOM     26  H   UNL     1      -0.666  -0.749  -2.851  0.00  0.00    +0.151 HD
ATOM     27  H   UNL     1      -1.227   0.832  -4.475  0.00  0.00    +0.150 HD
BRANCH  22  28
ATOM     28  CA  UNL     1       0.754  -0.515  -1.290  0.00  0.00    +0.099 C 
BRANCH  28  30
ATOM     29  C   UNL     1       0.040   1.509  -0.011  0.00  0.00    +0.006 C 
ATOM     30  C   UNL     1       0.054  -0.021  -0.022  0.00  0.00    +0.021 C 
ENDBRANCH  28  30
BRANCH  28  31
ATOM     31  C   UNL     1       0.879  -2.039  -1.242  0.00  0.00    +0.178 C 
BRANCH  31  32
ATOM     32  O   UNL     1      -0.412  -2.617  -1.042  0.00  0.00    -0.393 OA
ATOM     33  H   UNL     1      -0.409  -3.583  -1.001  0.00  0.00    +0.209 HD
ENDBRANCH  31  32
ENDBRANCH  28  31
ENDBRANCH  22  28
ENDBRANCH  21  25
ENDBRANCH   1  21
TORSDOF 9
