REMARK  Name = ZINC21233546
REMARK  9 active torsions:
REMARK  status: ('A' for Active; 'I' for Inactive)
REMARK    1  A    between atoms: C_1  and  C_2
REMARK    2  A    between atoms: C_11  and  N_31
REMARK    3  A    between atoms: C_13  and  S_15
REMARK    4  A    between atoms: S_15  and  C_16
REMARK    5  A    between atoms: C_16  and  C_18
REMARK    6  A    between atoms: C_16  and  C_19
REMARK    7  A    between atoms: N_21  and  C_22
REMARK    8  A    between atoms: C_25  and  C_28
REMARK    9  A    between atoms: C_28  and  C_30
REMARK                            x       y       z     vdW  Elec       q    Type
REMARK                         _______ _______ _______ _____ _____    ______ ____
ROOT
ATOM      1  C   UNL     1       5.045  -0.290  -9.142  0.00  0.00    +0.008 C 
ATOM      2  C   UNL     1       4.209  -0.014  -7.891  0.00  0.00    -0.009 C 
ATOM      3  C   UNL     1       3.811  -1.340  -7.237  0.00  0.00    +0.008 C 
ATOM      4  C   UNL     1       2.779  -1.087  -6.137  0.00  0.00    +0.037 C 
ATOM      5  C   UNL     1       3.320  -0.020  -5.189  0.00  0.00    -0.025 A 
ATOM      6  C   UNL     1       4.325   0.793  -5.569  0.00  0.00    -0.004 A 
ATOM      7  S   UNL     1       4.618   1.851  -4.177  0.00  0.00    -0.073 S 
ATOM      8  C   UNL     1       3.385   1.197  -3.082  0.00  0.00    +0.115 A 
ATOM      9  C   UNL     1       2.784   0.172  -3.839  0.00  0.00    +0.051 A 
ATOM     10  C   UNL     1       1.736  -0.537  -3.189  0.00  0.00    +0.129 A 
ATOM     11  N   UNL     1       1.399  -0.204  -1.955  0.00  0.00    -0.207 NA
ATOM     12  C   UNL     1       2.007   0.775  -1.296  0.00  0.00    +0.192 A 
ATOM     13  N   UNL     1       2.987   1.474  -1.855  0.00  0.00    -0.214 NA
ATOM     14  C   UNL     1       5.039   0.799  -6.887  0.00  0.00    +0.046 C 
ENDROOT
BRANCH  10  15
ATOM     15  N   UNL     1       1.078  -1.564  -3.841  0.00  0.00    -0.343 N 
ATOM     16  H   UNL     1       0.268  -2.109  -3.333  0.00  0.00    +0.144 HD
ATOM     17  H   UNL     1       1.363  -1.836  -4.868  0.00  0.00    +0.144 HD
ENDBRANCH  10  15
BRANCH  12  18
ATOM     18  S   UNL     1       1.500   1.159   0.346  0.00  0.00    -0.073 S 
BRANCH  18  19
ATOM     19  C   UNL     1       0.182  -0.063   0.561  0.00  0.00    +0.137 C 
ATOM     20  C   UNL     1      -0.960   0.241  -0.411  0.00  0.00    +0.029 C 
BRANCH  19  21
ATOM     21  C   UNL     1      -0.334  -0.002   1.976  0.00  0.00    +0.230 C 
ATOM     22  O   UNL     1      -0.223   1.021   2.619  0.00  0.00    -0.274 OA
ATOM     23  N   UNL     1      -0.920  -1.083   2.527  0.00  0.00    -0.285 N 
ATOM     24  H   UNL     1      -0.953  -2.033   1.973  0.00  0.00    +0.155 HD
BRANCH  23  25
ATOM     25  C   UNL     1      -1.483  -0.998   3.799  0.00  0.00    +0.033 A 
ATOM     26  C   UNL     1      -2.648  -1.702   4.090  0.00  0.00    +0.024 A 
ATOM     27  C   UNL     1      -3.203  -1.626   5.341  0.00  0.00    +0.013 A 
ATOM     28  C   UNL     1      -2.603  -0.829   6.324  0.00  0.00    +0.017 A 
ATOM     29  C   UNL     1      -1.433  -0.118   6.025  0.00  0.00    +0.013 A 
ATOM     30  C   UNL     1      -0.882  -0.205   4.772  0.00  0.00    +0.024 A 
BRANCH  28  31
ATOM     31  C   UNL     1      -3.196  -0.740   7.664  0.00  0.00    +0.160 C 
ATOM     32  O   UNL     1      -2.622  -0.132   8.542  0.00  0.00    -0.292 OA
ATOM     33  C   UNL     1      -4.519  -1.403   7.948  0.00  0.00    +0.091 C 
ENDBRANCH  28  31
ENDBRANCH  23  25
ENDBRANCH  19  21
ENDBRANCH  18  19
ENDBRANCH  12  18
TORSDOF 6
