REMARK  Name = ZINC45723595
REMARK  4 active torsions:
REMARK  status: ('A' for Active; 'I' for Inactive)
REMARK    1  A    between atoms: C_4  and  N_11
REMARK    2  A    between atoms: C_5  and  C_7
REMARK    3  A    between atoms: C_7  and  C_8
REMARK    4  A    between atoms: C_19  and  C_21
REMARK                            x       y       z     vdW  Elec       q    Type
REMARK                         _______ _______ _______ _____ _____    ______ ____
ROOT
ATOM      1  N   UNL     1       3.846  -0.587   1.037  0.00  0.00    -0.269 N 
ATOM      2  C   UNL     1       4.923   0.078   0.576  0.00  0.00    +0.307 C 
ATOM      3  O   UNL     1       4.918   1.294   0.541  0.00  0.00    -0.252 OA
ATOM      4  N   UNL     1       6.007  -0.603   0.155  0.00  0.00    -0.276 N 
ATOM      5  C   UNL     1       5.996  -2.072   0.108  0.00  0.00    +0.110 C 
ATOM      6  C   UNL     1       6.398  -2.523  -1.300  0.00  0.00    +0.019 C 
ATOM      7  C   UNL     1       7.742  -1.893  -1.669  0.00  0.00    +0.004 C 
ATOM      8  C   UNL     1       7.609  -0.368  -1.671  0.00  0.00    +0.029 C 
ATOM      9  C   UNL     1       7.219   0.108  -0.273  0.00  0.00    +0.133 C 
ATOM     10  H   UNL     1       3.875  -1.552   1.131  0.00  0.00    +0.156 HD
ENDROOT
BRANCH   9  11
ATOM     11  C   UNL     1       6.951   1.591  -0.303  0.00  0.00    +0.100 A 
ATOM     12  N   UNL     1       6.157   2.241  -1.102  0.00  0.00    -0.242 NA
ATOM     13  C   UNL     1       6.001   3.579  -1.028  0.00  0.00    +0.079 A 
ATOM     14  C   UNL     1       5.195   4.441  -1.802  0.00  0.00    +0.029 A 
ATOM     15  C   UNL     1       5.184   5.780  -1.560  0.00  0.00    +0.002 A 
ATOM     16  C   UNL     1       5.956   6.345  -0.554  0.00  0.00    +0.001 A 
ATOM     17  C   UNL     1       6.758   5.532   0.225  0.00  0.00    +0.017 A 
ATOM     18  C   UNL     1       6.777   4.179  -0.011  0.00  0.00    +0.039 A 
ATOM     19  S   UNL     1       7.605   2.778   0.695  0.00  0.00    -0.070 S 
ENDBRANCH   9  11
BRANCH   1  23
ATOM     20  C   UNL     1       0.388   1.501   2.059  0.00  0.00    +0.000 A 
ATOM     21  C   UNL     1       1.621   2.122   2.147  0.00  0.00    +0.002 A 
ATOM     22  C   UNL     1       2.769   1.433   1.809  0.00  0.00    +0.023 A 
ATOM     23  C   UNL     1       2.685   0.114   1.381  0.00  0.00    +0.038 A 
ATOM     24  C   UNL     1       1.446  -0.507   1.294  0.00  0.00    -0.017 A 
ATOM     25  C   UNL     1       0.301   0.188   1.634  0.00  0.00    +0.006 A 
BRANCH  24  26
ATOM     26  C   UNL     1       1.350  -1.938   0.830  0.00  0.00    +0.132 C 
BRANCH  26  27
ATOM     27  C   UNL     1       1.569  -2.861   2.001  0.00  0.00    +0.215 C 
ATOM     28  O   UNL     1       1.783  -2.403   3.103  0.00  0.00    -0.276 OA
ATOM     29  N   UNL     1       1.529  -4.197   1.822  0.00  0.00    -0.329 N 
ATOM     30  H   UNL     1       1.358  -4.563   0.940  0.00  0.00    +0.145 HD
ATOM     31  H   UNL     1       1.670  -4.791   2.575  0.00  0.00    +0.145 HD
ENDBRANCH  26  27
ENDBRANCH  24  26
ENDBRANCH   1  23
TORSDOF 4
