REMARK  Name = ZINC32666038
REMARK  4 active torsions:
REMARK  status: ('A' for Active; 'I' for Inactive)
REMARK    1  A    between atoms: C_7  and  O_11
REMARK    2  A    between atoms: O_11  and  C_12
REMARK    3  A    between atoms: C_12  and  C_14
REMARK    4  A    between atoms: C_20  and  C_22
REMARK                            x       y       z     vdW  Elec       q    Type
REMARK                         _______ _______ _______ _____ _____    ______ ____
ROOT
ATOM      1  C   UNL     1      -0.157  -3.998   0.088  0.00  0.00    +0.185 C 
ATOM      2  C   UNL     1       0.348  -4.465  -1.294  0.00  0.00    +0.035 C 
ATOM      3  C   UNL     1      -0.609  -5.638  -1.635  0.00  0.00    +0.021 C 
ATOM      4  C   UNL     1      -1.942  -5.139  -1.024  0.00  0.00    +0.109 C 
ATOM      5  N   UNL     1      -1.552  -4.444   0.220  0.00  0.00    -0.288 N 
ATOM      6  C   UNL     1      -2.340  -4.250   1.296  0.00  0.00    +0.222 C 
ATOM      7  O   UNL     1      -1.937  -3.592   2.231  0.00  0.00    -0.275 OA
ENDROOT
BRANCH   6   8
ATOM      8  C   UNL     1      -3.721  -4.851   1.336  0.00  0.00    +0.048 C 
ATOM      9  C   UNL     1      -3.614  -6.377   1.320  0.00  0.00    +0.019 C 
ATOM     10  C   UNL     1      -5.016  -6.987   1.361  0.00  0.00    -0.009 C 
ATOM     11  C   UNL     1      -5.730  -6.539   2.638  0.00  0.00    +0.007 C 
ATOM     12  C   UNL     1      -5.838  -5.013   2.654  0.00  0.00    -0.009 C 
ATOM     13  C   UNL     1      -4.435  -4.403   2.613  0.00  0.00    +0.019 C 
ATOM     14  C   UNL     1      -6.633  -4.545   1.434  0.00  0.00    +0.007 C 
ATOM     15  C   UNL     1      -5.919  -4.993   0.157  0.00  0.00    -0.009 C 
ATOM     16  C   UNL     1      -5.812  -6.519   0.141  0.00  0.00    +0.007 C 
ATOM     17  C   UNL     1      -4.517  -4.383   0.116  0.00  0.00    +0.019 C 
ENDBRANCH   6   8
BRANCH   1  18
ATOM     18  C   UNL     1      -0.088  -2.495   0.177  0.00  0.00    +0.333 C 
ATOM     19  O   UNL     1      -1.099  -1.853   0.341  0.00  0.00    -0.248 OA
BRANCH  18  20
ATOM     20  O   UNL     1       1.095  -1.870   0.075  0.00  0.00    -0.422 OA
BRANCH  20  27
ATOM     21  C   UNL     1       1.147   1.031   4.122  0.00  0.00    +0.020 A 
ATOM     22  C   UNL     1       1.141   1.915   3.080  0.00  0.00    +0.013 A 
ATOM     23  C   UNL     1       1.126   1.398   1.772  0.00  0.00    +0.022 A 
ATOM     24  C   UNL     1       1.118   2.245   0.650  0.00  0.00    +0.050 A 
ATOM     25  C   UNL     1       1.104   1.708  -0.602  0.00  0.00    +0.024 A 
ATOM     26  C   UNL     1       1.096   0.328  -0.788  0.00  0.00    +0.050 A 
ATOM     27  C   UNL     1       1.103  -0.526   0.277  0.00  0.00    +0.158 A 
ATOM     28  C   UNL     1       1.118  -0.007   1.588  0.00  0.00    +0.115 A 
ATOM     29  N   UNL     1       1.125  -0.817   2.651  0.00  0.00    -0.251 NA
ATOM     30  C   UNL     1       1.138  -0.339   3.872  0.00  0.00    +0.111 A 
ATOM     31 CL   UNL     1       1.127   3.969   0.860  0.00  0.00    -0.083 Cl
ENDBRANCH  20  27
ENDBRANCH  18  20
ENDBRANCH   1  18
TORSDOF 4
