REMARK  Name = ZINC64519989
REMARK  5 active torsions:
REMARK  status: ('A' for Active; 'I' for Inactive)
REMARK    1  A    between atoms: C_1  and  C_2
REMARK    2  A    between atoms: N_5  and  C_8
REMARK    3  A    between atoms: C_11  and  C_14
REMARK    4  A    between atoms: C_17  and  C_21
REMARK    5  A    between atoms: C_29  and  C_31
REMARK                            x       y       z     vdW  Elec       q    Type
REMARK                         _______ _______ _______ _____ _____    ______ ____
ROOT
ATOM      1  C   UNL     1      -0.740  -8.132   1.654  0.00  0.00    +0.180 C 
ATOM      2  N   UNL     1      -0.729  -8.486   3.093  0.00  0.00    -0.262 NA
ATOM      3  C   UNL     1       0.011  -9.774   3.140  0.00  0.00    +0.298 C 
ATOM      4  O   UNL     1       1.048  -9.599   2.148  0.00  0.00    -0.270 OA
ATOM      5  N   UNL     1       0.400  -8.854   1.051  0.00  0.00    -0.177 NA
ATOM      6  H   UNL     1      -0.258  -7.779   3.637  0.00  0.00    +0.127 HD
ATOM      7  H   UNL     1       1.047  -8.212   0.618  0.00  0.00    +0.156 HD
ENDROOT
BRANCH   3   8
ATOM      8  C   UNL     1       0.610  -9.994   4.506  0.00  0.00    +0.262 C 
ATOM      9  O   UNL     1       0.172 -10.865   5.227  0.00  0.00    -0.271 OA
ATOM     10  N   UNL     1       1.632  -9.222   4.926  0.00  0.00    -0.295 N 
ATOM     11  C   UNL     1       2.093  -8.086   4.115  0.00  0.00    +0.127 C 
ATOM     12  C   UNL     1       2.051  -6.819   4.978  0.00  0.00    +0.127 C 
ATOM     13  N   UNL     1       2.723  -7.098   6.255  0.00  0.00    -0.297 N 
ATOM     14  C   UNL     1       2.262  -8.233   7.065  0.00  0.00    +0.127 C 
ATOM     15  C   UNL     1       2.300  -9.497   6.205  0.00  0.00    +0.127 C 
ATOM     16  C   UNL     1       3.745  -6.326   6.675  0.00  0.00    +0.242 C 
ATOM     17  O   UNL     1       4.117  -5.391   5.997  0.00  0.00    -0.273 OA
BRANCH  16  18
ATOM     18  C   UNL     1       4.425  -6.624   7.986  0.00  0.00    +0.190 C 
ATOM     19  C   UNL     1       3.442  -6.482   9.127  0.00  0.00    +0.016 C 
ATOM     20  C   UNL     1       3.932  -5.506   9.925  0.00  0.00    -0.004 A 
ATOM     21  C   UNL     1       3.449  -4.907  11.175  0.00  0.00    +0.010 A 
ATOM     22  C   UNL     1       4.174  -3.924  11.755  0.00  0.00    +0.001 A 
ATOM     23  C   UNL     1       5.372  -3.462  11.192  0.00  0.00    +0.002 A 
ATOM     24  C   UNL     1       5.880  -3.963  10.046  0.00  0.00    +0.026 A 
ATOM     25  C   UNL     1       5.200  -5.001   9.352  0.00  0.00    +0.043 A 
ATOM     26  N   UNL     1       5.484  -5.641   8.242  0.00  0.00    -0.370 N 
ATOM     27  H   UNL     1       6.263  -5.490   7.683  0.00  0.00    +0.161 HD
ENDBRANCH  16  18
ENDBRANCH   3   8
BRANCH   1  31
ATOM     28  C   UNL     1      -0.239  -3.917   1.170  0.00  0.00    +0.013 A 
ATOM     29  C   UNL     1       0.241  -4.785   0.207  0.00  0.00    +0.022 A 
ATOM     30  C   UNL     1       0.079  -6.149   0.364  0.00  0.00    +0.008 A 
ATOM     31  C   UNL     1      -0.563  -6.645   1.484  0.00  0.00    -0.014 A 
ATOM     32  C   UNL     1      -1.042  -5.777   2.447  0.00  0.00    +0.008 A 
ATOM     33  C   UNL     1      -0.876  -4.413   2.292  0.00  0.00    +0.022 A 
BRANCH  28  38
ATOM     34  C   UNL     1       0.951   1.339  -0.469  0.00  0.00    +0.007 C 
ATOM     35  C   UNL     1       0.835  -0.185  -0.413  0.00  0.00    -0.011 C 
ATOM     36  C   UNL     1      -0.643  -0.585  -0.355  0.00  0.00    +0.020 C 
ATOM     37  C   UNL     1      -0.750  -2.105  -0.218  0.00  0.00    +0.085 C 
ATOM     38  N   UNL     1      -0.075  -2.538   1.012  0.00  0.00    -0.393 NA
ATOM     39  C   UNL     1       1.356  -2.223   0.933  0.00  0.00    +0.085 C 
ATOM     40  C   UNL     1       1.544  -0.707   0.841  0.00  0.00    +0.020 C 
ATOM     41  H   UNL     1      -0.481  -2.060   1.802  0.00  0.00    +0.126 HD
ENDBRANCH  28  38
ENDBRANCH   1  31
TORSDOF 4
