REMARK  Name = ZINC09210270
REMARK  7 active torsions:
REMARK  status: ('A' for Active; 'I' for Inactive)
REMARK    1  A    between atoms: C_1  and  C_2
REMARK    2  A    between atoms: C_2  and  C_3
REMARK    3  A    between atoms: C_3  and  C_4
REMARK    4  A    between atoms: C_11  and  N_33
REMARK    5  A    between atoms: C_12  and  C_31
REMARK    6  A    between atoms: N_20  and  C_23
REMARK    7  A    between atoms: C_23  and  C_24
REMARK                            x       y       z     vdW  Elec       q    Type
REMARK                         _______ _______ _______ _____ _____    ______ ____
ROOT
ATOM      1  C   UNL     1       0.683  -1.921  -1.597  0.00  0.00    +0.071 A 
ATOM      2  C   UNL     1       1.556  -2.831  -1.018  0.00  0.00    +0.061 A 
ATOM      3  C   UNL     1       1.132  -4.091  -1.345  0.00  0.00    +0.223 A 
ATOM      4  N   UNL     1       0.032  -3.964  -2.102  0.00  0.00    -0.246 N 
ATOM      5  H   UNL     1      -0.487  -4.690  -2.481  0.00  0.00    +0.192 HD
ATOM      6  N   UNL     1      -0.237  -2.594  -2.245  0.00  0.00    -0.176 NA
ATOM      7  O   UNL     1       1.777  -5.209  -0.928  0.00  0.00    -0.423 OA
ATOM      8  C   UNL     1       2.703  -5.079   0.043  0.00  0.00    +0.201 C 
ATOM      9  C   UNL     1       3.209  -3.890   0.445  0.00  0.00    +0.110 C 
ATOM     10  C   UNL     1       2.774  -2.589  -0.171  0.00  0.00    +0.145 C 
ATOM     11  C   UNL     1       3.876  -1.968  -0.969  0.00  0.00    -0.001 A 
ATOM     12  C   UNL     1       4.570  -2.414  -2.072  0.00  0.00    +0.007 A 
ATOM     13  C   UNL     1       5.554  -1.574  -2.581  0.00  0.00    +0.000 A 
ATOM     14  C   UNL     1       5.821  -0.349  -2.005  0.00  0.00    +0.002 A 
ATOM     15  C   UNL     1       5.128   0.106  -0.894  0.00  0.00    +0.024 A 
ATOM     16  C   UNL     1       4.138  -0.728  -0.373  0.00  0.00    +0.041 A 
ATOM     17  N   UNL     1       3.305  -0.530   0.714  0.00  0.00    -0.265 N 
ATOM     18  C   UNL     1       2.470  -1.573   0.908  0.00  0.00    +0.241 C 
ATOM     19  O   UNL     1       1.636  -1.676   1.782  0.00  0.00    -0.274 OA
ENDROOT
BRANCH   8  20
ATOM     20  N   UNL     1       3.159  -6.218   0.660  0.00  0.00    -0.328 N 
ATOM     21  H   UNL     1       2.815  -7.085   0.393  0.00  0.00    +0.145 HD
ATOM     22  H   UNL     1       3.825  -6.156   1.362  0.00  0.00    +0.145 HD
ENDBRANCH   8  20
BRANCH   9  23
ATOM     23  C   UNL     1       4.189  -3.869   1.489  0.00  0.00    +0.102 C 
ATOM     24  N   UNL     1       4.966  -3.853   2.317  0.00  0.00    -0.191 NA
ENDBRANCH   9  23
BRANCH   1  25
ATOM     25  C   UNL     1       0.773  -0.420  -1.493  0.00  0.00    +0.057 C 
BRANCH  25  27
ATOM     26  C   UNL     1      -0.152   1.599  -0.348  0.00  0.00    +0.004 C 
ATOM     27  C   UNL     1      -0.140   0.069  -0.367  0.00  0.00    +0.003 C 
ENDBRANCH  25  27
ENDBRANCH   1  25
BRANCH  17  28
ATOM     28  C   UNL     1       3.325   0.670   1.554  0.00  0.00    +0.148 C 
BRANCH  28  29
ATOM     29  C   UNL     1       4.268   0.457   2.711  0.00  0.00    -0.030 A 
ATOM     30  C   UNL     1       3.812  -0.136   3.873  0.00  0.00    +0.006 A 
ATOM     31  C   UNL     1       4.675  -0.332   4.934  0.00  0.00    +0.020 A 
ATOM     32  C   UNL     1       5.996   0.066   4.833  0.00  0.00    +0.041 A 
ATOM     33  C   UNL     1       6.452   0.659   3.669  0.00  0.00    +0.020 A 
ATOM     34  C   UNL     1       5.589   0.849   2.607  0.00  0.00    +0.006 A 
ATOM     35 CL   UNL     1       7.082  -0.179   6.166  0.00  0.00    -0.084 Cl
ENDBRANCH  28  29
ENDBRANCH  17  28
TORSDOF 6
