REMARK  Name = ZINC13014479
REMARK  4 active torsions:
REMARK  status: ('A' for Active; 'I' for Inactive)
REMARK    1  A    between atoms: C_3  and  C_6
REMARK    2  A    between atoms: C_6  and  C_8
REMARK    3  A    between atoms: C_6  and  N_17
REMARK    4  A    between atoms: C_21  and  N_24
REMARK                            x       y       z     vdW  Elec       q    Type
REMARK                         _______ _______ _______ _____ _____    ______ ____
ROOT
ATOM      1  C   UNL     1      -6.113   3.371   0.050  0.00  0.00    +0.139 C 
ENDROOT
BRANCH   1   2
ATOM      2  C   UNL     1      -7.164   4.262   0.660  0.00  0.00    -0.022 A 
ATOM      3  C   UNL     1      -7.174   5.615   0.376  0.00  0.00    +0.006 A 
ATOM      4  C   UNL     1      -8.138   6.430   0.936  0.00  0.00    +0.004 A 
ATOM      5  C   UNL     1      -9.096   5.896   1.782  0.00  0.00    -0.044 A 
ATOM      6  C   UNL     1      -9.086   4.544   2.067  0.00  0.00    -0.044 A 
ATOM      7  C   UNL     1      -8.121   3.727   1.500  0.00  0.00    +0.009 A 
ATOM      8  C   UNL     1     -10.223   4.210   3.008  0.00  0.00    +0.036 C 
ATOM      9  C   UNL     1     -11.186   5.414   2.920  0.00  0.00    +0.009 C 
ATOM     10  C   UNL     1     -10.241   6.564   2.512  0.00  0.00    +0.036 C 
ENDBRANCH   1   2
BRANCH   1  11
ATOM     11  N   UNL     1      -4.824   4.066   0.048  0.00  0.00    -0.318 N 
ATOM     12  C   UNL     1      -3.641   3.337   0.038  0.00  0.00    +0.120 A 
ATOM     13  C   UNL     1      -3.688   1.946   0.031  0.00  0.00    +0.046 A 
ATOM     14  C   UNL     1      -2.503   1.233   0.021  0.00  0.00    +0.037 A 
ATOM     15  C   UNL     1      -1.306   1.936   0.019  0.00  0.00    +0.144 A 
ATOM     16  C   UNL     1      -1.333   3.316   0.032  0.00  0.00    +0.145 A 
ATOM     17  N   UNL     1      -2.479   3.971   0.036  0.00  0.00    -0.238 NA
ATOM     18  H   UNL     1      -4.792   5.166   0.054  0.00  0.00    +0.148 HD
BRANCH  15  19
ATOM     19  N   UNL     1      -0.014   1.214   0.009  0.00  0.00    +0.058 N 
ATOM     20  O   UNL     1       0.002  -0.004   0.002  0.00  0.00    -0.126 OA
ATOM     21  O   UNL     1       1.032   1.837   0.002  0.00  0.00    -0.126 OA
ENDBRANCH  15  19
ENDBRANCH   1  11
BRANCH   1  24
ATOM     22  C   UNL     1      -7.354   1.811  -3.197  0.00  0.00    +0.008 A 
ATOM     23  C   UNL     1      -7.083   1.903  -1.845  0.00  0.00    +0.013 A 
ATOM     24  C   UNL     1      -6.503   3.031  -1.366  0.00  0.00    +0.014 A 
ATOM     25  S   UNL     1      -6.328   4.014  -2.846  0.00  0.00    -0.099 S 
ATOM     26  C   UNL     1      -7.031   2.851  -4.004  0.00  0.00    +0.045 A 
ENDBRANCH   1  24
TORSDOF 4
