REMARK  Name = ZINC36579464
REMARK  16 active torsions:
REMARK  status: ('A' for Active; 'I' for Inactive)
REMARK    1  A    between atoms: C_1  and  C_2
REMARK    2  A    between atoms: C_2  and  C_3
REMARK    3  A    between atoms: C_3  and  C_4
REMARK    4  A    between atoms: C_4  and  N_5
REMARK    5  A    between atoms: C_6  and  C_8
REMARK    6  A    between atoms: C_8  and  C_10
REMARK    7  A    between atoms: C_8  and  N_17
REMARK    8  A    between atoms: C_15  and  O_16
REMARK    9  A    between atoms: N_17  and  C_36
REMARK   10  A    between atoms: C_18  and  C_20
REMARK   11  A    between atoms: C_26  and  O_28
REMARK   12  A    between atoms: O_28  and  C_29
REMARK   13  A    between atoms: C_29  and  C_30
REMARK   14  A    between atoms: C_36  and  C_37
REMARK   15  A    between atoms: C_36  and  C_38
REMARK   16  A    between atoms: C_36  and  C_39
REMARK                            x       y       z     vdW  Elec       q    Type
REMARK                         _______ _______ _______ _____ _____    ______ ____
ROOT
ATOM      1  N   UNL     1       2.610  -5.846  -3.492  0.00  0.00    -0.279 N 
ATOM      2  C   UNL     1       2.533  -6.564  -4.630  0.00  0.00    +0.238 C 
ATOM      3  O   UNL     1       2.348  -6.003  -5.689  0.00  0.00    -0.274 OA
ENDROOT
BRANCH   2   4
ATOM      4  C   UNL     1       2.676  -8.063  -4.587  0.00  0.00    +0.165 C 
ATOM      5  C   UNL     1       4.123  -8.463  -4.947  0.00  0.00    +0.033 C 
ATOM      6  C   UNL     1       3.928  -9.745  -5.798  0.00  0.00    +0.021 C 
ATOM      7  C   UNL     1       2.619  -9.417  -6.559  0.00  0.00    +0.112 C 
ATOM      8  N   UNL     1       1.789  -8.680  -5.583  0.00  0.00    -0.256 N 
ATOM      9  C   UNL     1       0.445  -8.586  -5.603  0.00  0.00    +0.404 C 
ATOM     10  O   UNL     1      -0.133  -7.949  -4.744  0.00  0.00    -0.226 OA
BRANCH   9  11
ATOM     11  O   UNL     1      -0.259  -9.199  -6.573  0.00  0.00    -0.445 OA
BRANCH  11  12
ATOM     12  C   UNL     1      -1.681  -9.058  -6.532  0.00  0.00    +0.269 C 
BRANCH  12  13
ATOM     13  C   UNL     1      -2.293  -9.806  -7.688  0.00  0.00    -0.010 A 
ATOM     14  C   UNL     1      -2.491  -9.167  -8.898  0.00  0.00    +0.007 A 
ATOM     15  C   UNL     1      -3.054  -9.853  -9.958  0.00  0.00    +0.000 A 
ATOM     16  C   UNL     1      -3.417 -11.178  -9.809  0.00  0.00    +0.000 A 
ATOM     17  C   UNL     1      -3.218 -11.818  -8.600  0.00  0.00    +0.000 A 
ATOM     18  C   UNL     1      -2.652 -11.133  -7.540  0.00  0.00    +0.007 A 
ENDBRANCH  12  13
ENDBRANCH  11  12
ENDBRANCH   9  11
ENDBRANCH   2   4
BRANCH   1  19
ATOM     19  C   UNL     1       2.905  -6.515  -2.223  0.00  0.00    +0.030 C 
ATOM     20  C   UNL     1       1.707  -7.371  -1.807  0.00  0.00    +0.031 C 
ATOM     21  C   UNL     1       4.136  -7.409  -2.391  0.00  0.00    +0.031 C 
ATOM     22  C   UNL     1       3.181  -5.465  -1.145  0.00  0.00    +0.031 C 
ENDBRANCH   1  19
BRANCH   1  23
ATOM     23  C   UNL     1       2.399  -4.397  -3.524  0.00  0.00    +0.196 C 
BRANCH  23  24
ATOM     24  C   UNL     1       1.105  -4.093  -4.234  0.00  0.00    +0.023 A 
ATOM     25  C   UNL     1       1.123  -3.526  -5.494  0.00  0.00    +0.009 A 
ATOM     26  C   UNL     1      -0.064  -3.247  -6.145  0.00  0.00    +0.001 A 
ATOM     27  C   UNL     1      -1.272  -3.534  -5.537  0.00  0.00    +0.004 A 
ATOM     28  C   UNL     1      -1.296  -4.101  -4.278  0.00  0.00    +0.046 A 
ATOM     29  C   UNL     1      -0.106  -4.387  -3.624  0.00  0.00    +0.122 A 
BRANCH  29  30
ATOM     30  O   UNL     1      -0.127  -4.950  -2.388  0.00  0.00    -0.506 OA
ATOM     31  H   UNL     1      -0.222  -4.312  -1.667  0.00  0.00    +0.292 HD
ENDBRANCH  29  30
ENDBRANCH  23  24
BRANCH  23  33
ATOM     32  N   UNL     1       3.703  -2.403  -4.190  0.00  0.00    -0.313 N 
ATOM     33  C   UNL     1       3.540  -3.739  -4.257  0.00  0.00    +0.238 C 
ATOM     34  O   UNL     1       4.311  -4.412  -4.908  0.00  0.00    -0.273 OA
ATOM     35  H   UNL     1       3.047  -1.857  -3.731  0.00  0.00    +0.149 HD
BRANCH  32  36
ATOM     36  C   UNL     1       4.872  -1.776  -4.812  0.00  0.00    +0.104 C 
BRANCH  36  37
ATOM     37  C   UNL     1       4.816  -0.263  -4.592  0.00  0.00    +0.018 C 
BRANCH  37  39
ATOM     38  C   UNL     1       5.981   1.905  -5.022  0.00  0.00    +0.004 C 
ATOM     39  C   UNL     1       6.037   0.392  -5.242  0.00  0.00    -0.002 C 
ENDBRANCH  37  39
ENDBRANCH  36  37
ENDBRANCH  32  36
ENDBRANCH  23  33
ENDBRANCH   1  23
TORSDOF 12
