REMARK  Name = ZINC39362617
REMARK  10 active torsions:
REMARK  status: ('A' for Active; 'I' for Inactive)
REMARK    1  A    between atoms: C_1  and  C_2
REMARK    2  A    between atoms: C_2  and  O_3
REMARK    3  A    between atoms: O_3  and  C_4
REMARK    4  A    between atoms: C_7  and  N_10
REMARK    5  A    between atoms: C_11  and  C_25
REMARK    6  A    between atoms: C_15  and  S_16
REMARK    7  A    between atoms: S_16  and  C_17
REMARK    8  A    between atoms: C_17  and  C_18
REMARK    9  A    between atoms: C_22  and  C_24
REMARK   10  A    between atoms: C_25  and  C_26
REMARK                            x       y       z     vdW  Elec       q    Type
REMARK                         _______ _______ _______ _____ _____    ______ ____
ROOT
ATOM      1  N   UNL     1       1.135  -5.956   1.754  0.00  0.00    -0.258 N 
ATOM      2  C   UNL     1       1.875  -6.671   2.808  0.00  0.00    +0.187 C 
ATOM      3  N   UNL     1       1.659  -8.093   2.490  0.00  0.00    -0.246 N 
ATOM      4  N   UNL     1       0.857  -8.119   1.343  0.00  0.00    -0.162 NA
ATOM      5  C   UNL     1       0.566  -6.927   0.943  0.00  0.00    +0.180 C 
ATOM      6  H   UNL     1       2.003  -8.857   2.978  0.00  0.00    +0.170 HD
ENDROOT
BRANCH   1  10
ATOM      7  C   UNL     1       0.803  -1.825   1.306  0.00  0.00    +0.121 A 
ATOM      8  C   UNL     1      -0.315  -2.579   1.632  0.00  0.00    +0.047 A 
ATOM      9  C   UNL     1      -0.206  -3.948   1.780  0.00  0.00    +0.027 A 
ATOM     10  C   UNL     1       1.024  -4.569   1.603  0.00  0.00    +0.038 A 
ATOM     11  C   UNL     1       2.142  -3.813   1.277  0.00  0.00    +0.027 A 
ATOM     12  C   UNL     1       2.030  -2.446   1.124  0.00  0.00    +0.047 A 
BRANCH   7  13
ATOM     13  O   UNL     1       0.695  -0.477   1.160  0.00  0.00    -0.492 OA
BRANCH  13  15
ATOM     14  C   UNL     1      -0.524   1.610   1.157  0.00  0.00    +0.048 C 
ATOM     15  C   UNL     1      -0.599   0.095   1.363  0.00  0.00    +0.225 C 
ENDBRANCH  13  15
ENDBRANCH   7  13
ENDBRANCH   1  10
BRANCH   5  16
ATOM     16  S   UNL     1      -0.431  -6.575  -0.467  0.00  0.00    -0.084 S 
BRANCH  16  17
ATOM     17  C   UNL     1      -0.879  -8.212  -1.108  0.00  0.00    +0.112 C 
BRANCH  17  18
ATOM     18  C   UNL     1      -1.744  -8.053  -2.332  0.00  0.00    -0.037 A 
ATOM     19  C   UNL     1      -3.118  -7.978  -2.201  0.00  0.00    +0.004 A 
ATOM     20  C   UNL     1      -3.912  -7.832  -3.324  0.00  0.00    +0.001 A 
ATOM     21  C   UNL     1      -3.331  -7.761  -4.577  0.00  0.00    +0.003 A 
ATOM     22  C   UNL     1      -1.957  -7.836  -4.706  0.00  0.00    -0.050 A 
ATOM     23  C   UNL     1      -1.163  -7.977  -3.583  0.00  0.00    +0.007 A 
ATOM     24  C   UNL     1      -1.324  -7.759  -6.072  0.00  0.00    +0.044 C 
ENDBRANCH  17  18
ENDBRANCH  16  17
ENDBRANCH   5  16
BRANCH   2  25
ATOM     25  C   UNL     1       1.306  -6.333   4.187  0.00  0.00    +0.097 C 
BRANCH  25  26
ATOM     26  C   UNL     1       2.154  -6.977   5.253  0.00  0.00    +0.029 A 
ATOM     27  N   UNL     1       1.929  -8.276   5.618  0.00  0.00    -0.311 N 
ATOM     28  C   UNL     1       2.681  -8.861   6.568  0.00  0.00    +0.327 A 
ATOM     29  O   UNL     1       2.464 -10.016   6.878  0.00  0.00    -0.247 OA
ATOM     30  N   UNL     1       3.671  -8.185   7.180  0.00  0.00    -0.275 N 
ATOM     31  C   UNL     1       3.925  -6.903   6.848  0.00  0.00    +0.254 A 
ATOM     32  O   UNL     1       4.821  -6.290   7.401  0.00  0.00    -0.268 OA
ATOM     33  C   UNL     1       3.144  -6.277   5.847  0.00  0.00    +0.091 A 
ATOM     34  H   UNL     1       4.204  -8.621   7.863  0.00  0.00    +0.173 HD
ATOM     35  H   UNL     1       1.220  -8.780   5.189  0.00  0.00    +0.170 HD
ENDBRANCH  25  26
ENDBRANCH   2  25
TORSDOF 8
