REMARK  Name = ZINC16464160
REMARK  6 active torsions:
REMARK  status: ('A' for Active; 'I' for Inactive)
REMARK    1  A    between atoms: C_1  and  C_2
REMARK    2  A    between atoms: C_2  and  C_26
REMARK    3  A    between atoms: N_5  and  C_9
REMARK    4  A    between atoms: C_9  and  C_10
REMARK    5  A    between atoms: N_12  and  C_13
REMARK    6  A    between atoms: N_12  and  C_21
REMARK                            x       y       z     vdW  Elec       q    Type
REMARK                         _______ _______ _______ _____ _____    ______ ____
ROOT
ATOM      1  C   UNL     1      -0.021   1.526   0.005  0.00  0.00    +0.047 C 
ATOM      2  C   UNL     1       0.001  -0.004  -0.000  0.00  0.00    +0.135 C 
ATOM      3  C   UNL     1      -1.403  -0.558   0.136  0.00  0.00    +0.251 C 
ATOM      4  O   UNL     1      -2.332  -0.395  -0.626  0.00  0.00    -0.272 OA
ATOM      5  N   UNL     1      -1.405  -1.271   1.280  0.00  0.00    -0.215 N 
ATOM      6  C   UNL     1      -0.209  -1.244   1.879  0.00  0.00    +0.310 C 
ATOM      7  O   UNL     1       0.036  -1.814   2.925  0.00  0.00    -0.252 OA
ATOM      8  N   UNL     1       0.693  -0.517   1.195  0.00  0.00    -0.281 N 
ATOM      9  H   UNL     1       1.618  -0.361   1.441  0.00  0.00    +0.152 HD
ENDROOT
BRANCH   2  10
ATOM     10  C   UNL     1       0.658  -0.519  -1.255  0.00  0.00    -0.013 A 
ATOM     11  C   UNL     1      -0.105  -0.776  -2.379  0.00  0.00    +0.009 A 
ATOM     12  C   UNL     1       0.495  -1.248  -3.531  0.00  0.00    +0.041 A 
ATOM     13  C   UNL     1       1.863  -1.463  -3.560  0.00  0.00    +0.158 A 
ATOM     14  C   UNL     1       2.628  -1.204  -2.433  0.00  0.00    +0.159 A 
ATOM     15  C   UNL     1       2.024  -0.727  -1.283  0.00  0.00    +0.047 A 
ATOM     16  F   UNL     1       3.962  -1.414  -2.460  0.00  0.00    -0.202 F 
ATOM     17  F   UNL     1       2.450  -1.925  -4.686  0.00  0.00    -0.202 F 
ENDBRANCH   2  10
BRANCH   5  18
ATOM     18  C   UNL     1      -2.572  -1.985   1.803  0.00  0.00    +0.213 C 
BRANCH  18  19
ATOM     19  C   UNL     1      -2.585  -3.391   1.260  0.00  0.00    +0.234 C 
ATOM     20  O   UNL     1      -1.759  -3.732   0.440  0.00  0.00    -0.274 OA
ATOM     21  N   UNL     1      -3.514  -4.269   1.685  0.00  0.00    -0.292 N 
BRANCH  21  22
ATOM     22  C   UNL     1      -3.463  -5.664   1.239  0.00  0.00    +0.099 C 
ATOM     23  C   UNL     1      -3.564  -5.713  -0.294  0.00  0.00    +0.046 C 
ATOM     24  C   UNL     1      -3.195  -7.152  -0.758  0.00  0.00    +0.168 C 
ATOM     25  S   UNL     1      -1.778  -7.514   0.363  0.00  0.00    -0.029 S 
ATOM     26  O   UNL     1      -0.569  -7.147  -0.286  0.00  0.00    -0.174 OA
ATOM     27  O   UNL     1      -1.923  -8.830   0.880  0.00  0.00    -0.174 OA
ATOM     28  C   UNL     1      -2.131  -6.302   1.700  0.00  0.00    +0.188 C 
ENDBRANCH  21  22
BRANCH  21  29
ATOM     29  C   UNL     1      -4.576  -3.829   2.593  0.00  0.00    +0.076 C 
ATOM     30  C   UNL     1      -4.477  -4.592   3.931  0.00  0.00    +0.022 C 
ATOM     31  C   UNL     1      -5.951  -4.825   4.345  0.00  0.00    +0.002 C 
ATOM     32  C   UNL     1      -6.644  -5.122   2.992  0.00  0.00    +0.002 C 
ATOM     33  C   UNL     1      -5.954  -4.166   1.996  0.00  0.00    +0.022 C 
ENDBRANCH  21  29
ENDBRANCH  18  19
ENDBRANCH   5  18
TORSDOF 5
