REMARK  Name = ZINC39491734
REMARK  14 active torsions:
REMARK  status: ('A' for Active; 'I' for Inactive)
REMARK    1  A    between atoms: C_1  and  C_2
REMARK    2  A    between atoms: C_2  and  C_3
REMARK    3  A    between atoms: C_3  and  N_4
REMARK    4  A    between atoms: N_4  and  C_5
REMARK    5  A    between atoms: C_5  and  C_6
REMARK    6  A    between atoms: N_8  and  C_19
REMARK    7  A    between atoms: C_12  and  C_15
REMARK    8  A    between atoms: C_15  and  O_17
REMARK    9  A    between atoms: O_17  and  C_18
REMARK   10  A    between atoms: C_19  and  C_20
REMARK   11  A    between atoms: C_20  and  C_21
REMARK   12  A    between atoms: C_20  and  C_28
REMARK   13  A    between atoms: C_26  and  O_27
REMARK   14  A    between atoms: C_33  and  O_34
REMARK                            x       y       z     vdW  Elec       q    Type
REMARK                         _______ _______ _______ _____ _____    ______ ____
ROOT
ATOM      1  C   UNL     1       1.221  -4.130  -2.326  0.00  0.00    -0.039 A 
ATOM      2  C   UNL     1       2.325  -4.835  -2.036  0.00  0.00    +0.088 A 
ATOM      3  N   UNL     1       2.070  -6.174  -2.157  0.00  0.00    -0.346 N 
ATOM      4  C   UNL     1       0.764  -6.371  -2.538  0.00  0.00    +0.049 A 
ATOM      5  C   UNL     1       0.171  -5.098  -2.655  0.00  0.00    +0.002 A 
ATOM      6  C   UNL     1      -1.166  -4.985  -3.027  0.00  0.00    +0.025 A 
ATOM      7  C   UNL     1      -1.906  -6.138  -3.276  0.00  0.00    +0.060 A 
ATOM      8  C   UNL     1      -1.305  -7.399  -3.151  0.00  0.00    +0.017 A 
ATOM      9  C   UNL     1       0.007  -7.511  -2.796  0.00  0.00    +0.027 A 
ENDROOT
BRANCH   7  10
ATOM     10  C   UNL     1      -3.324  -6.033  -3.670  0.00  0.00    +0.339 C 
ATOM     11  O   UNL     1      -3.845  -4.941  -3.777  0.00  0.00    -0.245 OA
BRANCH  10  12
ATOM     12  O   UNL     1      -4.040  -7.149  -3.910  0.00  0.00    -0.464 OA
ATOM     13  C   UNL     1      -5.407  -6.973  -4.287  0.00  0.00    +0.280 C 
ENDBRANCH  10  12
ENDBRANCH   7  10
BRANCH   1  14
ATOM     14  C   UNL     1       1.085  -2.629  -2.312  0.00  0.00    -0.045 C 
BRANCH  14  15
ATOM     15  N   UNL     1       0.442  -2.208  -1.060  0.00  0.00    +0.382 N 
ATOM     16  H   UNL     1       1.006  -2.502  -0.277  0.00  0.00    -0.085 HD
ATOM     17  H   UNL     1      -0.472  -2.629  -0.993  0.00  0.00    -0.085 HD
BRANCH  15  18
ATOM     18  C   UNL     1       0.310  -0.745  -1.046  0.00  0.00    -0.082 C 
BRANCH  18  20
ATOM     19  C   UNL     1      -0.498   1.217   0.273  0.00  0.00    +0.002 C 
ATOM     20  C   UNL     1      -0.360  -0.306   0.258  0.00  0.00    -0.022 C 
ENDBRANCH  18  20
ENDBRANCH  15  18
ENDBRANCH  14  15
ENDBRANCH   1  14
BRANCH   3  21
ATOM     21  C   UNL     1       3.045  -7.241  -1.916  0.00  0.00    +0.135 C 
BRANCH  21  22
ATOM     22  C   UNL     1       3.692  -7.648  -3.241  0.00  0.00    +0.076 C 
BRANCH  22  23
ATOM     23  C   UNL     1       4.491  -6.493  -3.786  0.00  0.00    +0.003 A 
ATOM     24  C   UNL     1       5.450  -5.883  -3.000  0.00  0.00    +0.008 A 
ATOM     25  C   UNL     1       6.183  -4.823  -3.499  0.00  0.00    +0.001 A 
ATOM     26  C   UNL     1       5.960  -4.370  -4.786  0.00  0.00    +0.004 A 
ATOM     27  C   UNL     1       5.003  -4.976  -5.576  0.00  0.00    +0.046 A 
ATOM     28  C   UNL     1       4.269  -6.044  -5.080  0.00  0.00    +0.121 A 
BRANCH  28  29
ATOM     29  O   UNL     1       3.331  -6.645  -5.857  0.00  0.00    -0.506 OA
ATOM     30  H   UNL     1       2.449  -6.256  -5.782  0.00  0.00    +0.292 HD
ENDBRANCH  28  29
ENDBRANCH  22  23
BRANCH  22  31
ATOM     31  C   UNL     1       4.604  -8.827  -3.014  0.00  0.00    +0.003 A 
ATOM     32  C   UNL     1       5.587  -8.763  -2.045  0.00  0.00    +0.008 A 
ATOM     33  C   UNL     1       6.424  -9.844  -1.837  0.00  0.00    +0.001 A 
ATOM     34  C   UNL     1       6.279 -10.991  -2.596  0.00  0.00    +0.004 A 
ATOM     35  C   UNL     1       5.297 -11.059  -3.565  0.00  0.00    +0.046 A 
ATOM     36  C   UNL     1       4.452  -9.978  -3.773  0.00  0.00    +0.121 A 
BRANCH  36  37
ATOM     37  O   UNL     1       3.482 -10.045  -4.722  0.00  0.00    -0.506 OA
ATOM     38  H   UNL     1       3.765  -9.743  -5.596  0.00  0.00    +0.292 HD
ENDBRANCH  36  37
ENDBRANCH  22  31
ENDBRANCH  21  22
ENDBRANCH   3  21
TORSDOF 12
