REMARK  Name = ZINC66418277
REMARK  6 active torsions:
REMARK  status: ('A' for Active; 'I' for Inactive)
REMARK    1  A    between atoms: C_1  and  O_2
REMARK    2  A    between atoms: O_2  and  C_3
REMARK    3  A    between atoms: C_9  and  C_13
REMARK    4  A    between atoms: C_13  and  C_14
REMARK    5  A    between atoms: N_16  and  C_17
REMARK    6  A    between atoms: C_20  and  N_24
REMARK                            x       y       z     vdW  Elec       q    Type
REMARK                         _______ _______ _______ _____ _____    ______ ____
ROOT
ATOM      1  C   UNL     1      -1.590  -5.604   1.422  0.00  0.00    +0.222 C 
ATOM      2  O   UNL     1      -1.991  -4.926   2.344  0.00  0.00    -0.275 OA
ATOM      3  N   UNL     1      -0.765  -6.643   1.657  0.00  0.00    -0.285 N 
ATOM      4  H   UNL     1      -0.495  -7.223   0.928  0.00  0.00    +0.155 HD
ENDROOT
BRANCH   3   5
ATOM      5  C   UNL     1      -0.297  -6.885   2.955  0.00  0.00    +0.035 A 
ATOM      6  C   UNL     1       0.990  -7.370   3.150  0.00  0.00    +0.025 A 
ATOM      7  C   UNL     1       1.450  -7.610   4.429  0.00  0.00    +0.031 A 
ATOM      8  C   UNL     1       0.628  -7.366   5.521  0.00  0.00    +0.084 A 
ATOM      9  C   UNL     1      -0.659  -6.881   5.326  0.00  0.00    +0.068 A 
ATOM     10  C   UNL     1      -1.119  -6.636   4.046  0.00  0.00    +0.045 A 
ATOM     11 CL   UNL     1      -1.688  -6.576   6.691  0.00  0.00    -0.081 Cl
BRANCH   8  12
ATOM     12  N   UNL     1       1.097  -7.611   6.820  0.00  0.00    -0.238 N 
ATOM     13  C   UNL     1       2.271  -7.183   7.336  0.00  0.00    +0.114 A 
ATOM     14  C   UNL     1       2.346  -7.627   8.612  0.00  0.00    +0.041 A 
ATOM     15  C   UNL     1       1.180  -8.351   8.886  0.00  0.00    +0.135 A 
ATOM     16  N   UNL     1       0.428  -8.336   7.815  0.00  0.00    -0.175 NA
ENDBRANCH   8  12
ENDBRANCH   3   5
BRANCH   1  17
ATOM     17  C   UNL     1      -2.015  -5.284   0.012  0.00  0.00    +0.133 C 
BRANCH  17  24
ATOM     18  C   UNL     1      -1.245  -0.647  -0.012  0.00  0.00    +0.121 A 
ATOM     19  C   UNL     1      -2.425   0.092   0.003  0.00  0.00    +0.047 A 
ATOM     20  C   UNL     1      -3.648  -0.540   0.022  0.00  0.00    +0.030 A 
ATOM     21  C   UNL     1      -3.713  -1.930   0.027  0.00  0.00    +0.047 A 
ATOM     22  C   UNL     1      -2.523  -2.679   0.012  0.00  0.00    +0.007 A 
ATOM     23  C   UNL     1      -1.288  -2.027  -0.013  0.00  0.00    +0.056 A 
ATOM     24  C   UNL     1      -2.930  -4.086   0.022  0.00  0.00    -0.014 A 
ATOM     25  C   UNL     1      -4.272  -4.107   0.042  0.00  0.00    +0.087 A 
ATOM     26  N   UNL     1      -4.759  -2.829   0.045  0.00  0.00    -0.360 N 
ATOM     27  H   UNL     1      -5.699  -2.590   0.058  0.00  0.00    +0.165 HD
BRANCH  18  29
ATOM     28  C   UNL     1      -0.072   1.421  -0.030  0.00  0.00    +0.277 C 
ATOM     29  O   UNL     1      -0.045  -0.007  -0.032  0.00  0.00    -0.495 OA
ENDBRANCH  18  29
ENDBRANCH  17  24
ENDBRANCH   1  17
TORSDOF 5
