REMARK  Name = ZINC39945691
REMARK  7 active torsions:
REMARK  status: ('A' for Active; 'I' for Inactive)
REMARK    1  A    between atoms: C_1  and  C_2
REMARK    2  A    between atoms: C_2  and  C_4
REMARK    3  A    between atoms: C_2  and  S_14
REMARK    4  A    between atoms: N_6  and  C_7
REMARK    5  A    between atoms: S_14  and  C_15
REMARK    6  A    between atoms: C_19  and  C_28
REMARK    7  A    between atoms: N_20  and  C_21
REMARK                            x       y       z     vdW  Elec       q    Type
REMARK                         _______ _______ _______ _____ _____    ______ ____
ROOT
ATOM      1  C   UNL     1       1.933  -0.101  -1.559  0.00  0.00    +0.242 C 
ATOM      2  N   UNL     1       2.736  -0.855  -0.582  0.00  0.00    -0.237 N 
ATOM      3  N   UNL     1       3.452   0.092   0.160  0.00  0.00    -0.169 NA
ATOM      4  C   UNL     1       3.186   1.308  -0.240  0.00  0.00    +0.151 C 
ATOM      5  N   UNL     1       2.264   1.308  -1.294  0.00  0.00    -0.254 N 
ATOM      6  H   UNL     1       2.764  -1.819  -0.474  0.00  0.00    +0.171 HD
ENDROOT
BRANCH   4   7
ATOM      7  C   UNL     1       3.752   2.465   0.316  0.00  0.00    +0.022 C 
ATOM      8  C   UNL     1       4.740   2.533   1.299  0.00  0.00    +0.006 A 
ATOM      9  C   UNL     1       5.446   1.539   2.010  0.00  0.00    +0.010 A 
ATOM     10  C   UNL     1       6.375   1.902   2.932  0.00  0.00    +0.001 A 
ATOM     11  C   UNL     1       6.654   3.244   3.199  0.00  0.00    +0.002 A 
ATOM     12  C   UNL     1       6.014   4.250   2.554  0.00  0.00    +0.026 A 
ATOM     13  C   UNL     1       5.031   3.949   1.576  0.00  0.00    +0.043 A 
ATOM     14  N   UNL     1       4.281   4.729   0.823  0.00  0.00    -0.380 N 
ATOM     15  C   UNL     1       3.425   3.901  -0.031  0.00  0.00    +0.152 C 
ATOM     16  H   UNL     1       4.297   5.699   0.831  0.00  0.00    +0.160 HD
ENDBRANCH   4   7
BRANCH   5  17
ATOM     17  C   UNL     1       1.757   2.426  -1.964  0.00  0.00    +0.038 A 
ATOM     18  C   UNL     1       0.983   3.355  -1.280  0.00  0.00    +0.025 A 
ATOM     19  C   UNL     1       0.483   4.457  -1.944  0.00  0.00    +0.022 A 
ATOM     20  C   UNL     1       0.753   4.638  -3.290  0.00  0.00    +0.041 A 
ATOM     21  C   UNL     1       1.523   3.713  -3.973  0.00  0.00    +0.022 A 
ATOM     22  C   UNL     1       2.031   2.612  -3.313  0.00  0.00    +0.025 A 
ATOM     23 CL   UNL     1       0.122   6.025  -4.122  0.00  0.00    -0.084 Cl
ENDBRANCH   5  17
BRANCH   1  24
ATOM     24  S   UNL     1       0.164  -0.399  -1.289  0.00  0.00    -0.105 S 
BRANCH  24  26
ATOM     25  C   UNL     1       0.197   1.197   0.932  0.00  0.00    +0.029 C 
ATOM     26  C   UNL     1      -0.037  -0.255   0.508  0.00  0.00    +0.133 C 
BRANCH  26  27
ATOM     27  C   UNL     1      -1.433  -0.672   0.893  0.00  0.00    +0.230 C 
ATOM     28  O   UNL     1      -2.314  -0.680   0.060  0.00  0.00    -0.274 OA
ATOM     29  N   UNL     1      -1.702  -1.035   2.162  0.00  0.00    -0.285 N 
ATOM     30  H   UNL     1      -1.016  -0.960   2.844  0.00  0.00    +0.155 HD
BRANCH  29  31
ATOM     31  C   UNL     1      -2.970  -1.521   2.497  0.00  0.00    +0.035 A 
ATOM     32  C   UNL     1      -3.462  -1.353   3.786  0.00  0.00    +0.023 A 
ATOM     33  C   UNL     1      -4.714  -1.833   4.114  0.00  0.00    +0.003 A 
ATOM     34  C   UNL     1      -5.480  -2.480   3.161  0.00  0.00    +0.020 A 
ATOM     35  C   UNL     1      -4.994  -2.649   1.877  0.00  0.00    +0.043 A 
ATOM     36  C   UNL     1      -3.743  -2.165   1.541  0.00  0.00    +0.043 A 
ATOM     37 CL   UNL     1      -5.959  -3.462   0.684  0.00  0.00    -0.083 Cl
ENDBRANCH  29  31
ENDBRANCH  26  27
ENDBRANCH  24  26
ENDBRANCH   1  24
TORSDOF 6
