REMARK  Name = ZINC04663185
REMARK  10 active torsions:
REMARK  status: ('A' for Active; 'I' for Inactive)
REMARK    1  A    between atoms: C_1  and  C_2
REMARK    2  A    between atoms: C_4  and  C_26
REMARK    3  A    between atoms: C_6  and  O_8
REMARK    4  A    between atoms: O_8  and  C_9
REMARK    5  A    between atoms: C_9  and  C_10
REMARK    6  A    between atoms: C_10  and  N_11
REMARK    7  A    between atoms: C_13  and  C_20
REMARK    8  A    between atoms: N_21  and  N_22
REMARK    9  A    between atoms: N_22  and  C_23
REMARK   10  A    between atoms: C_23  and  N_25
REMARK                            x       y       z     vdW  Elec       q    Type
REMARK                         _______ _______ _______ _____ _____    ______ ____
ROOT
ATOM      1  N   UNL     1      -2.541   1.340   0.034  0.00  0.00    -0.343 N 
ATOM      2  C   UNL     1      -3.377   2.417   0.048  0.00  0.00    +0.096 A 
ATOM      3  C   UNL     1      -2.646   3.564   0.046  0.00  0.00    +0.020 A 
ATOM      4  C   UNL     1      -1.229   3.161   0.030  0.00  0.00    +0.008 A 
ATOM      5  C   UNL     1      -1.226   1.756   0.017  0.00  0.00    +0.050 A 
ATOM      6  C   UNL     1      -0.013   1.076   0.008  0.00  0.00    +0.026 A 
ATOM      7  C   UNL     1       1.171   1.782   0.000  0.00  0.00    +0.002 A 
ATOM      8  C   UNL     1       1.167   3.169   0.007  0.00  0.00    +0.001 A 
ATOM      9  C   UNL     1      -0.025   3.861   0.022  0.00  0.00    +0.010 A 
ENDROOT
BRANCH   3  10
ATOM     10  C   UNL     1      -3.169   4.940   0.058  0.00  0.00    +0.140 C 
ATOM     11  N   UNL     1      -2.348   5.947   0.055  0.00  0.00    -0.188 NA
BRANCH  11  12
ATOM     12  N   UNL     1      -2.846   7.256   0.067  0.00  0.00    -0.219 N 
ATOM     13  H   UNL     1      -3.804   7.411   0.077  0.00  0.00    +0.176 HD
BRANCH  12  14
ATOM     14  C   UNL     1      -1.994   8.301   0.064  0.00  0.00    +0.147 C 
ATOM     15  S   UNL     1      -2.603   9.901   0.079  0.00  0.00    -0.017 S 
BRANCH  14  16
ATOM     16  N   UNL     1      -0.664   8.086   0.050  0.00  0.00    -0.339 N 
ATOM     17  H   UNL     1      -0.319   7.179   0.042  0.00  0.00    +0.144 HD
ATOM     18  H   UNL     1      -0.051   8.838   0.048  0.00  0.00    +0.144 HD
ENDBRANCH  14  16
ENDBRANCH  12  14
ENDBRANCH  11  12
ENDBRANCH   3  10
BRANCH   1  19
ATOM     19  C   UNL     1      -2.977  -0.059   0.033  0.00  0.00    +0.163 C 
BRANCH  19  20
ATOM     20  C   UNL     1      -2.994  -0.589   1.468  0.00  0.00    +0.250 C 
BRANCH  20  21
ATOM     21  O   UNL     1      -3.419  -1.954   1.466  0.00  0.00    -0.490 OA
BRANCH  21  27
ATOM     22  C   UNL     1      -2.869  -1.788   6.313  0.00  0.00    +0.044 C 
ATOM     23  C   UNL     1      -3.231  -2.532   5.053  0.00  0.00    -0.047 A 
ATOM     24  C   UNL     1      -3.634  -3.852   5.122  0.00  0.00    +0.007 A 
ATOM     25  C   UNL     1      -3.967  -4.537   3.968  0.00  0.00    -0.047 A 
ATOM     26  C   UNL     1      -3.896  -3.904   2.743  0.00  0.00    +0.049 A 
ATOM     27  C   UNL     1      -3.490  -2.579   2.671  0.00  0.00    +0.121 A 
ATOM     28  C   UNL     1      -3.152  -1.895   3.829  0.00  0.00    +0.049 A 
ATOM     29  C   UNL     1      -4.407  -5.976   4.048  0.00  0.00    +0.044 C 
ENDBRANCH  21  27
ENDBRANCH  20  21
ENDBRANCH  19  20
ENDBRANCH   1  19
TORSDOF 8
