REMARK  Name = ZINC21461625
REMARK  11 active torsions:
REMARK  status: ('A' for Active; 'I' for Inactive)
REMARK    1  A    between atoms: C_1  and  N_2
REMARK    2  A    between atoms: C_3  and  N_35
REMARK    3  A    between atoms: C_4  and  C_11
REMARK    4  A    between atoms: N_7  and  C_10
REMARK    5  A    between atoms: C_11  and  C_13
REMARK    6  A    between atoms: C_13  and  S_14
REMARK    7  A    between atoms: S_14  and  C_15
REMARK    8  A    between atoms: N_25  and  C_26
REMARK    9  A    between atoms: C_26  and  C_27
REMARK   10  A    between atoms: C_27  and  C_28
REMARK   11  A    between atoms: C_28  and  C_29
REMARK                            x       y       z     vdW  Elec       q    Type
REMARK                         _______ _______ _______ _____ _____    ______ ____
ROOT
ATOM      1  C   UNL     1      -1.119  -2.031  -0.097  0.00  0.00    +0.173 A 
ATOM      2  N   UNL     1      -1.138  -0.721  -0.103  0.00  0.00    -0.223 NA
ATOM      3  C   UNL     1      -0.001   0.002  -0.139  0.00  0.00    +0.079 A 
ATOM      4  C   UNL     1      -0.021   1.400  -0.144  0.00  0.00    +0.028 A 
ATOM      5  C   UNL     1       1.156   2.093  -0.181  0.00  0.00    +0.002 A 
ATOM      6  C   UNL     1       2.376   1.429  -0.212  0.00  0.00    +0.001 A 
ATOM      7  C   UNL     1       2.428   0.063  -0.208  0.00  0.00    +0.015 A 
ATOM      8  C   UNL     1       1.242  -0.670  -0.171  0.00  0.00    +0.065 A 
ATOM      9  C   UNL     1       1.238  -2.139  -0.164  0.00  0.00    +0.262 A 
ATOM     10  O   UNL     1       2.276  -2.774  -0.191  0.00  0.00    -0.267 OA
ATOM     11  N   UNL     1       0.036  -2.760  -0.127  0.00  0.00    -0.287 N 
ENDROOT
BRANCH   1  12
ATOM     12  S   UNL     1      -2.655  -2.894  -0.049  0.00  0.00    -0.080 S 
BRANCH  12  13
ATOM     13  C   UNL     1      -3.801  -1.493  -0.023  0.00  0.00    +0.157 C 
BRANCH  13  14
ATOM     14  C   UNL     1      -5.218  -2.004   0.020  0.00  0.00    +0.182 C 
ATOM     15  O   UNL     1      -5.432  -3.199   0.032  0.00  0.00    -0.291 OA
BRANCH  14  19
ATOM     16  C   UNL     1     -10.025  -1.079  -0.082  0.00  0.00    +0.155 C 
ATOM     17  N   UNL     1      -8.636  -0.622  -0.002  0.00  0.00    -0.284 N 
ATOM     18  C   UNL     1      -7.626  -1.541  -0.036  0.00  0.00    +0.116 A 
ATOM     19  C   UNL     1      -6.296  -1.093   0.047  0.00  0.00    +0.120 A 
ATOM     20  C   UNL     1      -6.064   0.353   0.156  0.00  0.00    +0.269 A 
ATOM     21  O   UNL     1      -4.933   0.797   0.226  0.00  0.00    -0.267 OA
ATOM     22  N   UNL     1      -7.131   1.179   0.177  0.00  0.00    -0.263 N 
ATOM     23  C   UNL     1      -8.380   0.692   0.099  0.00  0.00    +0.333 A 
ATOM     24  O   UNL     1      -9.313   1.470   0.121  0.00  0.00    -0.246 OA
ATOM     25  C   UNL     1      -6.923   2.625   0.285  0.00  0.00    +0.157 C 
BRANCH  18  26
ATOM     26  N   UNL     1      -7.903  -2.869  -0.145  0.00  0.00    -0.344 N 
ATOM     27  H   UNL     1      -7.083  -3.601  -0.172  0.00  0.00    +0.144 HD
ATOM     28  H   UNL     1      -8.947  -3.209  -0.205  0.00  0.00    +0.144 HD
ENDBRANCH  18  26
ENDBRANCH  14  19
ENDBRANCH  13  14
ENDBRANCH  12  13
ENDBRANCH   1  12
BRANCH  11  29
ATOM     29  C   UNL     1      -0.027  -4.224  -0.117  0.00  0.00    +0.128 C 
BRANCH  29  30
ATOM     30  C   UNL     1      -0.008  -4.726   1.328  0.00  0.00    +0.026 C 
BRANCH  30  31
ATOM     31  C   UNL     1      -0.074  -6.255   1.337  0.00  0.00    +0.037 C 
BRANCH  31  32
ATOM     32  C   UNL     1      -0.055  -6.749   2.761  0.00  0.00    -0.047 A 
ATOM     33  C   UNL     1       1.149  -7.033   3.378  0.00  0.00    +0.003 A 
ATOM     34  C   UNL     1       1.167  -7.482   4.686  0.00  0.00    +0.000 A 
ATOM     35  C   UNL     1      -0.020  -7.657   5.372  0.00  0.00    +0.000 A 
ATOM     36  C   UNL     1      -1.225  -7.378   4.753  0.00  0.00    +0.000 A 
ATOM     37  C   UNL     1      -1.242  -6.924   3.447  0.00  0.00    +0.003 A 
ENDBRANCH  31  32
ENDBRANCH  30  31
ENDBRANCH  29  30
ENDBRANCH  11  29
TORSDOF 9
