REMARK  Name = ZINC04555177
REMARK  8 active torsions:
REMARK  status: ('A' for Active; 'I' for Inactive)
REMARK    1  A    between atoms: C_1  and  C_2
REMARK    2  A    between atoms: C_5  and  C_8
REMARK    3  A    between atoms: C_8  and  N_9
REMARK    4  A    between atoms: C_16  and  C_19
REMARK    5  A    between atoms: C_16  and  O_30
REMARK    6  A    between atoms: C_19  and  C_21
REMARK    7  A    between atoms: C_19  and  C_22
REMARK    8  A    between atoms: C_22  and  C_24
REMARK                            x       y       z     vdW  Elec       q    Type
REMARK                         _______ _______ _______ _____ _____    ______ ____
ROOT
ATOM      1  N   UNL     1       2.213   4.092   0.004  0.00  0.00    -0.264 N 
ATOM      2  C   UNL     1       1.164   3.171   0.008  0.00  0.00    +0.043 A 
ATOM      3  C   UNL     1       1.175   1.778   0.000  0.00  0.00    +0.025 A 
ATOM      4  C   UNL     1      -0.013   1.076   0.008  0.00  0.00    +0.022 A 
ATOM      5  C   UNL     1      -1.223   1.748   0.017  0.00  0.00    +0.041 A 
ATOM      6  C   UNL     1      -1.241   3.132   0.031  0.00  0.00    +0.028 A 
ATOM      7  C   UNL     1      -0.057   3.835   0.024  0.00  0.00    +0.016 A 
ATOM      8  C   UNL     1       0.262   5.312   0.029  0.00  0.00    +0.178 C 
ATOM      9  C   UNL     1       1.775   5.362   0.015  0.00  0.00    +0.257 C 
ATOM     10  O   UNL     1       2.463   6.361   0.015  0.00  0.00    -0.272 OA
ATOM     11 CL   UNL     1      -2.713   0.857   0.020  0.00  0.00    -0.084 Cl
ENDROOT
BRANCH   8  12
ATOM     12  C   UNL     1      -0.308   5.988  -1.219  0.00  0.00    +0.102 C 
ATOM     13  C   UNL     1      -1.835   5.892  -1.199  0.00  0.00    +0.019 C 
BRANCH  12  14
ATOM     14  C   UNL     1       0.104   7.438  -1.238  0.00  0.00    +0.169 C 
ATOM     15  O   UNL     1       0.371   8.005  -0.201  0.00  0.00    -0.292 OA
BRANCH  14  16
ATOM     16  C   UNL     1       0.182   8.164  -2.516  0.00  0.00    +0.018 A 
ATOM     17  C   UNL     1      -0.120   7.511  -3.715  0.00  0.00    +0.011 A 
ATOM     18  C   UNL     1      -0.050   8.200  -4.908  0.00  0.00    +0.001 A 
ATOM     19  C   UNL     1       0.329   9.530  -4.921  0.00  0.00    +0.000 A 
ATOM     20  C   UNL     1       0.635  10.182  -3.739  0.00  0.00    +0.001 A 
ATOM     21  C   UNL     1       0.564   9.509  -2.538  0.00  0.00    +0.011 A 
ENDBRANCH  14  16
ENDBRANCH  12  14
ENDBRANCH   8  12
BRANCH   8  22
ATOM     22  O   UNL     1      -0.248   5.930   1.212  0.00  0.00    -0.374 OA
ATOM     23  H   UNL     1       0.058   5.521   2.033  0.00  0.00    +0.211 HD
ENDBRANCH   8  22
BRANCH   1  24
ATOM     24  C   UNL     1       3.629   3.716  -0.011  0.00  0.00    +0.148 C 
BRANCH  24  29
ATOM     25  C   UNL     1       5.442   3.251  -5.478  0.00  0.00    +0.044 C 
ATOM     26  C   UNL     1       4.970   3.372  -4.052  0.00  0.00    -0.050 A 
ATOM     27  C   UNL     1       5.060   4.585  -3.395  0.00  0.00    +0.003 A 
ATOM     28  C   UNL     1       4.626   4.696  -2.087  0.00  0.00    +0.005 A 
ATOM     29  C   UNL     1       4.102   3.595  -1.437  0.00  0.00    -0.030 A 
ATOM     30  C   UNL     1       4.017   2.381  -2.092  0.00  0.00    +0.005 A 
ATOM     31  C   UNL     1       4.446   2.271  -3.401  0.00  0.00    +0.003 A 
ENDBRANCH  24  29
ENDBRANCH   1  24
TORSDOF 6
