REMARK  Name = ZINC41014302
REMARK  5 active torsions:
REMARK  status: ('A' for Active; 'I' for Inactive)
REMARK    1  A    between atoms: C_1  and  C_2
REMARK    2  A    between atoms: C_2  and  C_4
REMARK    3  A    between atoms: C_2  and  N_14
REMARK    4  A    between atoms: N_14  and  C_15
REMARK    5  A    between atoms: C_15  and  C_16
REMARK                            x       y       z     vdW  Elec       q    Type
REMARK                         _______ _______ _______ _____ _____    ______ ____
ROOT
ATOM      1  C   UNL     1      -0.019   1.526   0.010  0.00  0.00    -0.006 C 
ATOM      2  C   UNL     1       0.002  -0.004   0.002  0.00  0.00    -0.007 C 
ENDROOT
BRANCH   2   3
ATOM      3  C   UNL     1       0.731  -0.503   1.223  0.00  0.00    +0.092 A 
ATOM      4  C   UNL     1       2.005  -0.917   1.240  0.00  0.00    +0.051 A 
ATOM      5  C   UNL     1       2.290  -1.308   2.626  0.00  0.00    +0.021 A 
ATOM      6  C   UNL     1       3.411  -1.811   3.285  0.00  0.00    +0.027 A 
ATOM      7  C   UNL     1       3.342  -2.082   4.635  0.00  0.00    +0.019 A 
ATOM      8  C   UNL     1       2.164  -1.855   5.334  0.00  0.00    +0.019 A 
ATOM      9  C   UNL     1       1.050  -1.358   4.693  0.00  0.00    +0.048 A 
ATOM     10  C   UNL     1       1.099  -1.078   3.333  0.00  0.00    +0.135 A 
ATOM     11  O   UNL     1       0.199  -0.593   2.454  0.00  0.00    -0.461 OA
ATOM     12 BR   UNL     1       4.857  -2.764   5.537  0.00  0.00    -0.050 Br
ENDBRANCH   2   3
BRANCH   2  13
ATOM     13  N   UNL     1      -1.376  -0.512   0.012  0.00  0.00    +0.389 N 
ATOM     14  H   UNL     1      -1.363  -1.518   0.090  0.00  0.00    -0.084 HD
ATOM     15  H   UNL     1      -1.873  -0.121   0.799  0.00  0.00    -0.084 HD
BRANCH  13  16
ATOM     16  C   UNL     1      -2.050  -0.126  -1.234  0.00  0.00    -0.026 C 
BRANCH  16  17
ATOM     17  C   UNL     1      -3.464  -0.648  -1.224  0.00  0.00    +0.019 A 
ATOM     18  C   UNL     1      -4.564   0.038  -0.836  0.00  0.00    +0.042 A 
ATOM     19  C   UNL     1      -5.670  -0.806  -0.980  0.00  0.00    +0.134 A 
ATOM     20  N   UNL     1      -5.249  -1.957  -1.438  0.00  0.00    -0.182 NA
ATOM     21  H   UNL     1      -3.285  -2.588  -1.934  0.00  0.00    +0.188 HD
ATOM     22  N   UNL     1      -3.860  -1.880  -1.605  0.00  0.00    -0.283 N 
ENDBRANCH  16  17
ENDBRANCH  13  16
ENDBRANCH   2  13
TORSDOF 4
