REMARK  Name = ZINC46364863
REMARK  6 active torsions:
REMARK  status: ('A' for Active; 'I' for Inactive)
REMARK    1  A    between atoms: C_1  and  C_2
REMARK    2  A    between atoms: N_7  and  C_9
REMARK    3  A    between atoms: C_9  and  C_11
REMARK    4  A    between atoms: C_9  and  C_12
REMARK    5  A    between atoms: C_12  and  N_13
REMARK    6  A    between atoms: C_19  and  N_22
REMARK                            x       y       z     vdW  Elec       q    Type
REMARK                         _______ _______ _______ _____ _____    ______ ____
ROOT
ATOM      1  N   UNL     1       3.065  -0.566   2.179  0.00  0.00    -0.301 N 
ATOM      2  C   UNL     1       4.245   0.042   1.946  0.00  0.00    +0.302 C 
ATOM      3  O   UNL     1       5.265  -0.617   1.876  0.00  0.00    -0.253 OA
ATOM      4  N   UNL     1       4.295   1.380   1.790  0.00  0.00    -0.286 N 
ATOM      5  C   UNL     1       5.553   2.044   1.421  0.00  0.00    +0.111 C 
ATOM      6  C   UNL     1       5.843   3.151   2.440  0.00  0.00    +0.044 C 
ATOM      7  C   UNL     1       4.637   4.090   2.524  0.00  0.00    +0.095 C 
ATOM      8  C   UNL     1       3.410   3.307   2.998  0.00  0.00    +0.044 C 
ATOM      9  C   UNL     1       3.091   2.201   1.980  0.00  0.00    +0.111 C 
ATOM     10  H   UNL     1       2.263  -0.035   2.306  0.00  0.00    +0.150 HD
ENDROOT
BRANCH   7  11
ATOM     11  N   UNL     1       4.924   5.169   3.473  0.00  0.00    -0.289 N 
ATOM     12  C   UNL     1       4.937   6.530   3.179  0.00  0.00    +0.070 A 
ATOM     13  C   UNL     1       4.710   7.256   2.019  0.00  0.00    +0.028 A 
ATOM     14  C   UNL     1       4.798   8.634   2.042  0.00  0.00    +0.002 A 
ATOM     15  C   UNL     1       5.113   9.294   3.218  0.00  0.00    +0.002 A 
ATOM     16  C   UNL     1       5.342   8.579   4.378  0.00  0.00    +0.028 A 
ATOM     17  C   UNL     1       5.254   7.196   4.365  0.00  0.00    +0.067 A 
ATOM     18  N   UNL     1       5.424   6.218   5.342  0.00  0.00    -0.306 N 
ATOM     19  H   UNL     1       5.651   6.378   6.271  0.00  0.00    +0.170 HD
ATOM     20  C   UNL     1       5.214   5.013   4.778  0.00  0.00    +0.328 A 
ATOM     21  O   UNL     1       5.279   3.946   5.359  0.00  0.00    -0.247 OA
ENDBRANCH   7  11
BRANCH   1  22
ATOM     22  C   UNL     1       2.993  -2.028   2.240  0.00  0.00    +0.090 C 
BRANCH  22  23
ATOM     23  C   UNL     1       1.533  -2.461   2.386  0.00  0.00    -0.054 C 
ATOM     24  C   UNL     1       1.447  -3.988   2.334  0.00  0.00    -0.012 C 
BRANCH  23  30
ATOM     25  C   UNL     1      -2.986  -1.953   0.572  0.00  0.00    +0.005 C 
ATOM     26  C   UNL     1      -1.514  -1.581   0.380  0.00  0.00    -0.031 C 
ATOM     27  C   UNL     1      -1.037  -2.072  -0.990  0.00  0.00    -0.001 C 
ATOM     28  C   UNL     1       0.455  -1.765  -1.141  0.00  0.00    -0.018 C 
ATOM     29  C   UNL     1       1.224  -2.419   0.009  0.00  0.00    -0.078 C 
ATOM     30  N   UNL     1       0.740  -1.889   1.290  0.00  0.00    +0.383 N 
ATOM     31  C   UNL     1      -0.673  -2.241   1.474  0.00  0.00    -0.075 C 
ATOM     32  H   UNL     1       0.838  -0.885   1.295  0.00  0.00    -0.081 HD
ENDBRANCH  23  30
ENDBRANCH  22  23
ENDBRANCH   1  22
TORSDOF 4
