REMARK  Name = ZINC19910552
REMARK  4 active torsions:
REMARK  status: ('A' for Active; 'I' for Inactive)
REMARK    1  A    between atoms: C_4  and  C_7
REMARK    2  A    between atoms: C_8  and  C_34
REMARK    3  A    between atoms: C_9  and  C_28
REMARK    4  A    between atoms: C_17  and  C_20
REMARK                            x       y       z     vdW  Elec       q    Type
REMARK                         _______ _______ _______ _____ _____    ______ ____
ROOT
ATOM      1  C   UNL     1       1.058  -1.985  -0.085  0.00  0.00    +0.030 C 
ATOM      2  C   UNL     1       1.163  -1.966   1.271  0.00  0.00    -0.017 C 
ATOM      3  C   UNL     1       1.612  -3.323   1.763  0.00  0.00    +0.049 C 
ATOM      4  C   UNL     1       0.647  -3.821   2.845  0.00  0.00    +0.050 C 
ATOM      5  C   UNL     1       1.110  -5.153   3.323  0.00  0.00    -0.022 C 
ATOM      6  C   UNL     1       1.031  -6.266   2.676  0.00  0.00    -0.030 C 
ATOM      7  C   UNL     1       0.403  -6.402   1.351  0.00  0.00    +0.035 C 
ATOM      8  C   UNL     1       0.329  -5.158   0.496  0.00  0.00    +0.034 C 
ATOM      9  C   UNL     1       1.514  -4.244   0.545  0.00  0.00    +0.079 C 
ATOM     10  C   UNL     1       1.490  -3.275  -0.626  0.00  0.00    +0.176 C 
ATOM     11  O   UNL     1       1.772  -3.522  -1.781  0.00  0.00    -0.291 OA
ATOM     12  C   UNL     1      -0.896  -4.416   1.045  0.00  0.00    -0.025 C 
ATOM     13  C   UNL     1      -0.725  -3.826   2.221  0.00  0.00    -0.022 C 
ENDROOT
BRANCH   1  17
ATOM     14  C   UNL     1      -0.338   1.268  -2.438  0.00  0.00    +0.000 A 
ATOM     15  C   UNL     1       0.972   0.841  -2.561  0.00  0.00    +0.001 A 
ATOM     16  C   UNL     1       1.431  -0.214  -1.800  0.00  0.00    +0.008 A 
ATOM     17  C   UNL     1       0.571  -0.851  -0.905  0.00  0.00    -0.014 A 
ATOM     18  C   UNL     1      -0.750  -0.419  -0.789  0.00  0.00    +0.008 A 
ATOM     19  C   UNL     1      -1.196   0.641  -1.552  0.00  0.00    +0.001 A 
ENDBRANCH   1  17
BRANCH   9  20
ATOM     20  C   UNL     1       2.766  -5.079   0.464  0.00  0.00    -0.032 A 
ATOM     21  C   UNL     1       3.341  -5.575   1.619  0.00  0.00    +0.004 A 
ATOM     22  C   UNL     1       4.487  -6.346   1.544  0.00  0.00    +0.000 A 
ATOM     23  C   UNL     1       5.061  -6.612   0.316  0.00  0.00    +0.000 A 
ATOM     24  C   UNL     1       4.489  -6.112  -0.839  0.00  0.00    +0.000 A 
ATOM     25  C   UNL     1       3.341  -5.346  -0.765  0.00  0.00    +0.004 A 
ENDBRANCH   9  20
BRANCH   3  26
ATOM     26  C   UNL     1       3.028  -3.261   2.274  0.00  0.00    -0.035 A 
ATOM     27  C   UNL     1       3.287  -3.463   3.616  0.00  0.00    +0.004 A 
ATOM     28  C   UNL     1       4.587  -3.411   4.085  0.00  0.00    +0.000 A 
ATOM     29  C   UNL     1       5.626  -3.147   3.212  0.00  0.00    +0.000 A 
ATOM     30  C   UNL     1       5.366  -2.939   1.870  0.00  0.00    +0.000 A 
ATOM     31  C   UNL     1       4.067  -2.996   1.401  0.00  0.00    +0.004 A 
ENDBRANCH   3  26
BRANCH   2  32
ATOM     32  C   UNL     1       0.889  -0.805   2.126  0.00  0.00    -0.020 A 
ATOM     33  C   UNL     1      -0.420  -0.328   2.268  0.00  0.00    +0.008 A 
ATOM     34  C   UNL     1      -0.668   0.763   3.072  0.00  0.00    +0.001 A 
ATOM     35  C   UNL     1       0.372   1.387   3.740  0.00  0.00    +0.000 A 
ATOM     36  C   UNL     1       1.669   0.922   3.605  0.00  0.00    +0.001 A 
ATOM     37  C   UNL     1       1.935  -0.168   2.804  0.00  0.00    +0.008 A 
ENDBRANCH   2  32
TORSDOF 4
