REMARK  Name = ZINC09586507
REMARK  6 active torsions:
REMARK  status: ('A' for Active; 'I' for Inactive)
REMARK    1  A    between atoms: C_6  and  S_11
REMARK    2  A    between atoms: S_11  and  C_12
REMARK    3  A    between atoms: C_12  and  C_13
REMARK    4  A    between atoms: N_15  and  C_16
REMARK    5  A    between atoms: C_20  and  S_22
REMARK    6  A    between atoms: S_22  and  N_25
REMARK                            x       y       z     vdW  Elec       q    Type
REMARK                         _______ _______ _______ _____ _____    ______ ____
ROOT
ATOM      1  C   UNL     1      -0.046   3.842   0.015  0.00  0.00    +0.035 A 
ATOM      2  C   UNL     1       1.168   3.167  -0.008  0.00  0.00    +0.023 A 
ATOM      3  C   UNL     1       1.188   1.786  -0.021  0.00  0.00    +0.004 A 
ATOM      4  C   UNL     1       0.001   1.076  -0.011  0.00  0.00    +0.029 A 
ATOM      5  C   UNL     1      -1.209   1.746   0.007  0.00  0.00    +0.110 A 
ATOM      6  C   UNL     1      -1.235   3.127   0.026  0.00  0.00    +0.052 A 
ENDROOT
BRANCH   1   9
ATOM      7  C   UNL     1       0.884   5.925   0.693  0.00  0.00    +0.227 C 
ATOM      8  O   UNL     1       1.808   5.332   1.208  0.00  0.00    -0.275 OA
ATOM      9  N   UNL     1      -0.069   5.242   0.029  0.00  0.00    -0.285 N 
ATOM     10  H   UNL     1      -0.771   5.719  -0.439  0.00  0.00    +0.155 HD
BRANCH   7  11
ATOM     11  C   UNL     1       0.801   7.426   0.796  0.00  0.00    +0.170 C 
BRANCH  11  12
ATOM     12  S   UNL     1       2.219   8.046   1.743  0.00  0.00    -0.116 S 
BRANCH  12  18
ATOM     13  C   UNL     1       2.277  14.726   2.464  0.00  0.00    +0.001 A 
ATOM     14  C   UNL     1       3.390  14.179   3.101  0.00  0.00    +0.001 A 
ATOM     15  C   UNL     1       3.608  12.836   3.099  0.00  0.00    +0.008 A 
ATOM     16  C   UNL     1       2.699  11.984   2.447  0.00  0.00    -0.017 A 
ATOM     17  C   UNL     1       2.893  10.594   2.425  0.00  0.00    +0.023 A 
ATOM     18  C   UNL     1       1.980   9.792   1.774  0.00  0.00    +0.009 A 
ATOM     19  C   UNL     1       0.868  10.351   1.131  0.00  0.00    +0.015 A 
ATOM     20  C   UNL     1       0.656  11.693   1.145  0.00  0.00    +0.009 A 
ATOM     21  C   UNL     1       1.567  12.541   1.799  0.00  0.00    -0.018 A 
ATOM     22  C   UNL     1       1.377  13.933   1.823  0.00  0.00    +0.008 A 
ENDBRANCH  12  18
ENDBRANCH  11  12
ENDBRANCH   7  11
ENDBRANCH   1   9
BRANCH   5  23
ATOM     23  S   UNL     1      -2.718   0.836   0.013  0.00  0.00    +0.073 S 
ATOM     24  O   UNL     1      -3.714   1.699  -0.520  0.00  0.00    -0.150 OA
ATOM     25  O   UNL     1      -2.429  -0.435  -0.553  0.00  0.00    -0.150 OA
BRANCH  23  26
ATOM     26  N   UNL     1      -3.122   0.568   1.596  0.00  0.00    -0.205 N 
ATOM     27  C   UNL     1      -3.432   1.624   2.412  0.00  0.00    +0.088 C 
ATOM     28  C   UNL     1      -3.812   3.766   3.128  0.00  0.00    +0.114 C 
ATOM     29  C   UNL     1      -3.655   2.934   4.422  0.00  0.00    +0.028 C 
ATOM     30  C   UNL     1      -3.820   1.496   3.868  0.00  0.00    +0.072 C 
ATOM     31  H   UNL     1      -3.139  -0.336   1.946  0.00  0.00    +0.175 HD
ATOM     32  N   UNL     1      -3.433   2.861   2.022  0.00  0.00    -0.375 N 
ATOM     33  H   UNL     1      -3.202   3.171   1.071  0.00  0.00    +0.161 HD
ENDBRANCH  23  26
ENDBRANCH   5  23
TORSDOF 6
