REMARK  Name = ZINC06856721
REMARK  6 active torsions:
REMARK  status: ('A' for Active; 'I' for Inactive)
REMARK    1  A    between atoms: C_1  and  C_2
REMARK    2  A    between atoms: C_2  and  C_3
REMARK    3  A    between atoms: C_3  and  C_4
REMARK    4  A    between atoms: C_4  and  S_5
REMARK    5  A    between atoms: S_5  and  C_6
REMARK    6  A    between atoms: C_17  and  C_19
REMARK                            x       y       z     vdW  Elec       q    Type
REMARK                         _______ _______ _______ _____ _____    ______ ____
ROOT
ATOM      1  C   UNL     1       1.579  -4.396   2.548  0.00  0.00    +0.171 A 
ATOM      2  N   UNL     1       2.153  -5.171   3.510  0.00  0.00    -0.302 N 
ATOM      3  H   UNL     1       2.592  -4.755   4.269  0.00  0.00    +0.171 HD
ATOM      4  C   UNL     1       2.111  -6.516   3.411  0.00  0.00    +0.258 A 
ATOM      5  O   UNL     1       2.620  -7.219   4.270  0.00  0.00    -0.267 OA
ATOM      6  C   UNL     1       1.475  -7.090   2.304  0.00  0.00    +0.069 A 
ATOM      7  C   UNL     1       0.912  -6.258   1.352  0.00  0.00    +0.135 A 
ATOM      8  N   UNL     1       0.973  -4.931   1.508  0.00  0.00    -0.208 NA
ATOM      9  N   UNL     1       0.287  -6.806   0.249  0.00  0.00    -0.302 N 
ATOM     10  C   UNL     1       0.542  -8.096  -0.127  0.00  0.00    +0.017 C 
ATOM     11  C   UNL     1       1.073  -8.981   0.744  0.00  0.00    +0.024 C 
ATOM     12  C   UNL     1       1.403  -8.581   2.160  0.00  0.00    +0.092 C 
ATOM     13  C   UNL     1       1.330 -10.309   0.360  0.00  0.00    +0.162 C 
ATOM     14  O   UNL     1       1.827 -11.075   1.162  0.00  0.00    -0.292 OA
ATOM     15  C   UNL     1       1.002 -10.800  -1.023  0.00  0.00    +0.080 C 
ATOM     16  C   UNL     1      -0.169  -9.983  -1.578  0.00  0.00    +0.014 C 
ATOM     17  C   UNL     1       0.217  -8.503  -1.544  0.00  0.00    +0.051 C 
ATOM     18  H   UNL     1      -0.337  -6.270  -0.265  0.00  0.00    +0.153 HD
ENDROOT
BRANCH  12  19
ATOM     19  C   UNL     1       0.340  -9.116   3.085  0.00  0.00    -0.034 A 
ATOM     20  C   UNL     1      -0.971  -8.702   2.942  0.00  0.00    +0.004 A 
ATOM     21  C   UNL     1      -1.947  -9.192   3.790  0.00  0.00    +0.002 A 
ATOM     22  C   UNL     1      -1.611 -10.096   4.781  0.00  0.00    +0.020 A 
ATOM     23  C   UNL     1      -0.299 -10.510   4.924  0.00  0.00    +0.041 A 
ATOM     24  C   UNL     1       0.676 -10.023   4.071  0.00  0.00    +0.024 A 
ATOM     25 CL   UNL     1       0.122 -11.644   6.169  0.00  0.00    -0.084 Cl
ENDBRANCH  12  19
BRANCH   1  26
ATOM     26  S   UNL     1       1.640  -2.642   2.703  0.00  0.00    -0.088 S 
BRANCH  26  27
ATOM     27  C   UNL     1       0.763  -2.041   1.233  0.00  0.00    +0.077 C 
BRANCH  27  28
ATOM     28  C   UNL     1       0.742  -0.511   1.242  0.00  0.00    +0.011 C 
BRANCH  28  30
ATOM     29  C   UNL     1      -0.019   1.526   0.010  0.00  0.00    +0.004 C 
ATOM     30  C   UNL     1       0.002  -0.004   0.002  0.00  0.00    -0.003 C 
ENDBRANCH  28  30
ENDBRANCH  27  28
ENDBRANCH  26  27
ENDBRANCH   1  26
TORSDOF 5
