REMARK  Name = ZINC14889236
REMARK  10 active torsions:
REMARK  status: ('A' for Active; 'I' for Inactive)
REMARK    1  A    between atoms: C_1  and  C_2
REMARK    2  A    between atoms: C_2  and  C_3
REMARK    3  A    between atoms: C_2  and  C_4
REMARK    4  A    between atoms: C_4  and  C_5
REMARK    5  A    between atoms: C_5  and  C_7
REMARK    6  A    between atoms: C_5  and  N_60
REMARK    7  A    between atoms: C_10  and  N_60
REMARK    8  A    between atoms: N_21  and  C_24
REMARK    9  A    between atoms: C_24  and  C_25
REMARK   10  A    between atoms: C_29  and  C_31
REMARK                            x       y       z     vdW  Elec       q    Type
REMARK                         _______ _______ _______ _____ _____    ______ ____
ROOT
ATOM      1  C   UNL     1      -4.959   7.464  -5.753  0.00  0.00    -0.066 C 
ATOM      2  C   UNL     1      -5.441   6.258  -4.942  0.00  0.00    -0.011 C 
ATOM      3  C   UNL     1      -4.641   6.152  -3.643  0.00  0.00    +0.035 C 
ATOM      4  C   UNL     1      -3.152   6.168  -3.979  0.00  0.00    -0.023 A 
ATOM      5  C   UNL     1      -2.720   6.627  -5.173  0.00  0.00    -0.006 A 
ATOM      6  S   UNL     1      -0.956   6.455  -5.119  0.00  0.00    -0.073 S 
ATOM      7  C   UNL     1      -0.806   5.765  -3.490  0.00  0.00    +0.116 A 
ATOM      8  C   UNL     1      -2.135   5.693  -3.043  0.00  0.00    +0.076 A 
ATOM      9  C   UNL     1      -2.317   5.161  -1.724  0.00  0.00    +0.263 A 
ATOM     10  O   UNL     1      -3.434   5.058  -1.247  0.00  0.00    -0.267 OA
ATOM     11  N   UNL     1      -1.235   4.777  -1.022  0.00  0.00    -0.294 N 
ATOM     12  C   UNL     1       0.017   4.890  -1.537  0.00  0.00    +0.203 A 
ATOM     13  N   UNL     1       0.215   5.365  -2.737  0.00  0.00    -0.230 NA
ATOM     14  C   UNL     1      -3.554   7.165  -6.295  0.00  0.00    +0.027 C 
ENDROOT
BRANCH   1  15
ATOM     15  N   UNL     1      -5.885   7.696  -6.878  0.00  0.00    +0.389 N 
ATOM     16  H   UNL     1      -5.616   7.096  -7.667  0.00  0.00    -0.084 HD
ATOM     17  H   UNL     1      -6.841   7.466  -6.583  0.00  0.00    -0.084 HD
BRANCH  15  18
ATOM     18  C   UNL     1      -5.833   9.108  -7.302  0.00  0.00    +0.016 C 
BRANCH  18  19
ATOM     19  C   UNL     1      -6.802   9.916  -6.478  0.00  0.00    +0.196 C 
ATOM     20  O   UNL     1      -7.466   9.375  -5.619  0.00  0.00    -0.278 OA
ATOM     21  N   UNL     1      -6.932  11.239  -6.696  0.00  0.00    -0.331 N 
ATOM     22  H   UNL     1      -6.401  11.672  -7.383  0.00  0.00    +0.145 HD
ATOM     23  H   UNL     1      -7.556  11.759  -6.166  0.00  0.00    +0.145 HD
ENDBRANCH  18  19
BRANCH  18  24
ATOM     24  C   UNL     1      -6.216   9.204  -8.780  0.00  0.00    -0.004 C 
BRANCH  24  26
ATOM     25  C   UNL     1      -5.605   8.476 -11.091  0.00  0.00    +0.007 C 
ATOM     26  C   UNL     1      -5.154   8.502  -9.629  0.00  0.00    -0.018 C 
ATOM     27  C   UNL     1      -3.830   9.261  -9.518  0.00  0.00    +0.007 C 
ENDBRANCH  24  26
ENDBRANCH  18  24
ENDBRANCH  15  18
ENDBRANCH   1  15
BRANCH  11  28
ATOM     28  C   UNL     1      -1.410   4.232   0.326  0.00  0.00    +0.161 C 
BRANCH  28  29
ATOM     29  C   UNL     1      -1.582   2.737   0.245  0.00  0.00    -0.027 A 
ATOM     30  C   UNL     1      -0.475   1.910   0.305  0.00  0.00    +0.005 A 
ATOM     31  C   UNL     1      -0.633   0.539   0.232  0.00  0.00    +0.001 A 
ATOM     32  C   UNL     1      -1.897  -0.006   0.097  0.00  0.00    +0.012 A 
ATOM     33  C   UNL     1      -3.002   0.822   0.032  0.00  0.00    +0.055 A 
ATOM     34  C   UNL     1      -2.845   2.193   0.112  0.00  0.00    +0.017 A 
BRANCH  33  35
ATOM     35  C   UNL     1      -4.379   0.228  -0.120  0.00  0.00    +0.417 C 
ATOM     36  F   UNL     1      -4.283  -1.166  -0.172  0.00  0.00    -0.166 F 
ATOM     37  F   UNL     1      -5.170   0.601   0.971  0.00  0.00    -0.166 F 
ATOM     38  F   UNL     1      -4.962   0.700  -1.301  0.00  0.00    -0.166 F 
ENDBRANCH  33  35
ENDBRANCH  28  29
ENDBRANCH  11  28
TORSDOF 8
