REMARK  Name = ZINC12773726
REMARK  9 active torsions:
REMARK  status: ('A' for Active; 'I' for Inactive)
REMARK    1  A    between atoms: C_1  and  C_2
REMARK    2  A    between atoms: C_4  and  C_29
REMARK    3  A    between atoms: C_6  and  C_8
REMARK    4  A    between atoms: C_11  and  C_12
REMARK    5  A    between atoms: C_14  and  O_24
REMARK    6  A    between atoms: C_15  and  O_19
REMARK    7  A    between atoms: O_19  and  C_20
REMARK    8  A    between atoms: C_20  and  C_21
REMARK    9  A    between atoms: O_24  and  C_25
REMARK                            x       y       z     vdW  Elec       q    Type
REMARK                         _______ _______ _______ _____ _____    ______ ____
ROOT
ATOM      1  C   UNL     1       1.191   1.795  -0.004  0.00  0.00    -0.018 A 
ATOM      2  C   UNL     1      -0.013   1.075  -0.017  0.00  0.00    +0.057 A 
ATOM      3  C   UNL     1      -1.216   1.751  -0.011  0.00  0.00    +0.164 A 
ATOM      4  C   UNL     1      -1.235   3.145   0.019  0.00  0.00    +0.181 A 
ATOM      5  C   UNL     1      -0.043   3.861   0.032  0.00  0.00    +0.087 A 
ATOM      6  C   UNL     1       1.164   3.197   0.021  0.00  0.00    +0.032 A 
ATOM      7 CL   UNL     1      -0.076   5.596   0.063  0.00  0.00    -0.080 Cl
ENDROOT
BRANCH   1  11
ATOM      8  C   UNL     1       5.071   3.433  -0.258  0.00  0.00    +0.232 C 
ATOM      9  N   UNL     1       3.805   3.148  -0.136  0.00  0.00    -0.205 NA
ATOM     10  C   UNL     1       3.651   1.792  -0.127  0.00  0.00    +0.152 C 
ATOM     11  C   UNL     1       2.472   1.085  -0.015  0.00  0.00    +0.043 C 
ATOM     12  C   UNL     1       5.013   1.242  -0.255  0.00  0.00    +0.364 C 
ATOM     13  O   UNL     1       5.336   0.069  -0.285  0.00  0.00    -0.243 OA
ATOM     14  O   UNL     1       5.824   2.318  -0.335  0.00  0.00    -0.402 OA
BRANCH   8  20
ATOM     15  C   UNL     1       4.339   8.367  -0.167  0.00  0.00    +0.044 C 
ATOM     16  C   UNL     1       5.265   7.182  -0.261  0.00  0.00    -0.049 A 
ATOM     17  C   UNL     1       6.629   7.381  -0.392  0.00  0.00    +0.006 A 
ATOM     18  C   UNL     1       7.487   6.299  -0.479  0.00  0.00    -0.049 A 
ATOM     19  C   UNL     1       6.988   5.013  -0.436  0.00  0.00    +0.016 A 
ATOM     20  C   UNL     1       5.613   4.806  -0.304  0.00  0.00    +0.038 A 
ATOM     21  C   UNL     1       4.752   5.902  -0.222  0.00  0.00    +0.016 A 
ATOM     22  C   UNL     1       8.970   6.525  -0.622  0.00  0.00    +0.044 C 
ENDBRANCH   8  20
ENDBRANCH   1  11
BRANCH   3  23
ATOM     23  O   UNL     1      -2.385   1.056  -0.030  0.00  0.00    -0.491 OA
ATOM     24  C   UNL     1      -2.292  -0.370  -0.055  0.00  0.00    +0.277 C 
ENDBRANCH   3  23
BRANCH   4  25
ATOM     25  O   UNL     1      -2.421   3.806   0.030  0.00  0.00    -0.478 OA
BRANCH  25  26
ATOM     26  C   UNL     1      -2.987   4.145  -1.237  0.00  0.00    +0.324 C 
BRANCH  26  27
ATOM     27  C   UNL     1      -4.292   4.868  -1.028  0.00  0.00    +0.248 C 
ATOM     28  O   UNL     1      -4.698   5.074   0.097  0.00  0.00    -0.272 OA
ATOM     29  N   UNL     1      -5.009   5.287  -2.089  0.00  0.00    -0.327 N 
ATOM     30  H   UNL     1      -4.685   5.122  -2.989  0.00  0.00    +0.145 HD
ATOM     31  H   UNL     1      -5.849   5.752  -1.954  0.00  0.00    +0.145 HD
ENDBRANCH  26  27
ENDBRANCH  25  26
ENDBRANCH   4  25
TORSDOF 6
