REMARK  Name = ZINC39998601
REMARK  8 active torsions:
REMARK  status: ('A' for Active; 'I' for Inactive)
REMARK    1  A    between atoms: C_1  and  C_2
REMARK    2  A    between atoms: C_2  and  C_29
REMARK    3  A    between atoms: C_3  and  C_25
REMARK    4  A    between atoms: C_5  and  C_7
REMARK    5  A    between atoms: C_13  and  S_15
REMARK    6  A    between atoms: S_15  and  C_16
REMARK    7  A    between atoms: C_16  and  C_17
REMARK    8  A    between atoms: C_18  and  C_19
REMARK                            x       y       z     vdW  Elec       q    Type
REMARK                         _______ _______ _______ _____ _____    ______ ____
ROOT
ATOM      1  C   UNL     1       1.317   0.160   2.235  0.00  0.00    +0.223 C 
ATOM      2  O   UNL     1       1.247   1.367   2.150  0.00  0.00    -0.275 OA
ATOM      3  N   UNL     1       1.946  -0.407   3.284  0.00  0.00    -0.263 N 
ATOM      4  C   UNL     1       2.514   0.394   4.271  0.00  0.00    +0.189 A 
ATOM      5  N   UNL     1       2.550   1.712   4.380  0.00  0.00    -0.125 NA
ATOM      6  N   UNL     1       3.114   2.287   5.351  0.00  0.00    -0.133 NA
ATOM      7  C   UNL     1       3.705   1.606   6.321  0.00  0.00    +0.160 A 
ATOM      8  S   UNL     1       3.400  -0.066   5.758  0.00  0.00    -0.024 S 
ATOM      9  H   UNL     1       2.002  -1.373   3.351  0.00  0.00    +0.157 HD
ENDROOT
BRANCH   1  13
ATOM     10  C   UNL     1      -0.019   1.526   0.010  0.00  0.00    +0.012 C 
ATOM     11  C   UNL     1       0.002  -0.004   0.002  0.00  0.00    -0.016 C 
ATOM     12  C   UNL     1       1.351  -0.691  -0.218  0.00  0.00    +0.033 C 
ATOM     13  C   UNL     1       0.701  -0.708   1.167  0.00  0.00    +0.089 C 
ATOM     14  C   UNL     1      -1.239  -0.678  -0.588  0.00  0.00    +0.012 C 
BRANCH  12  15
ATOM     15  C   UNL     1       2.558   0.191  -0.410  0.00  0.00    +0.010 C 
ATOM     16  C   UNL     1       3.255   0.117  -1.521  0.00  0.00    +0.103 C 
ATOM     17 CL   UNL     1       2.786  -0.997  -2.768  0.00  0.00    -0.071 Cl
ATOM     18 CL   UNL     1       4.645   1.133  -1.743  0.00  0.00    -0.071 Cl
ENDBRANCH  12  15
ENDBRANCH   1  13
BRANCH   7  19
ATOM     19  S   UNL     1       4.548   2.181   7.758  0.00  0.00    -0.093 S 
BRANCH  19  20
ATOM     20  C   UNL     1       4.436   3.988   7.638  0.00  0.00    +0.103 C 
BRANCH  20  21
ATOM     21  C   UNL     1       5.127   4.613   8.823  0.00  0.00    -0.015 C 
ATOM     22  C   UNL     1       6.215   5.349   8.643  0.00  0.00    +0.004 C 
BRANCH  22  23
ATOM     23  C   UNL     1       6.892   5.963   9.805  0.00  0.00    -0.025 A 
ATOM     24  C   UNL     1       6.392   5.764  11.093  0.00  0.00    +0.008 A 
ATOM     25  C   UNL     1       7.029   6.339  12.173  0.00  0.00    +0.001 A 
ATOM     26  C   UNL     1       8.161   7.112  11.981  0.00  0.00    +0.000 A 
ATOM     27  C   UNL     1       8.661   7.313  10.707  0.00  0.00    +0.001 A 
ATOM     28  C   UNL     1       8.037   6.738   9.619  0.00  0.00    +0.008 A 
ENDBRANCH  22  23
ENDBRANCH  20  21
ENDBRANCH  19  20
ENDBRANCH   7  19
TORSDOF 6
