REMARK  Name = ZINC06193568
REMARK  9 active torsions:
REMARK  status: ('A' for Active; 'I' for Inactive)
REMARK    1  A    between atoms: C_1  and  C_2
REMARK    2  A    between atoms: C_4  and  C_40
REMARK    3  A    between atoms: C_7  and  C_14
REMARK    4  A    between atoms: C_14  and  C_16
REMARK    5  A    between atoms: C_14  and  N_76
REMARK    6  A    between atoms: N_20  and  C_21
REMARK    7  A    between atoms: N_29  and  C_32
REMARK    8  A    between atoms: C_37  and  O_38
REMARK    9  A    between atoms: O_38  and  C_39
REMARK                            x       y       z     vdW  Elec       q    Type
REMARK                         _______ _______ _______ _____ _____    ______ ____
ROOT
ATOM      1  C   UNL     1       4.884   4.301  -0.034  0.00  0.00    +0.039 C 
ENDROOT
BRANCH   1   8
ATOM      2  C   UNL     1      -1.284  -0.755   0.063  0.00  0.00    +0.044 C 
ATOM      3  C   UNL     1       0.015   0.009   0.056  0.00  0.00    -0.048 A 
ATOM      4  C   UNL     1       1.218  -0.681   0.117  0.00  0.00    +0.007 A 
ATOM      5  C   UNL     1       2.407  -0.008   0.112  0.00  0.00    -0.041 A 
ATOM      6  C   UNL     1       2.412   1.389   0.046  0.00  0.00    +0.002 A 
ATOM      7  C   UNL     1       3.667   2.143   0.038  0.00  0.00    +0.018 A 
ATOM      8  C   UNL     1       3.610   3.496  -0.026  0.00  0.00    +0.011 A 
ATOM      9  C   UNL     1       2.363   4.152  -0.087  0.00  0.00    +0.251 A 
ATOM     10  O   UNL     1       2.334   5.370  -0.146  0.00  0.00    -0.268 OA
ATOM     11  N   UNL     1       1.205   3.469  -0.081  0.00  0.00    -0.322 N 
ATOM     12  H   UNL     1       0.364   3.952  -0.124  0.00  0.00    +0.169 HD
ATOM     13  C   UNL     1       1.194   2.092  -0.015  0.00  0.00    +0.050 A 
ATOM     14  C   UNL     1      -0.004   1.385  -0.010  0.00  0.00    +0.029 A 
ATOM     15  C   UNL     1       3.707  -0.767   0.179  0.00  0.00    +0.044 C 
ENDBRANCH   1   8
BRANCH   1  21
ATOM     16  C   UNL     1       5.973   6.231   0.942  0.00  0.00    -0.058 C 
ATOM     17  C   UNL     1       5.841   7.310   2.019  0.00  0.00    +0.086 C 
ATOM     18  N   UNL     1       5.786   6.674   3.342  0.00  0.00    -0.331 N 
ATOM     19  C   UNL     1       4.645   5.752   3.433  0.00  0.00    +0.086 C 
ATOM     20  C   UNL     1       4.778   4.673   2.356  0.00  0.00    -0.058 C 
ATOM     21  N   UNL     1       4.809   5.325   1.030  0.00  0.00    +0.391 N 
ATOM     22  H   UNL     1       3.950   5.872   0.906  0.00  0.00    -0.080 HD
BRANCH  18  23
ATOM     23  C   UNL     1       5.737   7.635   4.359  0.00  0.00    +0.072 A 
ATOM     24  C   UNL     1       5.539   8.971   4.045  0.00  0.00    +0.027 A 
ATOM     25  C   UNL     1       5.486   9.917   5.051  0.00  0.00    +0.002 A 
ATOM     26  C   UNL     1       5.641   9.536   6.371  0.00  0.00    +0.004 A 
ATOM     27  C   UNL     1       5.844   8.207   6.692  0.00  0.00    +0.047 A 
ATOM     28  C   UNL     1       5.893   7.252   5.690  0.00  0.00    +0.141 A 
BRANCH  28  29
ATOM     29  O   UNL     1       6.094   5.944   6.004  0.00  0.00    -0.493 OA
ATOM     30  C   UNL     1       6.245   5.625   7.388  0.00  0.00    +0.277 C 
ENDBRANCH  28  29
ENDBRANCH  18  23
ENDBRANCH   1  21
BRANCH   1  31
ATOM     31  C   UNL     1       5.036   4.988  -1.367  0.00  0.00    +0.143 A 
ATOM     32  N   UNL     1       4.369   6.035  -1.788  0.00  0.00    -0.115 NA
ATOM     33  N   UNL     1       4.786   6.322  -2.973  0.00  0.00    -0.023 NA
ATOM     34  N   UNL     1       5.695   5.480  -3.322  0.00  0.00    -0.044 NA
ATOM     35  N   UNL     1       5.877   4.641  -2.359  0.00  0.00    -0.227 N 
BRANCH  35  36
ATOM     36  C   UNL     1       6.823   3.522  -2.346  0.00  0.00    +0.111 C 
ATOM     37  C   UNL     1       8.246   4.055  -2.523  0.00  0.00    +0.027 C 
ATOM     38  C   UNL     1       9.233   2.887  -2.510  0.00  0.00    +0.002 C 
ATOM     39  C   UNL     1       8.902   1.926  -3.654  0.00  0.00    +0.000 C 
ATOM     40  C   UNL     1       7.479   1.393  -3.477  0.00  0.00    +0.002 C 
ATOM     41  C   UNL     1       6.492   2.562  -3.490  0.00  0.00    +0.027 C 
ENDBRANCH  35  36
ENDBRANCH   1  31
TORSDOF 6
