REMARK  Name = ZINC16688430
REMARK  10 active torsions:
REMARK  status: ('A' for Active; 'I' for Inactive)
REMARK    1  A    between atoms: C_1  and  C_2
REMARK    2  A    between atoms: C_2  and  O_3
REMARK    3  A    between atoms: O_3  and  C_4
REMARK    4  A    between atoms: C_6  and  C_20
REMARK    5  A    between atoms: C_9  and  O_10
REMARK    6  A    between atoms: O_10  and  C_11
REMARK    7  A    between atoms: C_11  and  C_12
REMARK    8  A    between atoms: C_20  and  N_51
REMARK    9  A    between atoms: C_21  and  C_22
REMARK   10  A    between atoms: C_21  and  N_51
REMARK                            x       y       z     vdW  Elec       q    Type
REMARK                         _______ _______ _______ _____ _____    ______ ____
ROOT
ATOM      1  C   UNL     1      -8.809   0.845   0.569  0.00  0.00    +0.163 A 
ATOM      2  C   UNL     1      -7.571   0.468   0.072  0.00  0.00    +0.051 A 
ATOM      3  C   UNL     1      -7.020   1.146  -0.999  0.00  0.00    -0.060 A 
ATOM      4  C   UNL     1      -7.706   2.195  -1.584  0.00  0.00    +0.021 A 
ATOM      5  C   UNL     1      -8.944   2.572  -1.097  0.00  0.00    +0.063 A 
ATOM      6  C   UNL     1      -9.500   1.900  -0.020  0.00  0.00    +0.176 A 
ATOM      7 BR   UNL     1      -9.878   4.007  -1.901  0.00  0.00    -0.046 Br
ENDROOT
BRANCH   1   8
ATOM      8  O   UNL     1      -9.350   0.182   1.626  0.00  0.00    -0.489 OA
BRANCH   8  10
ATOM      9  C   UNL     1      -9.349  -1.511   3.350  0.00  0.00    +0.048 C 
ATOM     10  C   UNL     1      -8.585  -0.890   2.179  0.00  0.00    +0.226 C 
ENDBRANCH   8  10
ENDBRANCH   1   8
BRANCH   6  11
ATOM     11  O   UNL     1     -10.717   2.269   0.460  0.00  0.00    -0.483 OA
BRANCH  11  12
ATOM     12  C   UNL     1     -11.861   1.630  -0.111  0.00  0.00    +0.264 C 
BRANCH  12  13
ATOM     13  C   UNL     1     -13.111   2.163   0.540  0.00  0.00    -0.010 A 
ATOM     14  C   UNL     1     -13.621   1.544   1.666  0.00  0.00    +0.008 A 
ATOM     15  C   UNL     1     -14.765   2.035   2.267  0.00  0.00    +0.020 A 
ATOM     16  C   UNL     1     -15.405   3.140   1.735  0.00  0.00    +0.041 A 
ATOM     17  C   UNL     1     -14.897   3.756   0.606  0.00  0.00    +0.020 A 
ATOM     18  C   UNL     1     -13.751   3.267   0.009  0.00  0.00    +0.008 A 
ATOM     19 CL   UNL     1     -16.845   3.754   2.486  0.00  0.00    -0.084 Cl
ENDBRANCH  12  13
ENDBRANCH  11  12
ENDBRANCH   6  11
BRANCH   3  20
ATOM     20  C   UNL     1      -5.671   0.738  -1.533  0.00  0.00    -0.047 C 
BRANCH  20  21
ATOM     21  N   UNL     1      -4.622   1.500  -0.830  0.00  0.00    +0.383 N 
ATOM     22  H   UNL     1      -4.674   1.299   0.176  0.00  0.00    -0.085 HD
ATOM     23  H   UNL     1      -4.770   2.504  -0.986  0.00  0.00    -0.085 HD
BRANCH  21  24
ATOM     24  C   UNL     1      -3.289   1.120  -1.334  0.00  0.00    -0.050 C 
BRANCH  24  25
ATOM     25  C   UNL     1      -2.223   1.924  -0.587  0.00  0.00    +0.101 C 
ATOM     26  C   UNL     1      -0.833   1.634  -1.185  0.00  0.00    +0.032 C 
ATOM     27  C   UNL     1      -0.013   1.086   0.008  0.00  0.00    +0.030 C 
ATOM     28  C   UNL     1      -0.810   1.621   1.224  0.00  0.00    +0.160 C 
ATOM     29  O   UNL     1      -2.186   1.524   0.793  0.00  0.00    -0.378 OA
ENDBRANCH  24  25
ENDBRANCH  21  24
ENDBRANCH  20  21
ENDBRANCH   3  20
TORSDOF 9
