REMARK  Name = ZINC19983313
REMARK  6 active torsions:
REMARK  status: ('A' for Active; 'I' for Inactive)
REMARK    1  A    between atoms: C_1  and  C_2
REMARK    2  A    between atoms: C_5  and  C_26
REMARK    3  A    between atoms: C_6  and  N_8
REMARK    4  A    between atoms: C_9  and  C_11
REMARK    5  A    between atoms: C_11  and  N_12
REMARK    6  A    between atoms: C_20  and  C_24
REMARK                            x       y       z     vdW  Elec       q    Type
REMARK                         _______ _______ _______ _____ _____    ______ ____
ROOT
ATOM      1  C   UNL     1      -1.271   5.997   0.385  0.00  0.00    +0.209 C 
ENDROOT
BRANCH   1   2
ATOM      2  N   UNL     1      -0.055   5.260   0.032  0.00  0.00    -0.256 N 
ATOM      3  C   UNL     1      -0.047   3.858   0.032  0.00  0.00    +0.080 A 
ATOM      4  C   UNL     1      -1.233   3.143   0.049  0.00  0.00    +0.047 A 
ATOM      5  C   UNL     1      -1.204   1.760   0.043  0.00  0.00    +0.043 A 
ATOM      6  C   UNL     1       0.007   1.090   0.033  0.00  0.00    +0.024 A 
ATOM      7  C   UNL     1       1.195   1.799   0.017  0.00  0.00    +0.049 A 
ATOM      8  C   UNL     1       1.173   3.183   0.016  0.00  0.00    +0.143 A 
ATOM      9  O   UNL     1       2.331   3.895  -0.002  0.00  0.00    -0.478 OA
ATOM     10  C   UNL     1       2.307   5.146  -0.695  0.00  0.00    +0.256 C 
ATOM     11  C   UNL     1       1.076   5.921  -0.298  0.00  0.00    +0.261 C 
ATOM     12  O   UNL     1       1.102   7.133  -0.274  0.00  0.00    -0.271 OA
ATOM     13  C   UNL     1       3.555   5.952  -0.335  0.00  0.00    +0.062 C 
ATOM     14 CL   UNL     1      -2.689   0.862   0.056  0.00  0.00    -0.083 Cl
ENDBRANCH   1   2
BRANCH   1  16
ATOM     15  N   UNL     1      -3.253   6.914  -0.774  0.00  0.00    -0.284 N 
ATOM     16  C   UNL     1      -2.085   6.248  -0.858  0.00  0.00    +0.235 C 
ATOM     17  O   UNL     1      -1.688   5.850  -1.933  0.00  0.00    -0.274 OA
ATOM     18  H   UNL     1      -3.658   7.195   0.209  0.00  0.00    +0.155 HD
BRANCH  15  24
ATOM     19  C   UNL     1      -3.232   7.856  -5.600  0.00  0.00    +0.044 C 
ATOM     20  C   UNL     1      -3.967   7.712  -4.292  0.00  0.00    -0.049 A 
ATOM     21  C   UNL     1      -5.335   7.910  -4.243  0.00  0.00    +0.004 A 
ATOM     22  C   UNL     1      -6.013   7.778  -3.046  0.00  0.00    +0.005 A 
ATOM     23  C   UNL     1      -5.327   7.442  -1.895  0.00  0.00    -0.029 A 
ATOM     24  C   UNL     1      -3.953   7.248  -1.940  0.00  0.00    +0.037 A 
ATOM     25  C   UNL     1      -3.274   7.382  -3.144  0.00  0.00    +0.027 A 
ATOM     26  C   UNL     1      -6.068   7.292  -0.591  0.00  0.00    +0.045 C 
ENDBRANCH  15  24
ENDBRANCH   1  16
TORSDOF 3
