REMARK  Name = ZINC10106919
REMARK  3 active torsions:
REMARK  status: ('A' for Active; 'I' for Inactive)
REMARK    1  A    between atoms: C_3  and  C_6
REMARK    2  A    between atoms: C_8  and  C_11
REMARK    3  A    between atoms: C_11  and  N_34
REMARK                            x       y       z     vdW  Elec       q    Type
REMARK                         _______ _______ _______ _____ _____    ______ ____
ROOT
ATOM      1  C   UNL     1       0.110   1.471  -2.380  0.00  0.00    -0.018 C 
ENDROOT
BRANCH   1  10
ATOM      2  C   UNL     1      -0.013   1.086   0.008  0.00  0.00    -0.073 C 
ATOM      3  C   UNL     1      -0.738   1.585   1.269  0.00  0.00    +0.024 C 
ATOM      4  C   UNL     1      -2.201   1.329   1.080  0.00  0.00    -0.011 A 
ATOM      5  C   UNL     1      -2.828   1.010  -0.087  0.00  0.00    -0.054 A 
ATOM      6  C   UNL     1      -4.205   0.813  -0.021  0.00  0.00    +0.009 A 
ATOM      7  C   UNL     1      -4.851   0.943   1.162  0.00  0.00    +0.045 A 
ATOM      8  S   UNL     1      -3.512   1.360   2.269  0.00  0.00    -0.101 S 
ATOM      9  C   UNL     1      -2.012   0.888  -1.371  0.00  0.00    -0.042 C 
ATOM     10  N   UNL     1      -0.733   1.611  -1.177  0.00  0.00    +0.386 N 
ATOM     11  H   UNL     1      -0.936   2.606  -1.026  0.00  0.00    -0.081 HD
ENDBRANCH   1  10
BRANCH   1  14
ATOM     12  C   UNL     1      -1.726   2.701  -5.301  0.00  0.00    +0.174 A 
ATOM     13  C   UNL     1      -0.873   2.981  -4.262  0.00  0.00    +0.074 A 
ATOM     14  C   UNL     1      -0.727   1.745  -3.603  0.00  0.00    +0.068 A 
ATOM     15  N   UNL     1      -1.462   0.886  -4.252  0.00  0.00    -0.085 NA
ATOM     16  O   UNL     1      -2.023   1.392  -5.196  0.00  0.00    -0.354 OA
BRANCH  12  19
ATOM     17  C   UNL     1      -3.396   4.460  -8.203  0.00  0.00    +0.008 A 
ATOM     18  C   UNL     1      -3.074   3.407  -7.379  0.00  0.00    +0.019 A 
ATOM     19  C   UNL     1      -2.218   3.641  -6.318  0.00  0.00    +0.057 A 
ATOM     20  S   UNL     1      -1.861   5.379  -6.511  0.00  0.00    -0.093 S 
ATOM     21  C   UNL     1      -2.859   5.684  -7.959  0.00  0.00    +0.046 A 
ENDBRANCH  12  19
ENDBRANCH   1  14
TORSDOF 3
