REMARK  Name = ZINC13643902
REMARK  9 active torsions:
REMARK  status: ('A' for Active; 'I' for Inactive)
REMARK    1  A    between atoms: C_1  and  C_2
REMARK    2  A    between atoms: C_4  and  C_37
REMARK    3  A    between atoms: C_6  and  N_8
REMARK    4  A    between atoms: N_8  and  S_9
REMARK    5  A    between atoms: S_9  and  C_12
REMARK    6  A    between atoms: C_25  and  C_28
REMARK    7  A    between atoms: C_31  and  N_34
REMARK    8  A    between atoms: N_34  and  C_35
REMARK    9  A    between atoms: N_34  and  C_36
REMARK                            x       y       z     vdW  Elec       q    Type
REMARK                         _______ _______ _______ _____ _____    ______ ____
ROOT
ATOM      1  C   UNL     1      -5.995   4.672   1.032  0.00  0.00    +0.109 A 
ATOM      2  C   UNL     1      -6.147   4.287  -0.288  0.00  0.00    +0.030 A 
ATOM      3  C   UNL     1      -5.393   3.251  -0.799  0.00  0.00    +0.025 A 
ATOM      4  C   UNL     1      -4.475   2.588   0.006  0.00  0.00    +0.031 A 
ATOM      5  C   UNL     1      -4.315   2.993   1.336  0.00  0.00    -0.018 A 
ATOM      6  C   UNL     1      -5.079   4.023   1.839  0.00  0.00    +0.034 A 
ATOM      7  C   UNL     1      -3.292   2.295   2.143  0.00  0.00    +0.049 C 
ATOM      8  C   UNL     1      -3.394   2.186   3.621  0.00  0.00    -0.023 C 
ATOM      9  C   UNL     1      -2.823   1.050   4.003  0.00  0.00    -0.030 C 
ATOM     10  C   UNL     1      -2.316   0.283   2.780  0.00  0.00    +0.033 C 
ATOM     11  C   UNL     1      -3.265   0.802   1.697  0.00  0.00    +0.029 C 
ATOM     12  C   UNL     1      -2.722   0.814   0.279  0.00  0.00    +0.105 C 
ATOM     13  N   UNL     1      -3.733   1.528  -0.530  0.00  0.00    -0.336 N 
ATOM     14  H   UNL     1      -3.885   1.258  -1.449  0.00  0.00    +0.147 HD
ENDROOT
BRANCH  12  15
ATOM     15  C   UNL     1      -1.406   1.546   0.232  0.00  0.00    -0.027 A 
ATOM     16  C   UNL     1      -1.382   2.908  -0.003  0.00  0.00    +0.007 A 
ATOM     17  C   UNL     1      -0.178   3.583  -0.040  0.00  0.00    +0.023 A 
ATOM     18  C   UNL     1       1.011   2.891   0.152  0.00  0.00    +0.029 A 
ATOM     19  C   UNL     1       0.984   1.522   0.382  0.00  0.00    +0.023 A 
ATOM     20  C   UNL     1      -0.224   0.853   0.418  0.00  0.00    +0.007 A 
BRANCH  18  21
ATOM     21  N   UNL     1       2.231   3.571   0.115  0.00  0.00    -0.336 N 
ATOM     22  C   UNL     1       2.257   5.016  -0.127  0.00  0.00    +0.129 C 
ATOM     23  C   UNL     1       3.483   2.839   0.318  0.00  0.00    +0.129 C 
ENDBRANCH  18  21
ENDBRANCH  12  15
BRANCH   1  24
ATOM     24  S   UNL     1      -6.968   5.989   1.683  0.00  0.00    +0.072 S 
ATOM     25  O   UNL     1      -8.190   5.989   0.958  0.00  0.00    -0.150 OA
ATOM     26  O   UNL     1      -6.922   5.866   3.098  0.00  0.00    -0.150 OA
BRANCH  24  27
ATOM     27  N   UNL     1      -6.193   7.403   1.306  0.00  0.00    -0.216 N 
ATOM     28  H   UNL     1      -6.631   8.060   0.743  0.00  0.00    +0.174 HD
BRANCH  27  34
ATOM     29  C   UNL     1      -3.036   7.402   5.072  0.00  0.00    +0.044 C 
ATOM     30  C   UNL     1      -3.351   7.658   3.620  0.00  0.00    -0.048 A 
ATOM     31  C   UNL     1      -2.368   8.139   2.775  0.00  0.00    +0.006 A 
ATOM     32  C   UNL     1      -2.652   8.375   1.443  0.00  0.00    -0.048 A 
ATOM     33  C   UNL     1      -3.920   8.132   0.952  0.00  0.00    +0.028 A 
ATOM     34  C   UNL     1      -4.910   7.650   1.799  0.00  0.00    +0.049 A 
ATOM     35  C   UNL     1      -4.622   7.418   3.138  0.00  0.00    +0.028 A 
ATOM     36  C   UNL     1      -1.578   8.899   0.525  0.00  0.00    +0.044 C 
ENDBRANCH  27  34
ENDBRANCH  24  27
ENDBRANCH   1  24
TORSDOF 5
