REMARK  Name = ZINC13615146
REMARK  2 active torsions:
REMARK  status: ('A' for Active; 'I' for Inactive)
REMARK    1  A    between atoms: C_3  and  C_9
REMARK    2  A    between atoms: C_12  and  C_14
REMARK                            x       y       z     vdW  Elec       q    Type
REMARK                         _______ _______ _______ _____ _____    ______ ____
ROOT
ATOM      1  C   UNL     1      -3.411   2.450   0.032  0.00  0.00    +0.137 A 
ATOM      2  C   UNL     1      -2.788   3.666   0.035  0.00  0.00    +0.050 A 
ATOM      3  C   UNL     1      -1.411   3.424   0.027  0.00  0.00    +0.050 A 
ATOM      4  C   UNL     1      -1.248   2.050   0.019  0.00  0.00    +0.130 A 
ATOM      5  O   UNL     1      -2.474   1.484   0.016  0.00  0.00    -0.455 OA
ENDROOT
BRANCH   4   6
ATOM      6  C   UNL     1      -0.016   1.361   0.009  0.00  0.00    +0.063 C 
ATOM      7  C   UNL     1       0.002  -0.004   0.002  0.00  0.00    +0.049 C 
ATOM      8  C   UNL     1       1.114  -0.896  -0.019  0.00  0.00    +0.093 C 
ATOM      9  S   UNL     1       2.720  -0.302  -0.041  0.00  0.00    -0.034 S 
ATOM     10  N   UNL     1       0.870  -2.195  -0.018  0.00  0.00    -0.269 N 
ATOM     11  C   UNL     1      -0.398  -2.664  -0.009  0.00  0.00    +0.281 C 
ATOM     12  O   UNL     1      -0.784  -3.817  -0.011  0.00  0.00    -0.262 OA
ATOM     13  S   UNL     1      -1.362  -1.160   0.008  0.00  0.00    -0.029 S 
ATOM     14  H   UNL     1       1.611  -2.821  -0.028  0.00  0.00    +0.156 HD
ENDBRANCH   4   6
BRANCH   1  17
ATOM     15  C   UNL     1      -7.038   2.684   0.969  0.00  0.00    +0.002 A 
ATOM     16  C   UNL     1      -5.674   2.887   0.973  0.00  0.00    +0.013 A 
ATOM     17  C   UNL     1      -4.870   2.232   0.037  0.00  0.00    +0.037 A 
ATOM     18  C   UNL     1      -5.454   1.365  -0.891  0.00  0.00    +0.070 A 
ATOM     19  C   UNL     1      -6.821   1.166  -0.880  0.00  0.00    +0.060 A 
ATOM     20  C   UNL     1      -7.611   1.824   0.048  0.00  0.00    +0.021 A 
ATOM     21 CL   UNL     1      -7.550   0.090  -2.030  0.00  0.00    -0.082 Cl
ATOM     22 CL   UNL     1      -4.464   0.539  -2.054  0.00  0.00    -0.081 Cl
ENDBRANCH   1  17
TORSDOF 2
