REMARK  Name = ZINC44325732
REMARK  8 active torsions:
REMARK  status: ('A' for Active; 'I' for Inactive)
REMARK    1  A    between atoms: C_1  and  C_2
REMARK    2  A    between atoms: C_3  and  C_13
REMARK    3  A    between atoms: C_13  and  CA_14
REMARK    4  A    between atoms: CA_14  and  C_16
REMARK    5  A    between atoms: CA_14  and  N_19
REMARK    6  A    between atoms: C_20  and  O_22
REMARK    7  A    between atoms: O_22  and  C_23
REMARK    8  A    between atoms: C_23  and  C_24
REMARK                            x       y       z     vdW  Elec       q    Type
REMARK                         _______ _______ _______ _____ _____    ______ ____
ROOT
ATOM      1  N   UNL     1       2.104  -1.401  -3.058  0.00  0.00    -0.267 N 
ATOM      2  C   UNL     1       3.446  -1.469  -2.959  0.00  0.00    +0.401 C 
ATOM      3  O   UNL     1       4.099  -0.451  -2.838  0.00  0.00    -0.226 OA
ATOM      4  H   UNL     1       1.583  -2.213  -3.154  0.00  0.00    +0.153 HD
ENDROOT
BRANCH   1   5
ATOM      5  CA  UNL     1       1.431  -0.100  -3.018  0.00  0.00    +0.193 C 
BRANCH   5   6
ATOM      6  C   UNL     1       1.418   0.501  -4.400  0.00  0.00    +0.376 C 
ATOM      7  O   UNL     1       1.071   1.659  -4.558  0.00  0.00    -0.244 OA
ATOM      8  OXT UNL     1       1.756  -0.171  -5.360  0.00  0.00    -0.244 OA
ENDBRANCH   5   6
BRANCH   5   9
ATOM      9  C   UNL     1      -0.006  -0.283  -2.528  0.00  0.00    +0.071 C 
BRANCH   9  12
ATOM     10  C   UNL     1      -0.018   1.503   0.010  0.00  0.00    +0.063 C 
ATOM     11  C   UNL     1       0.002  -0.004   0.002  0.00  0.00    +0.017 A 
ATOM     12  C   UNL     1       0.007  -0.769  -1.101  0.00  0.00    -0.017 A 
ATOM     13  C   UNL     1       0.028  -2.164  -0.656  0.00  0.00    +0.005 A 
ATOM     14  C   UNL     1       0.042  -3.394  -1.317  0.00  0.00    +0.030 A 
ATOM     15  C   UNL     1       0.061  -4.553  -0.593  0.00  0.00    +0.042 A 
ATOM     16  C   UNL     1       0.067  -4.517   0.796  0.00  0.00    +0.022 A 
ATOM     17  C   UNL     1       0.054  -3.315   1.467  0.00  0.00    +0.027 A 
ATOM     18  C   UNL     1       0.034  -2.123   0.750  0.00  0.00    +0.047 A 
ATOM     19  N   UNL     1       0.024  -0.795   1.118  0.00  0.00    -0.358 N 
ATOM     20  H   UNL     1       0.029  -0.470   2.032  0.00  0.00    +0.166 HD
ATOM     21 CL   UNL     1       0.077  -6.082  -1.415  0.00  0.00    -0.084 Cl
ENDBRANCH   9  12
ENDBRANCH   5   9
ENDBRANCH   1   5
BRANCH   2  22
ATOM     22  O   UNL     1       4.064  -2.665  -2.996  0.00  0.00    -0.449 OA
BRANCH  22  23
ATOM     23  C   UNL     1       5.489  -2.662  -2.886  0.00  0.00    +0.246 C 
BRANCH  23  24
ATOM     24  C   UNL     1       6.008  -4.100  -2.947  0.00  0.00    +0.088 C 
ATOM     25  C   UNL     1       5.594  -4.854  -1.707  0.00  0.00    -0.029 A 
ATOM     26  C   UNL     1       4.358  -5.165  -1.182  0.00  0.00    +0.005 A 
ATOM     27  C   UNL     1       4.267  -5.884  -0.003  0.00  0.00    +0.000 A 
ATOM     28  C   UNL     1       5.415  -6.294   0.650  0.00  0.00    +0.001 A 
ATOM     29  C   UNL     1       6.657  -5.988   0.131  0.00  0.00    +0.009 A 
ATOM     30  C   UNL     1       6.756  -5.262  -1.057  0.00  0.00    -0.014 A 
ATOM     31  C   UNL     1       7.939  -4.803  -1.826  0.00  0.00    -0.014 A 
ATOM     32  C   UNL     1       7.517  -4.108  -2.956  0.00  0.00    -0.029 A 
ATOM     33  C   UNL     1       8.440  -3.580  -3.833  0.00  0.00    +0.005 A 
ATOM     34  C   UNL     1       9.793  -3.739  -3.594  0.00  0.00    +0.000 A 
ATOM     35  C   UNL     1      10.223  -4.428  -2.474  0.00  0.00    +0.001 A 
ATOM     36  C   UNL     1       9.306  -4.959  -1.590  0.00  0.00    +0.009 A 
ENDBRANCH  23  24
ENDBRANCH  22  23
ENDBRANCH   2  22
TORSDOF 7
