REMARK  Name = ZINC01267330
REMARK  7 active torsions:
REMARK  status: ('A' for Active; 'I' for Inactive)
REMARK    1  A    between atoms: C_1  and  C_2
REMARK    2  A    between atoms: C_5  and  C_8
REMARK    3  A    between atoms: C_11  and  C_29
REMARK    4  A    between atoms: N_13  and  C_20
REMARK    5  A    between atoms: C_16  and  O_19
REMARK    6  A    between atoms: C_25  and  C_27
REMARK    7  A    between atoms: C_25  and  C_28
REMARK                            x       y       z     vdW  Elec       q    Type
REMARK                         _______ _______ _______ _____ _____    ______ ____
ROOT
ATOM      1  C   UNL     1       0.234  -3.991   0.596  0.00  0.00    +0.112 C 
ATOM      2  C   UNL     1      -1.036  -4.650   1.043  0.00  0.00    +0.036 A 
ATOM      3  C   UNL     1      -2.292  -4.027   0.927  0.00  0.00    +0.067 A 
ATOM      4  N   UNL     1      -3.207  -4.832   1.387  0.00  0.00    -0.174 NA
ATOM      5  N   UNL     1      -2.590  -6.006   1.817  0.00  0.00    -0.243 N 
ATOM      6  C   UNL     1      -1.233  -5.882   1.606  0.00  0.00    +0.160 A 
ATOM      7  N   UNL     1      -0.378  -6.861   1.946  0.00  0.00    -0.197 NA
ATOM      8  C   UNL     1       0.860  -7.047   1.892  0.00  0.00    +0.199 C 
ATOM      9  C   UNL     1       1.923  -6.190   1.328  0.00  0.00    +0.165 C 
ATOM     10  S   UNL     1       1.643  -4.437   1.618  0.00  0.00    -0.138 S 
ATOM     11  C   UNL     1      -2.538  -2.651   0.364  0.00  0.00    +0.068 C 
ENDROOT
BRANCH   5  12
ATOM     12  C   UNL     1      -3.267  -7.171   2.394  0.00  0.00    +0.114 C 
ATOM     13  C   UNL     1      -4.011  -6.753   3.667  0.00  0.00    +0.055 C 
ATOM     14  C   UNL     1      -4.778  -7.957   4.218  0.00  0.00    +0.162 C 
ATOM     15  O   UNL     1      -5.677  -8.445   3.220  0.00  0.00    -0.374 OA
ATOM     16  C   UNL     1      -5.034  -8.895   2.026  0.00  0.00    +0.066 C 
ATOM     17  C   UNL     1      -4.275  -7.730   1.385  0.00  0.00    +0.061 C 
ATOM     18  C   UNL     1      -6.086  -9.419   1.046  0.00  0.00    +0.041 C 
ATOM     19  C   UNL     1      -4.050 -10.016   2.367  0.00  0.00    +0.041 C 
ENDBRANCH   5  12
BRANCH   1  24
ATOM     20  C   UNL     1      -0.474   1.740   0.791  0.00  0.00    +0.044 C 
ATOM     21  C   UNL     1      -0.289   0.246   0.741  0.00  0.00    -0.050 A 
ATOM     22  C   UNL     1      -0.236  -0.403  -0.479  0.00  0.00    +0.003 A 
ATOM     23  C   UNL     1      -0.067  -1.774  -0.526  0.00  0.00    +0.005 A 
ATOM     24  C   UNL     1       0.050  -2.496   0.647  0.00  0.00    -0.030 A 
ATOM     25  C   UNL     1      -0.002  -1.847   1.867  0.00  0.00    +0.005 A 
ATOM     26  C   UNL     1      -0.167  -0.476   1.913  0.00  0.00    +0.003 A 
ENDBRANCH   1  24
BRANCH   8  27
ATOM     27  O   UNL     1       1.287  -8.207   2.431  0.00  0.00    -0.495 OA
ATOM     28  H   UNL     1       0.579  -8.756   2.796  0.00  0.00    +0.293 HD
ENDBRANCH   8  27
TORSDOF 3
