REMARK  Name = ZINC16890684
REMARK  4 active torsions:
REMARK  status: ('A' for Active; 'I' for Inactive)
REMARK    1  A    between atoms: C_1  and  C_2
REMARK    2  A    between atoms: C_2  and  C_4
REMARK    3  A    between atoms: C_7  and  N_10
REMARK    4  A    between atoms: C_11  and  C_13
REMARK                            x       y       z     vdW  Elec       q    Type
REMARK                         _______ _______ _______ _____ _____    ______ ____
ROOT
ATOM      1  C   UNL     1      -0.305   3.745  -1.006  0.00  0.00    +0.238 C 
ATOM      2  C   UNL     1       0.996   4.541  -1.066  0.00  0.00    +0.191 C 
ATOM      3  C   UNL     1       2.047   4.013  -0.058  0.00  0.00    +0.187 C 
ATOM      4  C   UNL     1       2.099   2.516  -0.112  0.00  0.00    +0.209 C 
ATOM      5  C   UNL     1       0.675   1.959   0.161  0.00  0.00    +0.286 C 
ATOM      6  O   UNL     1      -0.102   2.328  -0.967  0.00  0.00    -0.333 OA
ATOM      7  O   UNL     1       0.970   0.568   0.318  0.00  0.00    -0.317 OA
ATOM      8  C   UNL     1       2.202   0.572   1.076  0.00  0.00    +0.174 C 
ATOM      9  O   UNL     1       2.882   1.825   0.852  0.00  0.00    -0.338 OA
ATOM     10  C   UNL     1       3.088  -0.580   0.608  0.00  0.00    +0.065 C 
ATOM     11  C   UNL     1       2.370  -1.910   0.850  0.00  0.00    +0.005 C 
ATOM     12  C   UNL     1       2.066  -2.060   2.342  0.00  0.00    +0.000 C 
ATOM     13  C   UNL     1       1.165  -0.910   2.798  0.00  0.00    +0.005 C 
ATOM     14  C   UNL     1       1.881   0.422   2.562  0.00  0.00    +0.065 C 
ATOM     15  O   UNL     1       1.544   4.517   1.193  0.00  0.00    -0.340 OA
ATOM     16  C   UNL     1       1.033   5.822   0.866  0.00  0.00    +0.171 C 
ATOM     17  O   UNL     1       0.711   5.858  -0.530  0.00  0.00    -0.340 OA
ATOM     18  C   UNL     1       2.097   6.876   1.176  0.00  0.00    +0.065 C 
ATOM     19  C   UNL     1       2.441   6.830   2.667  0.00  0.00    +0.005 C 
ATOM     20  C   UNL     1       1.182   7.113   3.489  0.00  0.00    +0.000 C 
ATOM     21  C   UNL     1       0.122   6.052   3.181  0.00  0.00    +0.005 C 
ATOM     22  C   UNL     1      -0.225   6.096   1.692  0.00  0.00    +0.065 C 
ENDROOT
BRANCH   1  24
ATOM     23  N   UNL     1      -2.088   5.033   0.125  0.00  0.00    -0.283 N 
ATOM     24  C   UNL     1      -1.069   4.158   0.226  0.00  0.00    +0.249 C 
ATOM     25  O   UNL     1      -0.765   3.702   1.308  0.00  0.00    -0.273 OA
ATOM     26  H   UNL     1      -2.362   5.360  -0.747  0.00  0.00    +0.155 HD
BRANCH  23  30
ATOM     27  C   UNL     1      -4.061   6.333   3.549  0.00  0.00    +0.017 A 
ATOM     28  C   UNL     1      -3.903   7.198   2.459  0.00  0.00    +0.013 A 
ATOM     29  C   UNL     1      -3.252   6.765   1.333  0.00  0.00    +0.024 A 
ATOM     30  C   UNL     1      -2.749   5.468   1.271  0.00  0.00    +0.034 A 
ATOM     31  C   UNL     1      -2.909   4.604   2.350  0.00  0.00    +0.024 A 
ATOM     32  C   UNL     1      -3.554   5.029   3.483  0.00  0.00    +0.013 A 
BRANCH  27  34
ATOM     33  C   UNL     1      -5.415   8.148   4.780  0.00  0.00    +0.091 C 
ATOM     34  C   UNL     1      -4.758   6.791   4.758  0.00  0.00    +0.160 C 
ATOM     35  O   UNL     1      -4.805   6.078   5.738  0.00  0.00    -0.292 OA
ENDBRANCH  27  34
ENDBRANCH  23  30
ENDBRANCH   1  24
TORSDOF 3
