REMARK  Name = ZINC29201280
REMARK  7 active torsions:
REMARK  status: ('A' for Active; 'I' for Inactive)
REMARK    1  A    between atoms: C_1  and  C_2
REMARK    2  A    between atoms: N_11  and  C_15
REMARK    3  A    between atoms: C_15  and  C_16
REMARK    4  A    between atoms: N_18  and  C_19
REMARK    5  A    between atoms: C_22  and  N_25
REMARK    6  A    between atoms: N_28  and  C_29
REMARK    7  A    between atoms: C_29  and  C_30
REMARK                            x       y       z     vdW  Elec       q    Type
REMARK                         _______ _______ _______ _____ _____    ______ ____
ROOT
ATOM      1  C   UNL     1      -2.964   0.463   5.581  0.00  0.00    +0.235 C 
ATOM      2  O   UNL     1      -1.782   0.638   5.372  0.00  0.00    -0.274 OA
ATOM      3  N   UNL     1      -3.406   0.281   6.841  0.00  0.00    -0.284 N 
ATOM      4  H   UNL     1      -4.485   0.206   7.040  0.00  0.00    +0.155 HD
ENDROOT
BRANCH   3   5
ATOM      5  C   UNL     1      -2.491   0.187   7.898  0.00  0.00    +0.034 A 
ATOM      6  C   UNL     1      -1.250  -0.402   7.691  0.00  0.00    +0.025 A 
ATOM      7  C   UNL     1      -0.346  -0.489   8.731  0.00  0.00    +0.025 A 
ATOM      8  C   UNL     1      -0.681   0.002   9.986  0.00  0.00    +0.035 A 
ATOM      9  C   UNL     1      -1.924   0.586  10.194  0.00  0.00    +0.025 A 
ATOM     10  C   UNL     1      -2.826   0.678   9.153  0.00  0.00    +0.025 A 
BRANCH   8  11
ATOM     11  N   UNL     1       0.234  -0.092  11.042  0.00  0.00    -0.269 N 
ATOM     12  C   UNL     1       1.554   0.044  10.804  0.00  0.00    +0.304 C 
ATOM     13  O   UNL     1       1.957   0.164   9.663  0.00  0.00    -0.253 OA
ATOM     14  N   UNL     1       2.427   0.046  11.831  0.00  0.00    -0.296 N 
ATOM     15  H   UNL     1      -0.124  -0.276  12.066  0.00  0.00    +0.156 HD
ATOM     16  H   UNL     1       2.063  -0.063  12.863  0.00  0.00    +0.151 HD
BRANCH  14  17
ATOM     17  C   UNL     1       3.861   0.193  11.572  0.00  0.00    +0.132 C 
BRANCH  17  18
ATOM     18  C   UNL     1       4.613   0.164  12.879  0.00  0.00    -0.016 C 
ATOM     19  C   UNL     1       5.583  -0.698  13.057  0.00  0.00    +0.005 C 
ENDBRANCH  17  18
ENDBRANCH  14  17
ENDBRANCH   8  11
ENDBRANCH   3   5
BRANCH   1  20
ATOM     20  C   UNL     1      -3.939   0.449   4.432  0.00  0.00    +0.214 C 
BRANCH  20  30
ATOM     21  C   UNL     1      -0.070   1.730   2.627  0.00  0.00    +0.010 C 
ATOM     22  C   UNL     1      -0.842   2.274   1.423  0.00  0.00    +0.018 C 
ATOM     23  C   UNL     1      -0.069   1.963   0.138  0.00  0.00    +0.006 C 
ATOM     24  C   UNL     1      -0.852   2.490  -1.067  0.00  0.00    +0.000 C 
ATOM     25  C   UNL     1      -2.220   1.807  -1.127  0.00  0.00    +0.003 C 
ATOM     26  C   UNL     1      -3.001   2.117   0.152  0.00  0.00    +0.035 C 
ATOM     27  C   UNL     1      -2.217   1.617   1.361  0.00  0.00    +0.115 C 
ATOM     28  C   UNL     1      -2.986   1.882   2.635  0.00  0.00    +0.247 C 
ATOM     29  O   UNL     1      -3.324   2.959   3.078  0.00  0.00    -0.273 OA
ATOM     30  N   UNL     1      -3.216   0.668   3.176  0.00  0.00    -0.215 N 
ATOM     31  C   UNL     1      -2.702  -0.313   2.424  0.00  0.00    +0.310 C 
ATOM     32  O   UNL     1      -2.782  -1.493   2.704  0.00  0.00    -0.252 OA
ATOM     33  N   UNL     1      -2.087   0.155   1.321  0.00  0.00    -0.285 N 
ATOM     34  H   UNL     1      -1.560  -0.327   0.484  0.00  0.00    +0.151 HD
ENDBRANCH  20  30
ENDBRANCH   1  20
TORSDOF 6
