REMARK  Name = ZINC21721921
REMARK  6 active torsions:
REMARK  status: ('A' for Active; 'I' for Inactive)
REMARK    1  A    between atoms: C_1  and  C_2
REMARK    2  A    between atoms: C_2  and  C_31
REMARK    3  A    between atoms: C_6  and  C_21
REMARK    4  A    between atoms: N_8  and  C_16
REMARK    5  A    between atoms: C_16  and  C_17
REMARK    6  A    between atoms: N_19  and  C_20
REMARK                            x       y       z     vdW  Elec       q    Type
REMARK                         _______ _______ _______ _____ _____    ______ ____
ROOT
ATOM      1  C   UNL     1       1.057   7.725  -3.541  0.00  0.00    +0.011 C 
ATOM      2  C   UNL     1      -0.226   7.068  -4.055  0.00  0.00    -0.023 C 
ATOM      3  C   UNL     1      -1.414   7.516  -3.205  0.00  0.00    +0.058 C 
ATOM      4  C   UNL     1      -1.191   7.114  -1.759  0.00  0.00    +0.017 C 
ATOM      5  C   UNL     1      -0.530   5.983  -1.452  0.00  0.00    +0.037 C 
ATOM      6  C   UNL     1      -0.282   5.441  -0.065  0.00  0.00    +0.139 C 
ATOM      7  N   UNL     1      -1.042   6.077   0.986  0.00  0.00    -0.308 N 
ATOM      8  C   UNL     1      -0.679   7.395   1.235  0.00  0.00    +0.052 A 
ATOM      9  C   UNL     1       0.003   7.738   2.396  0.00  0.00    +0.025 A 
ATOM     10  C   UNL     1       0.389   9.052   2.595  0.00  0.00    +0.002 A 
ATOM     11  C   UNL     1       0.101  10.018   1.649  0.00  0.00    +0.002 A 
ATOM     12  C   UNL     1      -0.586   9.681   0.495  0.00  0.00    +0.025 A 
ATOM     13  C   UNL     1      -0.978   8.366   0.301  0.00  0.00    +0.052 A 
ATOM     14  N   UNL     1      -1.687   7.971  -0.830  0.00  0.00    -0.316 N 
ATOM     15  C   UNL     1       0.011   5.181  -2.486  0.00  0.00    +0.163 C 
ATOM     16  O   UNL     1       0.598   4.160  -2.187  0.00  0.00    -0.292 OA
ATOM     17  C   UNL     1      -0.113   5.544  -3.934  0.00  0.00    +0.086 C 
ATOM     18  C   UNL     1      -0.457   7.456  -5.517  0.00  0.00    +0.011 C 
ATOM     19  H   UNL     1      -2.696   8.391  -0.951  0.00  0.00    +0.152 HD
ENDROOT
BRANCH   6  20
ATOM     20  C   UNL     1      -0.611   3.970  -0.065  0.00  0.00    -0.022 A 
ATOM     21  C   UNL     1       0.397   3.037  -0.217  0.00  0.00    +0.008 A 
ATOM     22  C   UNL     1       0.096   1.688  -0.217  0.00  0.00    +0.038 A 
ATOM     23  C   UNL     1      -1.216   1.271  -0.064  0.00  0.00    +0.123 A 
ATOM     24  C   UNL     1      -2.225   2.208   0.083  0.00  0.00    +0.038 A 
ATOM     25  C   UNL     1      -1.921   3.556   0.088  0.00  0.00    +0.008 A 
ATOM     26  F   UNL     1      -1.511  -0.047  -0.064  0.00  0.00    -0.205 F 
ENDBRANCH   6  20
BRANCH   7  27
ATOM     27  C   UNL     1      -1.003   5.281   2.220  0.00  0.00    +0.201 C 
BRANCH  27  28
ATOM     28  C   UNL     1      -1.790   5.983   3.296  0.00  0.00    +0.230 C 
ATOM     29  O   UNL     1      -2.433   6.976   3.027  0.00  0.00    -0.274 OA
ATOM     30  N   UNL     1      -1.781   5.508   4.557  0.00  0.00    -0.317 N 
ATOM     31  C   UNL     1      -2.546   6.191   5.603  0.00  0.00    +0.128 C 
ATOM     32  H   UNL     1      -1.198   4.607   4.801  0.00  0.00    +0.148 HD
ENDBRANCH  27  28
ENDBRANCH   7  27
TORSDOF 3
