REMARK  Name = ZINC37237737
REMARK  10 active torsions:
REMARK  status: ('A' for Active; 'I' for Inactive)
REMARK    1  A    between atoms: C_1  and  C_2
REMARK    2  A    between atoms: C_13  and  C_14
REMARK    3  A    between atoms: C_13  and  O_15
REMARK    4  A    between atoms: N_21  and  O_22
REMARK    5  A    between atoms: O_22  and  C_23
REMARK    6  A    between atoms: C_23  and  C_24
REMARK    7  A    between atoms: N_26  and  CA_27
REMARK    8  A    between atoms: CA_27  and  C_29
REMARK    9  A    between atoms: CA_27  and  C_35
REMARK   10  A    between atoms: C_40  and  C_41
REMARK                            x       y       z     vdW  Elec       q    Type
REMARK                         _______ _______ _______ _____ _____    ______ ____
ROOT
ATOM      1  C   UNL     1      -0.019   1.527   0.010  0.00  0.00    +0.014 C 
ATOM      2  C   UNL     1       0.002  -0.004   0.002  0.00  0.00    -0.000 C 
ATOM      3  C   UNL     1       0.627  -0.568  -1.270  0.00  0.00    +0.010 C 
ATOM      4  C   UNL     1       2.125  -0.281  -1.333  0.00  0.00    +0.005 C 
ATOM      5  C   UNL     1       2.847  -0.894  -0.140  0.00  0.00    +0.006 C 
ATOM      6  C   UNL     1       2.230  -0.404   1.155  0.00  0.00    -0.003 C 
ATOM      7  C   UNL     1       0.741  -0.571   1.238  0.00  0.00    +0.001 C 
ATOM      8  C   UNL     1       0.253  -2.027   1.289  0.00  0.00    +0.007 C 
ATOM      9  C   UNL     1      -1.251  -1.919   0.935  0.00  0.00    +0.035 C 
ATOM     10  C   UNL     1      -1.421  -0.593   0.171  0.00  0.00    +0.069 C 
ATOM     11  C   UNL     1      -2.103  -0.836  -1.173  0.00  0.00    +0.042 C 
ATOM     12  C   UNL     1       2.974  -0.980   2.354  0.00  0.00    +0.008 C 
ATOM     13  C   UNL     1       2.895  -2.494   2.403  0.00  0.00    +0.032 C 
ATOM     14  C   UNL     1       2.790  -3.130   1.043  0.00  0.00    -0.058 C 
ATOM     15  C   UNL     1       2.535  -4.447   1.028  0.00  0.00    +0.031 C 
ATOM     16  C   UNL     1       2.354  -5.143  -0.268  0.00  0.00    +0.102 C 
ATOM     17  N   UNL     1       2.411  -6.455  -0.356  0.00  0.00    -0.085 NA
ATOM     18  C   UNL     1       2.072  -4.308  -1.463  0.00  0.00    +0.027 C 
ATOM     19  C   UNL     1       2.353  -3.002  -1.426  0.00  0.00    -0.014 C 
ATOM     20  C   UNL     1       2.993  -2.387  -0.227  0.00  0.00    +0.011 C 
ATOM     21  C   UNL     1       4.499  -2.568  -0.503  0.00  0.00    +0.020 C 
ENDROOT
BRANCH  10  22
ATOM     22  O   UNL     1      -2.220   0.306   0.955  0.00  0.00    -0.388 OA
ATOM     23  H   UNL     1      -3.126   0.001   1.101  0.00  0.00    +0.210 HD
ENDBRANCH  10  22
BRANCH  17  24
ATOM     24  O   UNL     1       2.235  -7.089  -1.609  0.00  0.00    -0.384 OA
BRANCH  24  25
ATOM     25  C   UNL     1       2.322  -8.514  -1.557  0.00  0.00    +0.358 C 
BRANCH  25  26
ATOM     26  C   UNL     1       2.120  -9.081  -2.939  0.00  0.00    +0.254 C 
ATOM     27  O   UNL     1       1.921  -8.337  -3.876  0.00  0.00    -0.272 OA
ATOM     28  N   UNL     1       2.160 -10.414  -3.133  0.00  0.00    -0.296 N 
ATOM     29  H   UNL     1       2.320 -11.009  -2.384  0.00  0.00    +0.150 HD
BRANCH  28  30
ATOM     30  CA  UNL     1       1.964 -10.964  -4.477  0.00  0.00    +0.217 C 
BRANCH  30  31
ATOM     31  C   UNL     1       2.632 -12.312  -4.570  0.00  0.00    -0.016 A 
ATOM     32  C   UNL     1       2.558 -13.195  -3.509  0.00  0.00    +0.006 A 
ATOM     33  C   UNL     1       3.171 -14.431  -3.594  0.00  0.00    +0.000 A 
ATOM     34  C   UNL     1       3.858 -14.784  -4.741  0.00  0.00    +0.000 A 
ATOM     35  C   UNL     1       3.931 -13.902  -5.802  0.00  0.00    +0.000 A 
ATOM     36  C   UNL     1       3.315 -12.667  -5.718  0.00  0.00    +0.006 A 
ENDBRANCH  30  31
BRANCH  30  37
ATOM     37  C   UNL     1       0.489 -11.116  -4.747  0.00  0.00    +0.380 C 
ATOM     38  O   UNL     1       0.065 -11.020  -5.886  0.00  0.00    -0.244 OA
ATOM     39  OXT UNL     1      -0.280 -11.333  -3.826  0.00  0.00    -0.244 OA
ENDBRANCH  30  37
ENDBRANCH  28  30
ENDBRANCH  25  26
ENDBRANCH  24  25
ENDBRANCH  17  24
TORSDOF 7
