REMARK  Name = ZINC03347035
REMARK  8 active torsions:
REMARK  status: ('A' for Active; 'I' for Inactive)
REMARK    1  A    between atoms: C_4  and  C_7
REMARK    2  A    between atoms: C_8  and  S_9
REMARK    3  A    between atoms: S_9  and  N_12
REMARK    4  A    between atoms: N_12  and  C_13
REMARK    5  A    between atoms: C_13  and  C_14
REMARK    6  A    between atoms: N_16  and  N_17
REMARK    7  A    between atoms: C_18  and  C_20
REMARK    8  A    between atoms: C_22  and  C_30
REMARK                            x       y       z     vdW  Elec       q    Type
REMARK                         _______ _______ _______ _____ _____    ______ ____
ROOT
ATOM      1  N   UNL     1       1.143   1.901  -0.017  0.00  0.00    -0.230 N 
ATOM      2  C   UNL     1      -0.014   1.211   0.009  0.00  0.00    +0.261 C 
ATOM      3  O   UNL     1       0.002  -0.004   0.018  0.00  0.00    -0.269 OA
ATOM      4  H   UNL     1       1.130   2.871  -0.025  0.00  0.00    +0.173 HD
ENDROOT
BRANCH   2   5
ATOM      5  C   UNL     1      -1.305   1.933   0.019  0.00  0.00    +0.049 A 
ATOM      6  C   UNL     1      -1.351   3.314   0.130  0.00  0.00    +0.042 A 
ATOM      7  C   UNL     1      -2.594   3.966   0.136  0.00  0.00    +0.072 A 
ATOM      8  N   UNL     1      -3.725   3.297   0.038  0.00  0.00    -0.247 NA
ATOM      9  C   UNL     1      -3.748   1.968  -0.072  0.00  0.00    +0.072 A 
ATOM     10  C   UNL     1      -2.536   1.234  -0.091  0.00  0.00    +0.013 A 
ATOM     11  C   UNL     1      -2.571  -0.160  -0.213  0.00  0.00    +0.011 A 
ATOM     12  C   UNL     1      -3.770  -0.799  -0.316  0.00  0.00    +0.001 A 
ATOM     13  C   UNL     1      -4.965  -0.082  -0.302  0.00  0.00    +0.002 A 
ATOM     14  C   UNL     1      -4.968   1.273  -0.176  0.00  0.00    +0.028 A 
BRANCH   7  15
ATOM     15  C   UNL     1      -2.635   5.444   0.256  0.00  0.00    +0.000 A 
ATOM     16  C   UNL     1      -1.450   6.170   0.366  0.00  0.00    +0.010 A 
ATOM     17  C   UNL     1      -1.494   7.545   0.470  0.00  0.00    +0.001 A 
ATOM     18  C   UNL     1      -2.712   8.202   0.478  0.00  0.00    +0.000 A 
ATOM     19  C   UNL     1      -3.891   7.486   0.375  0.00  0.00    +0.001 A 
ATOM     20  C   UNL     1      -3.859   6.111   0.264  0.00  0.00    +0.010 A 
ENDBRANCH   7  15
ENDBRANCH   2   5
BRANCH   1  23
ATOM     21  C   UNL     1       3.524   1.906  -0.058  0.00  0.00    +0.245 C 
ATOM     22  O   UNL     1       3.507   3.119  -0.068  0.00  0.00    -0.273 OA
ATOM     23  N   UNL     1       2.366   1.217  -0.032  0.00  0.00    -0.233 N 
ATOM     24  H   UNL     1       2.379   0.247  -0.025  0.00  0.00    +0.173 HD
BRANCH  21  25
ATOM     25  C   UNL     1       4.839   1.171  -0.074  0.00  0.00    +0.203 C 
BRANCH  25  26
ATOM     26  N   UNL     1       5.939   2.138  -0.101  0.00  0.00    -0.182 NA
ATOM     27  H   UNL     1       5.764   3.066  -0.324  0.00  0.00    +0.149 HD
BRANCH  26  28
ATOM     28  S   UNL     1       7.481   1.647   0.247  0.00  0.00    +0.052 S 
ATOM     29  O   UNL     1       8.312   2.791   0.112  0.00  0.00    -0.154 OA
ATOM     30  O   UNL     1       7.407   0.898   1.453  0.00  0.00    -0.154 OA
BRANCH  28  32
ATOM     31  C   UNL     1       8.961   0.832  -1.837  0.00  0.00    +0.028 C 
ATOM     32  C   UNL     1       7.968   0.519  -1.016  0.00  0.00    +0.153 C 
BRANCH  31  36
ATOM     33  C   UNL     1      10.133  -1.885  -4.884  0.00  0.00    +0.000 A 
ATOM     34  C   UNL     1      10.789  -0.675  -4.751  0.00  0.00    +0.001 A 
ATOM     35  C   UNL     1      10.414   0.212  -3.763  0.00  0.00    +0.008 A 
ATOM     36  C   UNL     1       9.369  -0.114  -2.897  0.00  0.00    -0.024 A 
ATOM     37  C   UNL     1       8.714  -1.339  -3.034  0.00  0.00    +0.008 A 
ATOM     38  C   UNL     1       9.096  -2.214  -4.029  0.00  0.00    +0.001 A 
ENDBRANCH  31  36
ENDBRANCH  28  32
ENDBRANCH  26  28
ENDBRANCH  25  26
ENDBRANCH  21  25
ENDBRANCH   1  23
TORSDOF 8
