REMARK  Name = ZINC06301202
REMARK  7 active torsions:
REMARK  status: ('A' for Active; 'I' for Inactive)
REMARK    1  A    between atoms: C_1  and  C_2
REMARK    2  A    between atoms: C_4  and  C_38
REMARK    3  A    between atoms: C_9  and  C_14
REMARK    4  A    between atoms: C_14  and  C_16
REMARK    5  A    between atoms: C_14  and  N_73
REMARK    6  A    between atoms: N_20  and  C_21
REMARK    7  A    between atoms: C_21  and  C_22
REMARK                            x       y       z     vdW  Elec       q    Type
REMARK                         _______ _______ _______ _____ _____    ______ ____
ROOT
ATOM      1  C   UNL     1       1.667   6.426  -1.702  0.00  0.00    +0.039 C 
ENDROOT
BRANCH   1  10
ATOM      2  C   UNL     1       4.275  11.481   3.121  0.00  0.00    +0.044 C 
ATOM      3  C   UNL     1       4.100  10.977   1.711  0.00  0.00    -0.050 A 
ATOM      4  C   UNL     1       4.633  11.699   0.652  0.00  0.00    +0.008 A 
ATOM      5  C   UNL     1       4.485  11.257  -0.645  0.00  0.00    -0.026 A 
ATOM      6  C   UNL     1       3.795  10.076  -0.897  0.00  0.00    +0.052 A 
ATOM      7  C   UNL     1       3.256   9.347   0.179  0.00  0.00    -0.001 A 
ATOM      8  C   UNL     1       3.418   9.815   1.488  0.00  0.00    +0.013 A 
ATOM      9  C   UNL     1       2.527   8.108  -0.097  0.00  0.00    +0.017 A 
ATOM     10  C   UNL     1       2.406   7.700  -1.384  0.00  0.00    +0.011 A 
ATOM     11  C   UNL     1       2.966   8.468  -2.428  0.00  0.00    +0.251 A 
ATOM     12  O   UNL     1       2.842   8.086  -3.579  0.00  0.00    -0.268 OA
ATOM     13  N   UNL     1       3.632   9.610  -2.185  0.00  0.00    -0.322 N 
ATOM     14  H   UNL     1       4.004  10.114  -2.926  0.00  0.00    +0.169 HD
ATOM     15  C   UNL     1       5.069  12.050  -1.786  0.00  0.00    +0.046 C 
ENDBRANCH   1  10
BRANCH   1  26
ATOM     16  C   UNL     1      -0.009   5.460  -3.159  0.00  0.00    -0.077 C 
ATOM     17  C   UNL     1      -0.996   5.776  -4.285  0.00  0.00    -0.018 C 
ATOM     18  C   UNL     1      -2.067   6.738  -3.764  0.00  0.00    +0.003 C 
ATOM     19  C   UNL     1      -1.389   8.005  -3.235  0.00  0.00    -0.044 C 
ATOM     20  C   UNL     1      -0.391   7.625  -2.139  0.00  0.00    -0.071 C 
ATOM     21  C   UNL     1      -0.651   8.703  -4.378  0.00  0.00    +0.005 C 
ATOM     22  C   UNL     1       0.025   9.971  -3.852  0.00  0.00    +0.000 C 
ATOM     23  C   UNL     1      -1.036  10.913  -3.277  0.00  0.00    +0.000 C 
ATOM     24  C   UNL     1      -1.772  10.214  -2.132  0.00  0.00    +0.000 C 
ATOM     25  C   UNL     1      -2.448   8.947  -2.658  0.00  0.00    +0.005 C 
ATOM     26  N   UNL     1       0.627   6.718  -2.711  0.00  0.00    +0.390 N 
ATOM     27  H   UNL     1       1.065   7.176  -3.519  0.00  0.00    -0.080 HD
ENDBRANCH   1  26
BRANCH   1  28
ATOM     28  C   UNL     1       2.629   5.415  -2.269  0.00  0.00    +0.143 A 
ATOM     29  N   UNL     1       3.144   5.413  -3.474  0.00  0.00    -0.115 NA
ATOM     30  N   UNL     1       3.918   4.389  -3.575  0.00  0.00    -0.023 NA
ATOM     31  N   UNL     1       3.916   3.740  -2.463  0.00  0.00    -0.044 NA
ATOM     32  N   UNL     1       3.129   4.338  -1.634  0.00  0.00    -0.226 N 
BRANCH  32  33
ATOM     33  C   UNL     1       2.838   3.926  -0.259  0.00  0.00    +0.182 C 
BRANCH  33  34
ATOM     34  C   UNL     1       1.646   3.004  -0.252  0.00  0.00    -0.026 A 
ATOM     35  C   UNL     1       1.827   1.639  -0.377  0.00  0.00    +0.005 A 
ATOM     36  C   UNL     1       0.733   0.793  -0.371  0.00  0.00    +0.000 A 
ATOM     37  C   UNL     1      -0.541   1.313  -0.245  0.00  0.00    +0.000 A 
ATOM     38  C   UNL     1      -0.722   2.677  -0.114  0.00  0.00    +0.000 A 
ATOM     39  C   UNL     1       0.371   3.523  -0.120  0.00  0.00    +0.005 A 
ENDBRANCH  33  34
ENDBRANCH  32  33
ENDBRANCH   1  28
TORSDOF 5
