REMARK  Name = ZINC39964772
REMARK  9 active torsions:
REMARK  status: ('A' for Active; 'I' for Inactive)
REMARK    1  A    between atoms: C_1  and  C_2
REMARK    2  A    between atoms: C_7  and  C_12
REMARK    3  A    between atoms: C_12  and  C_31
REMARK    4  A    between atoms: C_13  and  C_14
REMARK    5  A    between atoms: C_16  and  O_29
REMARK    6  A    between atoms: C_17  and  O_21
REMARK    7  A    between atoms: O_21  and  C_22
REMARK    8  A    between atoms: C_22  and  C_23
REMARK    9  A    between atoms: O_29  and  C_30
REMARK                            x       y       z     vdW  Elec       q    Type
REMARK                         _______ _______ _______ _____ _____    ______ ____
ROOT
ATOM      1  C   UNL     1       0.296  -6.906   2.829  0.00  0.00    -0.019 A 
ATOM      2  C   UNL     1       0.444  -8.219   3.292  0.00  0.00    +0.057 A 
ATOM      3  C   UNL     1       1.704  -8.714   3.565  0.00  0.00    +0.164 A 
ATOM      4  C   UNL     1       2.826  -7.907   3.379  0.00  0.00    +0.181 A 
ATOM      5  C   UNL     1       2.681  -6.604   2.919  0.00  0.00    +0.087 A 
ATOM      6  C   UNL     1       1.427  -6.104   2.639  0.00  0.00    +0.032 A 
ATOM      7 CL   UNL     1       4.082  -5.606   2.689  0.00  0.00    -0.080 Cl
ENDROOT
BRANCH   1   9
ATOM      8  C   UNL     1      -1.230  -5.561   1.476  0.00  0.00    +0.072 C 
ATOM      9  C   UNL     1      -1.043  -6.374   2.537  0.00  0.00    +0.026 C 
BRANCH   8  16
ATOM     10  C   UNL     1       0.332  -0.484  -3.065  0.00  0.00    +0.044 C 
ATOM     11  C   UNL     1       0.074  -1.859  -2.505  0.00  0.00    -0.048 A 
ATOM     12  C   UNL     1      -0.480  -2.838  -3.349  0.00  0.00    +0.005 A 
ATOM     13  C   UNL     1      -0.744  -4.093  -2.931  0.00  0.00    +0.027 A 
ATOM     14  C   UNL     1      -0.447  -4.472  -1.543  0.00  0.00    +0.060 A 
ATOM     15  N   UNL     1      -0.593  -5.581  -0.878  0.00  0.00    -0.359 N 
ATOM     16  C   UNL     1      -0.112  -5.343   0.489  0.00  0.00    +0.216 C 
ATOM     17  N   UNL     1       0.334  -3.944   0.532  0.00  0.00    -0.359 N 
ATOM     18  C   UNL     1       0.140  -3.435  -0.650  0.00  0.00    +0.061 A 
ATOM     19  C   UNL     1       0.389  -2.103  -1.217  0.00  0.00    +0.030 A 
ATOM     20  H   UNL     1      -0.954  -6.413  -1.222  0.00  0.00    +0.162 HD
ATOM     21  H   UNL     1       0.706  -3.484   1.301  0.00  0.00    +0.162 HD
ENDBRANCH   8  16
BRANCH   8  22
ATOM     22  C   UNL     1      -2.489  -4.907   1.288  0.00  0.00    +0.099 C 
ATOM     23  N   UNL     1      -3.489  -4.388   1.139  0.00  0.00    -0.191 NA
ENDBRANCH   8  22
ENDBRANCH   1   9
BRANCH   3  24
ATOM     24  O   UNL     1       1.851  -9.989   4.015  0.00  0.00    -0.491 OA
ATOM     25  C   UNL     1       0.659 -10.758   4.183  0.00  0.00    +0.277 C 
ENDBRANCH   3  24
BRANCH   4  26
ATOM     26  O   UNL     1       4.065  -8.396   3.648  0.00  0.00    -0.482 OA
BRANCH  26  27
ATOM     27  C   UNL     1       4.754  -9.043   2.576  0.00  0.00    +0.264 C 
BRANCH  27  28
ATOM     28  C   UNL     1       6.101  -9.517   3.059  0.00  0.00    -0.010 A 
ATOM     29  C   UNL     1       7.201  -8.685   2.964  0.00  0.00    +0.007 A 
ATOM     30  C   UNL     1       8.436  -9.120   3.407  0.00  0.00    +0.000 A 
ATOM     31  C   UNL     1       8.571 -10.387   3.944  0.00  0.00    +0.000 A 
ATOM     32  C   UNL     1       7.471 -11.218   4.040  0.00  0.00    +0.000 A 
ATOM     33  C   UNL     1       6.235 -10.782   3.601  0.00  0.00    +0.007 A 
ENDBRANCH  27  28
ENDBRANCH  26  27
ENDBRANCH   4  26
TORSDOF 7
