REMARK  Name = ZINC15320688
REMARK  5 active torsions:
REMARK  status: ('A' for Active; 'I' for Inactive)
REMARK    1  A    between atoms: C_1  and  C_2
REMARK    2  A    between atoms: N_10  and  C_13
REMARK    3  A    between atoms: C_13  and  C_14
REMARK    4  A    between atoms: N_28  and  C_31
REMARK    5  A    between atoms: C_31  and  C_32
REMARK                            x       y       z     vdW  Elec       q    Type
REMARK                         _______ _______ _______ _____ _____    ______ ____
ROOT
ATOM      1  C   UNL     1      -0.019   1.526   0.010  0.00  0.00    +0.025 C 
ATOM      2  C   UNL     1       0.002  -0.004   0.002  0.00  0.00    +0.064 C 
ATOM      3  C   UNL     1      -1.397  -0.572   0.218  0.00  0.00    +0.107 C 
ATOM      4  C   UNL     1      -1.544  -0.187   1.736  0.00  0.00    +0.122 C 
ATOM      5  C   UNL     1      -2.963  -0.331   1.949  0.00  0.00    +0.229 C 
ATOM      6  O   UNL     1      -3.527  -0.682   2.963  0.00  0.00    -0.275 OA
ATOM      7  N   UNL     1      -3.537   0.019   0.750  0.00  0.00    -0.237 N 
ATOM      8  C   UNL     1      -2.615   0.146  -0.273  0.00  0.00    +0.227 C 
ATOM      9  O   UNL     1      -2.753   0.716  -1.333  0.00  0.00    -0.275 OA
ATOM     10  C   UNL     1      -0.249  -0.474   2.345  0.00  0.00    +0.136 C 
ATOM     11  N   UNL     1       0.730  -0.542   1.206  0.00  0.00    -0.296 NA
ATOM     12  C   UNL     1       0.232   0.568   3.324  0.00  0.00    +0.004 A 
ATOM     13  C   UNL     1       0.414   1.930   3.234  0.00  0.00    +0.008 A 
ATOM     14  C   UNL     1       0.882   2.638   4.327  0.00  0.00    +0.000 A 
ATOM     15  C   UNL     1       1.165   1.975   5.507  0.00  0.00    +0.002 A 
ATOM     16  C   UNL     1       0.981   0.611   5.601  0.00  0.00    +0.024 A 
ATOM     17  C   UNL     1       0.510  -0.110   4.505  0.00  0.00    +0.042 A 
ATOM     18  N   UNL     1       0.247  -1.472   4.354  0.00  0.00    -0.260 N 
ATOM     19  C   UNL     1      -0.200  -1.770   3.122  0.00  0.00    +0.246 C 
ATOM     20  O   UNL     1      -0.506  -2.869   2.711  0.00  0.00    -0.273 OA
ATOM     21  H   UNL     1       1.031  -1.492   1.052  0.00  0.00    +0.123 HD
ENDROOT
BRANCH   7  22
ATOM     22  C   UNL     1      -4.976   0.225   0.567  0.00  0.00    +0.151 C 
BRANCH  22  23
ATOM     23  C   UNL     1      -5.315   1.669   0.832  0.00  0.00    -0.030 A 
ATOM     24  C   UNL     1      -5.649   2.078   2.110  0.00  0.00    +0.005 A 
ATOM     25  C   UNL     1      -5.960   3.403   2.352  0.00  0.00    +0.000 A 
ATOM     26  C   UNL     1      -5.937   4.319   1.317  0.00  0.00    +0.000 A 
ATOM     27  C   UNL     1      -5.603   3.910   0.040  0.00  0.00    +0.000 A 
ATOM     28  C   UNL     1      -5.288   2.586  -0.202  0.00  0.00    +0.005 A 
ENDBRANCH  22  23
ENDBRANCH   7  22
BRANCH  18  29
ATOM     29  C   UNL     1       0.437  -2.463   5.416  0.00  0.00    +0.210 C 
BRANCH  29  30
ATOM     30  C   UNL     1      -0.834  -2.594   6.215  0.00  0.00    +0.238 C 
ATOM     31  O   UNL     1      -1.803  -1.925   5.925  0.00  0.00    -0.274 OA
ATOM     32  N   UNL     1      -0.894  -3.454   7.250  0.00  0.00    -0.270 N 
ATOM     33  C   UNL     1      -2.072  -3.672   8.094  0.00  0.00    +0.118 C 
ATOM     34  C   UNL     1      -1.642  -4.734   9.120  0.00  0.00    +0.056 C 
ATOM     35  C   UNL     1      -0.205  -5.046   8.766  0.00  0.00    -0.024 A 
ATOM     36  C   UNL     1       0.157  -4.274   7.673  0.00  0.00    +0.040 A 
ATOM     37  C   UNL     1       1.448  -4.394   7.157  0.00  0.00    +0.024 A 
ATOM     38  C   UNL     1       2.346  -5.272   7.727  0.00  0.00    +0.002 A 
ATOM     39  C   UNL     1       1.973  -6.041   8.814  0.00  0.00    +0.000 A 
ATOM     40  C   UNL     1       0.699  -5.921   9.336  0.00  0.00    +0.005 A 
ENDBRANCH  29  30
ENDBRANCH  18  29
TORSDOF 4
