REMARK  Name = ZINC13398670
REMARK  7 active torsions:
REMARK  status: ('A' for Active; 'I' for Inactive)
REMARK    1  A    between atoms: C_1  and  C_2
REMARK    2  A    between atoms: C_5  and  C_8
REMARK    3  A    between atoms: C_13  and  S_17
REMARK    4  A    between atoms: S_17  and  C_18
REMARK    5  A    between atoms: C_18  and  C_19
REMARK    6  A    between atoms: C_27  and  C_33
REMARK    7  A    between atoms: C_28  and  C_30
REMARK                            x       y       z     vdW  Elec       q    Type
REMARK                         _______ _______ _______ _____ _____    ______ ____
ROOT
ATOM      1  S   UNL     1       3.114  -2.972   1.716  0.00  0.00    -0.100 S 
ENDROOT
BRANCH   1   7
ATOM      2  C   UNL     1       1.227  -4.574  -0.417  0.00  0.00    +0.001 A 
ATOM      3  C   UNL     1       0.477  -5.317  -1.264  0.00  0.00    +0.056 A 
ATOM      4  S   UNL     1       0.775  -6.990  -0.727  0.00  0.00    -0.076 S 
ATOM      5  C   UNL     1       1.890  -6.660   0.612  0.00  0.00    +0.113 A 
ATOM      6  C   UNL     1       2.011  -5.255   0.607  0.00  0.00    +0.047 A 
ATOM      7  C   UNL     1       2.872  -4.714   1.600  0.00  0.00    +0.109 A 
ATOM      8  N   UNL     1       3.490  -5.534   2.437  0.00  0.00    -0.229 NA
ATOM      9  C   UNL     1       3.333  -6.843   2.380  0.00  0.00    +0.223 A 
ATOM     10  N   UNL     1       2.540  -7.403   1.487  0.00  0.00    -0.228 NA
BRANCH   2  15
ATOM     11  C   UNL     1       1.342   1.166  -0.863  0.00  0.00    +0.044 C 
ATOM     12  C   UNL     1       1.312  -0.336  -0.746  0.00  0.00    -0.050 A 
ATOM     13  C   UNL     1       0.110  -0.987  -0.530  0.00  0.00    +0.004 A 
ATOM     14  C   UNL     1       0.076  -2.362  -0.422  0.00  0.00    +0.009 A 
ATOM     15  C   UNL     1       1.257  -3.096  -0.532  0.00  0.00    -0.017 A 
ATOM     16  C   UNL     1       2.465  -2.435  -0.751  0.00  0.00    +0.009 A 
ATOM     17  C   UNL     1       2.485  -1.060  -0.862  0.00  0.00    +0.004 A 
ENDBRANCH   2  15
ENDBRANCH   1   7
BRANCH   1  18
ATOM     18  C   UNL     1       4.268  -2.781   3.103  0.00  0.00    +0.111 C 
BRANCH  18  19
ATOM     19  C   UNL     1       4.563  -1.319   3.313  0.00  0.00    -0.022 A 
ATOM     20  C   UNL     1       5.657  -0.761   2.745  0.00  0.00    +0.075 A 
ATOM     21  C   UNL     1       5.949   0.603   2.930  0.00  0.00    +0.250 A 
ATOM     22  O   UNL     1       6.939   1.091   2.412  0.00  0.00    -0.268 OA
ATOM     23  N   UNL     1       5.132   1.368   3.680  0.00  0.00    -0.317 N 
ATOM     24  H   UNL     1       5.335   2.308   3.806  0.00  0.00    +0.169 HD
ATOM     25  C   UNL     1       4.026   0.835   4.262  0.00  0.00    +0.089 A 
ATOM     26  C   UNL     1       3.683  -0.517   4.108  0.00  0.00    +0.014 A 
ATOM     27  C   UNL     1       2.509  -0.924   4.763  0.00  0.00    -0.020 A 
ATOM     28  C   UNL     1       1.829   0.027   5.469  0.00  0.00    +0.106 A 
ATOM     29  S   UNL     1       2.827   1.483   5.232  0.00  0.00    -0.064 S 
ATOM     30  C   UNL     1       2.021  -2.348   4.690  0.00  0.00    +0.046 C 
BRANCH  28  31
ATOM     31  C   UNL     1       0.630  -0.113   6.214  0.00  0.00    +0.393 C 
ATOM     32  O   UNL     1       0.072  -1.202   6.278  0.00  0.00    -0.240 OA
ATOM     33  O   UNL     1       0.152   0.855   6.793  0.00  0.00    -0.240 OA
ENDBRANCH  28  31
ENDBRANCH  18  19
ENDBRANCH   1  18
TORSDOF 5
