REMARK  Name = ZINC39303473
REMARK  5 active torsions:
REMARK  status: ('A' for Active; 'I' for Inactive)
REMARK    1  A    between atoms: C_4  and  C_7
REMARK    2  A    between atoms: C_13  and  C_15
REMARK    3  A    between atoms: N_17  and  C_18
REMARK    4  A    between atoms: C_18  and  C_26
REMARK    5  A    between atoms: C_23  and  O_25
REMARK                            x       y       z     vdW  Elec       q    Type
REMARK                         _______ _______ _______ _____ _____    ______ ____
ROOT
ATOM      1  C   UNL     1       5.697  -2.505   1.403  0.00  0.00    +0.234 C 
ATOM      2  O   UNL     1       5.278  -1.639   2.141  0.00  0.00    -0.274 OA
ATOM      3  N   UNL     1       6.841  -3.151   1.703  0.00  0.00    -0.302 N 
ATOM      4  H   UNL     1       7.216  -3.790   1.077  0.00  0.00    +0.150 HD
ENDROOT
BRANCH   1  11
ATOM      5  C   UNL     1       3.716  -0.680  -0.061  0.00  0.00    +0.247 C 
ATOM      6  O   UNL     1       4.758  -0.066  -0.177  0.00  0.00    -0.270 OA
ATOM      7  N   UNL     1       3.733  -2.023   0.042  0.00  0.00    -0.286 N 
ATOM      8  C   UNL     1       2.547  -2.899   0.059  0.00  0.00    +0.109 C 
ATOM      9  C   UNL     1       3.064  -4.275  -0.430  0.00  0.00    +0.021 C 
ATOM     10  C   UNL     1       4.472  -4.328   0.220  0.00  0.00    +0.033 C 
ATOM     11  C   UNL     1       4.938  -2.859   0.150  0.00  0.00    +0.162 C 
BRANCH   5  15
ATOM     12  C   UNL     1       0.018   1.409   0.021  0.00  0.00    +0.000 A 
ATOM     13  C   UNL     1       1.118   1.979  -0.595  0.00  0.00    +0.001 A 
ATOM     14  C   UNL     1       2.322   1.306  -0.625  0.00  0.00    +0.013 A 
ATOM     15  C   UNL     1       2.429   0.047  -0.032  0.00  0.00    +0.037 A 
ATOM     16  C   UNL     1       1.316  -0.522   0.588  0.00  0.00    +0.013 A 
ATOM     17  C   UNL     1       0.118   0.161   0.611  0.00  0.00    +0.001 A 
ENDBRANCH   5  15
ENDBRANCH   1  11
BRANCH   3  18
ATOM     18  C   UNL     1       7.518  -2.889   2.975  0.00  0.00    +0.085 C 
ATOM     19  C   UNL     1       6.543  -3.126   4.131  0.00  0.00    +0.033 C 
ATOM     20  C   UNL     1       6.060  -4.577   4.100  0.00  0.00    +0.003 C 
ATOM     21  C   UNL     1       7.259  -5.517   4.243  0.00  0.00    +0.003 C 
ATOM     22  C   UNL     1       8.234  -5.280   3.088  0.00  0.00    +0.034 C 
ATOM     23  C   UNL     1       8.717  -3.829   3.118  0.00  0.00    +0.142 C 
BRANCH  18  24
ATOM     24  C   UNL     1       7.994  -1.459   3.005  0.00  0.00    -0.022 A 
ATOM     25  C   UNL     1       8.192  -0.822   4.216  0.00  0.00    +0.006 A 
ATOM     26  C   UNL     1       8.629   0.489   4.243  0.00  0.00    +0.000 A 
ATOM     27  C   UNL     1       8.868   1.163   3.060  0.00  0.00    +0.000 A 
ATOM     28  C   UNL     1       8.671   0.525   1.850  0.00  0.00    +0.000 A 
ATOM     29  C   UNL     1       8.239  -0.787   1.822  0.00  0.00    +0.006 A 
ENDBRANCH  18  24
BRANCH  23  30
ATOM     30  O   UNL     1       9.627  -3.607   2.039  0.00  0.00    -0.389 OA
ATOM     31  H   UNL     1      10.413  -4.170   2.066  0.00  0.00    +0.210 HD
ENDBRANCH  23  30
ENDBRANCH   3  18
TORSDOF 5
