REMARK  Name = ZINC35288160
REMARK  8 active torsions:
REMARK  status: ('A' for Active; 'I' for Inactive)
REMARK    1  A    between atoms: C_1  and  C_2
REMARK    2  A    between atoms: C_5  and  C_9
REMARK    3  A    between atoms: C_6  and  C_8
REMARK    4  A    between atoms: C_9  and  C_10
REMARK    5  A    between atoms: C_12  and  C_20
REMARK    6  A    between atoms: C_13  and  C_17
REMARK    7  A    between atoms: C_17  and  C_18
REMARK    8  A    between atoms: C_17  and  C_19
REMARK                            x       y       z     vdW  Elec       q    Type
REMARK                         _______ _______ _______ _____ _____    ______ ____
ROOT
ATOM      1  C   UNL     1      -1.349  -4.797   0.107  0.00  0.00    +0.114 A 
ATOM      2  N   UNL     1      -2.337  -3.948   0.203  0.00  0.00    -0.238 NA
ATOM      3  C   UNL     1      -3.602  -4.360   0.319  0.00  0.00    +0.049 A 
ATOM      4  C   UNL     1      -3.883  -5.693   0.339  0.00  0.00    +0.040 A 
ATOM      5  C   UNL     1      -2.816  -6.609   0.235  0.00  0.00    +0.255 A 
ATOM      6  N   UNL     1      -1.560  -6.127   0.116  0.00  0.00    -0.310 N 
ATOM      7  O   UNL     1      -3.023  -7.811   0.249  0.00  0.00    -0.267 OA
ATOM      8  C   UNL     1      -4.717  -3.352   0.427  0.00  0.00    +0.066 C 
ATOM      9  H   UNL     1      -0.811  -6.739   0.040  0.00  0.00    +0.170 HD
ENDROOT
BRANCH   4  10
ATOM     10  C   UNL     1      -5.304  -6.178   0.469  0.00  0.00    +0.020 C 
ATOM     11  C   UNL     1      -5.670  -7.019  -0.756  0.00  0.00    +0.012 C 
ATOM     12  C   UNL     1      -5.438  -7.031   1.732  0.00  0.00    +0.012 C 
ENDBRANCH   4  10
BRANCH   1  13
ATOM     13  C   UNL     1       0.059  -4.275  -0.021  0.00  0.00    +0.109 C 
BRANCH  13  18
ATOM     14  C   UNL     1      -0.018   1.503   0.010  0.00  0.00    +0.044 C 
ATOM     15  C   UNL     1       0.002  -0.004   0.002  0.00  0.00    -0.050 A 
ATOM     16  C   UNL     1       0.006  -0.689  -1.199  0.00  0.00    +0.003 A 
ATOM     17  C   UNL     1       0.025  -2.071  -1.207  0.00  0.00    +0.004 A 
ATOM     18  C   UNL     1       0.040  -2.768  -0.013  0.00  0.00    -0.037 A 
ATOM     19  C   UNL     1       0.037  -2.084   1.188  0.00  0.00    -0.047 A 
ATOM     20  C   UNL     1       0.023  -0.702   1.195  0.00  0.00    +0.007 A 
ATOM     21  C   UNL     1       0.054  -2.845   2.489  0.00  0.00    +0.044 C 
ENDBRANCH  13  18
ENDBRANCH   1  13
TORSDOF 3
