REMARK  Name = ZINC35374841
REMARK  11 active torsions:
REMARK  status: ('A' for Active; 'I' for Inactive)
REMARK    1  A    between atoms: C_1  and  C_2
REMARK    2  A    between atoms: C_2  and  C_3
REMARK    3  A    between atoms: C_2  and  C_4
REMARK    4  A    between atoms: C_4  and  C_5
REMARK    5  A    between atoms: C_5  and  C_7
REMARK    6  A    between atoms: C_5  and  N_19
REMARK    7  A    between atoms: N_9  and  C_10
REMARK    8  A    between atoms: C_13  and  C_16
REMARK    9  A    between atoms: C_16  and  C_17
REMARK   10  A    between atoms: C_16  and  C_18
REMARK   11  A    between atoms: C_20  and  C_22
REMARK                            x       y       z     vdW  Elec       q    Type
REMARK                         _______ _______ _______ _____ _____    ______ ____
ROOT
ATOM      1  C   UNL     1      -1.413  -2.063  -0.118  0.00  0.00    +0.159 C 
ENDROOT
BRANCH   1   2
ATOM      2  C   UNL     1      -2.820  -2.588   0.012  0.00  0.00    +0.238 C 
ATOM      3  O   UNL     1      -3.323  -3.207  -0.902  0.00  0.00    -0.273 OA
ATOM      4  N   UNL     1      -3.518  -2.371   1.144  0.00  0.00    -0.284 N 
ATOM      5  H   UNL     1      -3.094  -1.935   1.899  0.00  0.00    +0.155 HD
BRANCH   4   6
ATOM      6  C   UNL     1      -4.856  -2.773   1.229  0.00  0.00    +0.033 A 
ATOM      7  C   UNL     1      -5.768  -2.008   1.944  0.00  0.00    +0.023 A 
ATOM      8  C   UNL     1      -7.088  -2.408   2.026  0.00  0.00    +0.006 A 
ATOM      9  C   UNL     1      -7.500  -3.568   1.397  0.00  0.00    -0.045 A 
ATOM     10  C   UNL     1      -6.594  -4.332   0.685  0.00  0.00    +0.006 A 
ATOM     11  C   UNL     1      -5.274  -3.935   0.594  0.00  0.00    +0.023 A 
BRANCH   9  12
ATOM     12  C   UNL     1      -8.941  -4.002   1.489  0.00  0.00    +0.013 C 
ATOM     13  C   UNL     1      -9.542  -4.075   0.084  0.00  0.00    +0.012 C 
ATOM     14  C   UNL     1      -9.018  -5.380   2.149  0.00  0.00    +0.012 C 
ENDBRANCH   9  12
ENDBRANCH   4   6
ENDBRANCH   1   2
BRANCH   1  15
ATOM     15  N   UNL     1      -0.875  -2.429  -1.431  0.00  0.00    -0.303 N 
ATOM     16  C   UNL     1       0.457  -2.533  -1.608  0.00  0.00    +0.231 C 
ATOM     17  O   UNL     1       1.210  -2.325  -0.681  0.00  0.00    -0.274 OA
ATOM     18  H   UNL     1      -1.478  -2.595  -2.173  0.00  0.00    +0.149 HD
BRANCH  16  19
ATOM     19  C   UNL     1       1.010  -2.909  -2.959  0.00  0.00    +0.145 C 
ATOM     20  C   UNL     1       0.915  -4.423  -3.150  0.00  0.00    +0.063 C 
ATOM     21  C   UNL     1       1.679  -4.835  -4.381  0.00  0.00    -0.041 A 
ATOM     22  C   UNL     1       1.429  -6.085  -4.928  0.00  0.00    +0.004 A 
ATOM     23  C   UNL     1       2.110  -6.503  -6.053  0.00  0.00    +0.000 A 
ATOM     24  C   UNL     1       3.047  -5.672  -6.639  0.00  0.00    +0.000 A 
ATOM     25  C   UNL     1       3.295  -4.427  -6.097  0.00  0.00    +0.005 A 
ATOM     26  C   UNL     1       2.610  -4.004  -4.968  0.00  0.00    -0.030 A 
ATOM     27  C   UNL     1       2.907  -2.633  -4.420  0.00  0.00    +0.117 C 
ATOM     28  N   UNL     1       2.425  -2.511  -3.041  0.00  0.00    -0.301 NA
ATOM     29  H   UNL     1       2.558  -1.575  -2.690  0.00  0.00    +0.123 HD
ENDBRANCH  16  19
ENDBRANCH   1  15
BRANCH   1  30
ATOM     30  C   UNL     1      -1.423  -0.540   0.023  0.00  0.00    +0.034 C 
BRANCH  30  32
ATOM     31  C   UNL     1       0.003   1.512   0.031  0.00  0.00    +0.007 C 
ATOM     32  C   UNL     1       0.016  -0.018   0.015  0.00  0.00    -0.015 C 
ATOM     33  C   UNL     1       0.752  -0.535   1.253  0.00  0.00    +0.007 C 
ENDBRANCH  30  32
ENDBRANCH   1  30
TORSDOF 7
