REMARK  Name = ZINC43244521
REMARK  6 active torsions:
REMARK  status: ('A' for Active; 'I' for Inactive)
REMARK    1  A    between atoms: C_1  and  C_2
REMARK    2  A    between atoms: C_5  and  C_7
REMARK    3  A    between atoms: C_7  and  C_9
REMARK    4  A    between atoms: C_7  and  O_11
REMARK    5  A    between atoms: C_9  and  N_10
REMARK    6  A    between atoms: O_11  and  C_12
REMARK                            x       y       z     vdW  Elec       q    Type
REMARK                         _______ _______ _______ _____ _____    ______ ____
ROOT
ATOM      1  C   UNL     1       1.035  -4.056  -0.016  0.00  0.00    +0.193 C 
ENDROOT
BRANCH   1   6
ATOM      2  C   UNL     1      -0.126   1.484   0.198  0.00  0.00    +0.051 C 
ATOM      3  C   UNL     1      -0.079  -0.021   0.144  0.00  0.00    -0.013 A 
ATOM      4  C   UNL     1      -1.104  -0.908   0.124  0.00  0.00    +0.011 A 
ATOM      5  C   UNL     1      -0.821  -2.259   0.072  0.00  0.00    +0.015 A 
ATOM      6  C   UNL     1       0.474  -2.659   0.042  0.00  0.00    +0.028 A 
ATOM      7  S   UNL     1       1.343  -1.100   0.081  0.00  0.00    -0.095 S 
ENDBRANCH   1   6
BRANCH   1   8
ATOM      8  C   UNL     1       1.440  -4.385  -1.454  0.00  0.00    -0.036 C 
BRANCH   8   9
ATOM      9  N   UNL     1       1.875  -5.786  -1.533  0.00  0.00    +0.381 N 
ATOM     10  H   UNL     1       1.117  -6.389  -1.251  0.00  0.00    -0.090 HD
ATOM     11  H   UNL     1       2.142  -6.002  -2.482  0.00  0.00    -0.090 HD
ATOM     12  H   UNL     1       2.664  -5.928  -0.921  0.00  0.00    -0.090 HD
ENDBRANCH   8   9
ENDBRANCH   1   8
BRANCH   1  13
ATOM     13  O   UNL     1       2.181  -4.145   0.833  0.00  0.00    -0.483 OA
BRANCH  13  14
ATOM     14  C   UNL     1       2.352  -5.306   1.519  0.00  0.00    +0.147 A 
ATOM     15  C   UNL     1       1.519  -6.364   1.295  0.00  0.00    +0.049 A 
ATOM     16  C   UNL     1       1.678  -7.561   1.988  0.00  0.00    +0.024 A 
ATOM     17  C   UNL     1       2.671  -7.711   2.910  0.00  0.00    +0.050 A 
ATOM     18  C   UNL     1       3.548  -6.644   3.167  0.00  0.00    +0.022 A 
ATOM     19  C   UNL     1       3.395  -5.425   2.461  0.00  0.00    +0.114 A 
ATOM     20  N   UNL     1       4.230  -4.409   2.698  0.00  0.00    -0.251 NA
ATOM     21  C   UNL     1       5.200  -4.515   3.573  0.00  0.00    +0.111 A 
ATOM     22  C   UNL     1       5.410  -5.686   4.297  0.00  0.00    +0.020 A 
ATOM     23  C   UNL     1       4.585  -6.759   4.112  0.00  0.00    +0.013 A 
ATOM     24 CL   UNL     1       2.850  -9.212   3.763  0.00  0.00    -0.083 Cl
ENDBRANCH  13  14
ENDBRANCH   1  13
TORSDOF 5
