REMARK  Name = ZINC23297202
REMARK  6 active torsions:
REMARK  status: ('A' for Active; 'I' for Inactive)
REMARK    1  A    between atoms: C_1  and  C_2
REMARK    2  A    between atoms: C_5  and  N_8
REMARK    3  A    between atoms: C_11  and  C_16
REMARK    4  A    between atoms: C_16  and  N_17
REMARK    5  A    between atoms: N_20  and  C_23
REMARK    6  A    between atoms: C_23  and  C_24
REMARK                            x       y       z     vdW  Elec       q    Type
REMARK                         _______ _______ _______ _____ _____    ______ ____
ROOT
ATOM      1  N   UNL     1       3.466   2.064  -0.019  0.00  0.00    -0.284 N 
ATOM      2  C   UNL     1       2.294   1.351  -0.182  0.00  0.00    +0.224 A 
ATOM      3  N   UNL     1       1.122   1.982  -0.158  0.00  0.00    -0.201 NA
ATOM      4  C   UNL     1       0.000   1.301  -0.313  0.00  0.00    +0.120 A 
ATOM      5  N   UNL     1       0.037  -0.008  -0.492  0.00  0.00    -0.202 NA
ATOM      6  C   UNL     1       1.205  -0.645  -0.517  0.00  0.00    +0.217 A 
ATOM      7  N   UNL     1       2.335   0.036  -0.362  0.00  0.00    -0.181 NA
ATOM      8  N   UNL     1       1.242  -2.012  -0.704  0.00  0.00    -0.327 N 
ATOM      9  H   UNL     1       3.438   3.162   0.039  0.00  0.00    +0.155 HD
ATOM     10  H   UNL     1       2.208  -2.538  -0.725  0.00  0.00    +0.145 HD
ATOM     11  H   UNL     1       0.306  -2.575  -0.832  0.00  0.00    +0.145 HD
ENDROOT
BRANCH   1  16
ATOM     12  C   UNL     1       8.421  -0.671   0.350  0.00  0.00    +0.044 C 
ATOM     13  C   UNL     1       7.105   0.055   0.252  0.00  0.00    -0.050 A 
ATOM     14  C   UNL     1       7.047   1.301  -0.345  0.00  0.00    +0.005 A 
ATOM     15  C   UNL     1       5.843   1.970  -0.437  0.00  0.00    +0.023 A 
ATOM     16  C   UNL     1       4.688   1.390   0.071  0.00  0.00    +0.034 A 
ATOM     17  C   UNL     1       4.750   0.140   0.675  0.00  0.00    +0.023 A 
ATOM     18  C   UNL     1       5.957  -0.525   0.759  0.00  0.00    +0.005 A 
ENDBRANCH   1  16
BRANCH   4  19
ATOM     19  C   UNL     1      -1.324   2.020  -0.292  0.00  0.00    -0.001 C 
BRANCH  19  20
ATOM     20  N   UNL     1      -1.836   2.063   1.085  0.00  0.00    +0.386 N 
ATOM     21  C   UNL     1      -2.165   0.715   1.567  0.00  0.00    -0.063 C 
ATOM     22  C   UNL     1      -2.618   0.795   3.027  0.00  0.00    +0.066 C 
ATOM     23  N   UNL     1      -3.781   1.687   3.129  0.00  0.00    -0.302 NA
ATOM     24  C   UNL     1      -3.451   3.035   2.646  0.00  0.00    +0.066 C 
ATOM     25  C   UNL     1      -2.999   2.955   1.186  0.00  0.00    -0.063 C 
ATOM     26  H   UNL     1      -1.040   2.469   1.727  0.00  0.00    -0.081 HD
BRANCH  23  27
ATOM     27  C   UNL     1      -4.292   1.730   4.505  0.00  0.00    +0.119 C 
BRANCH  27  28
ATOM     28  C   UNL     1      -4.387   0.329   5.051  0.00  0.00    -0.033 A 
ATOM     29  C   UNL     1      -5.552  -0.397   4.893  0.00  0.00    +0.006 A 
ATOM     30  C   UNL     1      -5.638  -1.685   5.388  0.00  0.00    +0.020 A 
ATOM     31  C   UNL     1      -4.560  -2.243   6.052  0.00  0.00    +0.041 A 
ATOM     32  C   UNL     1      -3.395  -1.514   6.215  0.00  0.00    +0.020 A 
ATOM     33  C   UNL     1      -3.309  -0.228   5.714  0.00  0.00    +0.006 A 
ATOM     34 CL   UNL     1      -4.668  -3.858   6.680  0.00  0.00    -0.084 Cl
ENDBRANCH  27  28
ENDBRANCH  23  27
ENDBRANCH  19  20
ENDBRANCH   4  19
TORSDOF 5
