REMARK  Name = ZINC20889465
REMARK  1 active torsions:
REMARK  status: ('A' for Active; 'I' for Inactive)
REMARK    1  A    between atoms: C_14  and  N_17
REMARK                            x       y       z     vdW  Elec       q    Type
REMARK                         _______ _______ _______ _____ _____    ______ ____
ROOT
ATOM      1  C   UNL     1       1.190  -0.688  -0.013  0.00  0.00    +0.002 A 
ATOM      2  C   UNL     1       2.408  -0.025  -0.021  0.00  0.00    +0.001 A 
ATOM      3  C   UNL     1       2.426   1.358  -0.013  0.00  0.00    +0.017 A 
ATOM      4  C   UNL     1       1.242   2.051   0.001  0.00  0.00    +0.041 A 
ATOM      5  C   UNL     1      -0.017   1.410   0.010  0.00  0.00    +0.080 A 
ATOM      6  C   UNL     1       0.002  -0.004   0.002  0.00  0.00    +0.029 A 
ATOM      7  N   UNL     1      -1.091   2.229   0.019  0.00  0.00    -0.225 NA
ATOM      8  C   UNL     1      -0.980   3.538   0.030  0.00  0.00    +0.162 A 
ATOM      9  S   UNL     1       0.792   3.770   0.014  0.00  0.00    -0.052 S 
ATOM     10  N   UNL     1      -1.977   4.492   0.043  0.00  0.00    -0.308 N 
ATOM     11  C   UNL     1      -1.815   5.407   1.179  0.00  0.00    +0.107 C 
ATOM     12  C   UNL     1      -2.847   6.533   1.081  0.00  0.00    +0.021 C 
ATOM     13  C   UNL     1      -4.254   5.930   1.085  0.00  0.00    +0.025 C 
ATOM     14  C   UNL     1      -4.382   4.944  -0.079  0.00  0.00    +0.092 C 
ATOM     15  C   UNL     1      -3.305   3.864   0.053  0.00  0.00    +0.129 C 
ENDROOT
BRANCH  14  16
ATOM     16  N   UNL     1      -5.707   4.319  -0.049  0.00  0.00    -0.295 N 
ATOM     17  C   UNL     1      -6.246   3.826  -1.181  0.00  0.00    +0.303 C 
ATOM     18  O   UNL     1      -5.632   3.900  -2.228  0.00  0.00    -0.253 OA
ATOM     19  N   UNL     1      -7.465   3.252  -1.153  0.00  0.00    -0.282 N 
ATOM     20  C   UNL     1      -8.082   2.703  -2.373  0.00  0.00    +0.113 C 
ATOM     21  C   UNL     1      -8.291   1.201  -2.160  0.00  0.00    +0.046 C 
ATOM     22  C   UNL     1      -8.880   0.942  -0.805  0.00  0.00    -0.028 C 
ATOM     23  C   UNL     1      -8.852   1.780   0.181  0.00  0.00    -0.012 C 
ATOM     24  C   UNL     1      -8.230   3.142   0.097  0.00  0.00    +0.136 C 
ATOM     25  H   UNL     1      -6.262   4.253   0.899  0.00  0.00    +0.151 HD
ENDBRANCH  14  16
TORSDOF 1
