REMARK  Name = ZINC38610228
REMARK  7 active torsions:
REMARK  status: ('A' for Active; 'I' for Inactive)
REMARK    1  A    between atoms: C_1  and  C_2
REMARK    2  A    between atoms: C_2  and  C_3
REMARK    3  A    between atoms: C_6  and  C_9
REMARK    4  A    between atoms: C_12  and  C_28
REMARK    5  A    between atoms: N_19  and  C_20
REMARK    6  A    between atoms: C_20  and  C_21
REMARK    7  A    between atoms: C_33  and  O_34
REMARK                            x       y       z     vdW  Elec       q    Type
REMARK                         _______ _______ _______ _____ _____    ______ ____
ROOT
ATOM      1  C   UNL     1       2.402  -1.633   4.549  0.00  0.00    +0.142 C 
ATOM      2  C   UNL     1       2.968  -0.646   5.533  0.00  0.00    +0.035 A 
ATOM      3  C   UNL     1       3.819   0.442   5.756  0.00  0.00    +0.102 A 
ATOM      4  N   UNL     1       3.738   0.750   7.036  0.00  0.00    -0.173 NA
ATOM      5  N   UNL     1       2.921  -0.035   7.642  0.00  0.00    -0.272 N 
ATOM      6  H   UNL     1       2.705   0.008   8.587  0.00  0.00    +0.189 HD
ATOM      7  C   UNL     1       2.400  -0.937   6.759  0.00  0.00    +0.126 A 
ATOM      8  C   UNL     1       1.490  -2.076   6.593  0.00  0.00    +0.266 C 
ATOM      9  O   UNL     1       0.835  -2.577   7.487  0.00  0.00    -0.268 OA
ATOM     10  N   UNL     1       1.485  -2.490   5.312  0.00  0.00    -0.281 N 
ENDROOT
BRANCH   1  14
ATOM     11  C   UNL     1       0.278   0.421   1.465  0.00  0.00    -0.048 A 
ATOM     12  C   UNL     1      -0.225   0.398   2.753  0.00  0.00    +0.004 A 
ATOM     13  C   UNL     1       0.463  -0.267   3.751  0.00  0.00    +0.006 A 
ATOM     14  C   UNL     1       1.652  -0.909   3.461  0.00  0.00    -0.022 A 
ATOM     15  C   UNL     1       2.154  -0.886   2.173  0.00  0.00    +0.006 A 
ATOM     16  C   UNL     1       1.464  -0.225   1.174  0.00  0.00    +0.004 A 
BRANCH  11  18
ATOM     17  C   UNL     1      -1.457   0.185  -0.291  0.00  0.00    +0.009 C 
ATOM     18  C   UNL     1      -0.472   1.146   0.377  0.00  0.00    +0.032 C 
ENDBRANCH  11  18
ENDBRANCH   1  14
BRANCH   3  19
ATOM     19  C   UNL     1       4.658   1.123   4.739  0.00  0.00    +0.044 A 
ATOM     20  C   UNL     1       4.738   0.616   3.445  0.00  0.00    +0.014 A 
ATOM     21  C   UNL     1       5.521   1.253   2.503  0.00  0.00    +0.001 A 
ATOM     22  C   UNL     1       6.226   2.394   2.840  0.00  0.00    +0.004 A 
ATOM     23  C   UNL     1       6.154   2.905   4.122  0.00  0.00    +0.046 A 
ATOM     24  C   UNL     1       5.368   2.279   5.075  0.00  0.00    +0.126 A 
BRANCH  24  25
ATOM     25  O   UNL     1       5.291   2.784   6.334  0.00  0.00    -0.506 OA
ATOM     26  H   UNL     1       5.960   2.437   6.939  0.00  0.00    +0.292 HD
ENDBRANCH  24  25
ENDBRANCH   3  19
BRANCH  10  27
ATOM     27  C   UNL     1       0.699  -3.601   4.770  0.00  0.00    +0.144 C 
BRANCH  27  28
ATOM     28  C   UNL     1       1.498  -4.875   4.867  0.00  0.00    -0.030 A 
ATOM     29  C   UNL     1       2.327  -5.252   3.827  0.00  0.00    +0.006 A 
ATOM     30  C   UNL     1       3.060  -6.420   3.915  0.00  0.00    +0.020 A 
ATOM     31  C   UNL     1       2.964  -7.213   5.044  0.00  0.00    +0.041 A 
ATOM     32  C   UNL     1       2.134  -6.836   6.085  0.00  0.00    +0.020 A 
ATOM     33  C   UNL     1       1.406  -5.665   5.998  0.00  0.00    +0.006 A 
ATOM     34 CL   UNL     1       3.884  -8.681   5.156  0.00  0.00    -0.084 Cl
ENDBRANCH  27  28
ENDBRANCH  10  27
TORSDOF 6
