REMARK  Name = ZINC63830787
REMARK  11 active torsions:
REMARK  status: ('A' for Active; 'I' for Inactive)
REMARK    1  A    between atoms: C_1  and  C_2
REMARK    2  A    between atoms: C_2  and  C_4
REMARK    3  A    between atoms: C_2  and  N_11
REMARK    4  A    between atoms: N_11  and  C_12
REMARK    5  A    between atoms: C_12  and  C_13
REMARK    6  A    between atoms: C_13  and  C_15
REMARK    7  A    between atoms: C_13  and  C_25
REMARK    8  A    between atoms: C_19  and  O_23
REMARK    9  A    between atoms: C_20  and  O_21
REMARK   10  A    between atoms: O_21  and  C_22
REMARK   11  A    between atoms: O_23  and  C_24
REMARK                            x       y       z     vdW  Elec       q    Type
REMARK                         _______ _______ _______ _____ _____    ______ ____
ROOT
ATOM      1  C   UNL     1      -3.392  -1.054  -1.214  0.00  0.00    +0.034 C 
ENDROOT
BRANCH   1   2
ATOM      2  C   UNL     1      -4.223  -0.599  -0.042  0.00  0.00    -0.036 C 
ATOM      3  C   UNL     1      -4.696  -1.367   0.966  0.00  0.00    -0.001 A 
ATOM      4  C   UNL     1      -4.584  -2.801   1.261  0.00  0.00    +0.010 A 
ATOM      5  C   UNL     1      -5.180  -3.290   2.372  0.00  0.00    +0.001 A 
ATOM      6  C   UNL     1      -5.901  -2.465   3.246  0.00  0.00    +0.002 A 
ATOM      7  C   UNL     1      -6.048  -1.139   3.042  0.00  0.00    +0.026 A 
ATOM      8  C   UNL     1      -5.462  -0.517   1.905  0.00  0.00    +0.043 A 
ATOM      9  N   UNL     1      -5.463   0.728   1.494  0.00  0.00    -0.380 N 
ATOM     10  C   UNL     1      -4.691   0.809   0.249  0.00  0.00    +0.145 C 
ATOM     11  H   UNL     1      -5.897   1.471   1.940  0.00  0.00    +0.160 HD
ENDBRANCH   1   2
BRANCH   1  12
ATOM     12  C   UNL     1      -4.122  -0.747  -2.496  0.00  0.00    +0.003 A 
ATOM     13  C   UNL     1      -4.447   0.559  -2.811  0.00  0.00    +0.008 A 
ATOM     14  C   UNL     1      -5.117   0.845  -3.986  0.00  0.00    +0.004 A 
ATOM     15  C   UNL     1      -5.464  -0.176  -4.852  0.00  0.00    +0.049 A 
ATOM     16  C   UNL     1      -5.141  -1.487  -4.543  0.00  0.00    +0.162 A 
ATOM     17  C   UNL     1      -4.462  -1.773  -3.363  0.00  0.00    +0.165 A 
BRANCH  17  18
ATOM     18  O   UNL     1      -4.137  -3.058  -3.058  0.00  0.00    -0.491 OA
ATOM     19  C   UNL     1      -5.096  -3.810  -2.311  0.00  0.00    +0.277 C 
ENDBRANCH  17  18
BRANCH  16  20
ATOM     20  O   UNL     1      -5.482  -2.491  -5.394  0.00  0.00    -0.491 OA
ATOM     21  C   UNL     1      -6.173  -2.123  -6.590  0.00  0.00    +0.277 C 
ENDBRANCH  16  20
ENDBRANCH   1  12
BRANCH   1  22
ATOM     22  C   UNL     1      -2.050  -0.320  -1.203  0.00  0.00    -0.069 C 
BRANCH  22  23
ATOM     23  N   UNL     1      -1.287  -0.713  -0.011  0.00  0.00    +0.387 N 
ATOM     24  H   UNL     1      -1.125  -1.709  -0.027  0.00  0.00    -0.085 HD
ATOM     25  H   UNL     1      -1.809  -0.470   0.818  0.00  0.00    -0.085 HD
BRANCH  23  27
ATOM     26  C   UNL     1      -0.239   1.495   0.151  0.00  0.00    -0.004 C 
ATOM     27  C   UNL     1       0.002  -0.008   0.000  0.00  0.00    +0.013 C 
BRANCH  27  28
ATOM     28  C   UNL     1       0.835  -0.501   1.155  0.00  0.00    +0.201 C 
ATOM     29  O   UNL     1       0.295  -0.969   2.136  0.00  0.00    -0.277 OA
ATOM     30  N   UNL     1       2.179  -0.423   1.099  0.00  0.00    -0.303 N 
ATOM     31  C   UNL     1       2.956   0.221   0.030  0.00  0.00    +0.108 C 
ATOM     32  C   UNL     1       4.449   0.042   0.377  0.00  0.00    +0.020 C 
ATOM     33  C   UNL     1       4.440  -1.183   1.329  0.00  0.00    +0.020 C 
ATOM     34  C   UNL     1       3.114  -0.963   2.103  0.00  0.00    +0.108 C 
ENDBRANCH  27  28
ENDBRANCH  23  27
ENDBRANCH  22  23
ENDBRANCH   1  22
TORSDOF 8
