REMARK  Name = ZINC39914892
REMARK  10 active torsions:
REMARK  status: ('A' for Active; 'I' for Inactive)
REMARK    1  A    between atoms: C_1  and  C_2
REMARK    2  A    between atoms: C_4  and  O_37
REMARK    3  A    between atoms: C_5  and  C_9
REMARK    4  A    between atoms: N_17  and  C_28
REMARK    5  A    between atoms: C_18  and  C_20
REMARK    6  A    between atoms: C_23  and  S_26
REMARK    7  A    between atoms: S_26  and  C_27
REMARK    8  A    between atoms: C_28  and  C_29
REMARK    9  A    between atoms: C_32  and  O_35
REMARK   10  A    between atoms: O_35  and  C_36
REMARK                            x       y       z     vdW  Elec       q    Type
REMARK                         _______ _______ _______ _____ _____    ______ ____
ROOT
ATOM      1  C   UNL     1       0.248  -4.555  -0.109  0.00  0.00    +0.102 A 
ATOM      2  C   UNL     1       0.257  -5.256   1.102  0.00  0.00    +0.035 A 
ATOM      3  C   UNL     1       0.203  -6.594   0.762  0.00  0.00    +0.126 A 
ATOM      4  N   UNL     1       0.165  -6.638  -0.603  0.00  0.00    -0.272 N 
ATOM      5  H   UNL     1       0.123  -7.449  -1.133  0.00  0.00    +0.189 HD
ATOM      6  N   UNL     1       0.186  -5.444  -1.080  0.00  0.00    -0.173 NA
ATOM      7  C   UNL     1       0.209  -7.389   1.995  0.00  0.00    +0.266 C 
ATOM      8  O   UNL     1       0.170  -8.604   2.038  0.00  0.00    -0.268 OA
ATOM      9  N   UNL     1       0.265  -6.585   3.071  0.00  0.00    -0.281 N 
ATOM     10  C   UNL     1       0.299  -5.193   2.604  0.00  0.00    +0.142 C 
ENDROOT
BRANCH   1  15
ATOM     11  C   UNL     1       0.419   1.172  -0.734  0.00  0.00    +0.045 C 
ATOM     12  C   UNL     1       0.377  -0.325  -0.572  0.00  0.00    -0.029 A 
ATOM     13  C   UNL     1       1.196  -1.125  -1.347  0.00  0.00    +0.050 A 
ATOM     14  C   UNL     1       1.160  -2.502  -1.202  0.00  0.00    +0.126 A 
ATOM     15  C   UNL     1       0.293  -3.080  -0.270  0.00  0.00    +0.045 A 
ATOM     16  C   UNL     1      -0.528  -2.267   0.506  0.00  0.00    +0.034 A 
ATOM     17  C   UNL     1      -0.479  -0.894   0.356  0.00  0.00    +0.045 A 
ATOM     18 CL   UNL     1      -1.498   0.120   1.329  0.00  0.00    -0.083 Cl
BRANCH  14  19
ATOM     19  O   UNL     1       1.964  -3.289  -1.964  0.00  0.00    -0.506 OA
ATOM     20  H   UNL     1       2.828  -3.468  -1.568  0.00  0.00    +0.292 HD
ENDBRANCH  14  19
ENDBRANCH   1  15
BRANCH  10  21
ATOM     21  C   UNL     1       1.571  -4.524   3.059  0.00  0.00    -0.022 A 
ATOM     22  C   UNL     1       2.789  -5.144   2.850  0.00  0.00    +0.007 A 
ATOM     23  C   UNL     1       3.957  -4.534   3.266  0.00  0.00    +0.015 A 
ATOM     24  C   UNL     1       3.906  -3.296   3.895  0.00  0.00    +0.008 A 
ATOM     25  C   UNL     1       2.680  -2.676   4.103  0.00  0.00    +0.015 A 
ATOM     26  C   UNL     1       1.517  -3.289   3.680  0.00  0.00    +0.007 A 
BRANCH  24  27
ATOM     27  S   UNL     1       5.392  -2.515   4.428  0.00  0.00    -0.129 S 
ATOM     28  C   UNL     1       4.828  -0.961   5.174  0.00  0.00    +0.090 C 
ENDBRANCH  24  27
ENDBRANCH  10  21
BRANCH   9  29
ATOM     29  C   UNL     1       0.287  -7.021   4.469  0.00  0.00    +0.144 C 
BRANCH  29  30
ATOM     30  C   UNL     1       1.714  -7.219   4.911  0.00  0.00    -0.030 A 
ATOM     31  C   UNL     1       2.322  -8.450   4.752  0.00  0.00    +0.009 A 
ATOM     32  C   UNL     1       3.630  -8.634   5.157  0.00  0.00    +0.046 A 
ATOM     33  C   UNL     1       4.334  -7.581   5.723  0.00  0.00    +0.120 A 
ATOM     34  C   UNL     1       3.722  -6.346   5.881  0.00  0.00    +0.046 A 
ATOM     35  C   UNL     1       2.415  -6.166   5.470  0.00  0.00    +0.009 A 
BRANCH  33  36
ATOM     36  O   UNL     1       5.620  -7.759   6.123  0.00  0.00    -0.495 OA
ATOM     37  C   UNL     1       6.283  -6.631   6.697  0.00  0.00    +0.277 C 
ENDBRANCH  33  36
ENDBRANCH  29  30
ENDBRANCH   9  29
TORSDOF 7
