REMARK  Name = ZINC60167541
REMARK  8 active torsions:
REMARK  status: ('A' for Active; 'I' for Inactive)
REMARK    1  A    between atoms: C_1  and  C_2
REMARK    2  A    between atoms: C_7  and  C_9
REMARK    3  A    between atoms: C_7  and  C_10
REMARK    4  A    between atoms: N_13  and  C_17
REMARK    5  A    between atoms: C_17  and  C_18
REMARK    6  A    between atoms: N_20  and  C_21
REMARK    7  A    between atoms: N_24  and  C_27
REMARK    8  A    between atoms: C_27  and  C_28
REMARK                            x       y       z     vdW  Elec       q    Type
REMARK                         _______ _______ _______ _____ _____    ______ ____
ROOT
ATOM      1  C   UNL     1       1.136  -4.111  -4.765  0.00  0.00    +0.231 C 
ATOM      2  O   UNL     1       1.184  -4.670  -3.690  0.00  0.00    -0.274 OA
ATOM      3  N   UNL     1       1.374  -4.805  -5.896  0.00  0.00    -0.311 N 
ATOM      4  H   UNL     1       1.335  -4.358  -6.756  0.00  0.00    +0.149 HD
ENDROOT
BRANCH   3   5
ATOM      5  C   UNL     1       1.690  -6.234  -5.827  0.00  0.00    +0.069 C 
ATOM      6  C   UNL     1       3.191  -6.415  -5.586  0.00  0.00    +0.003 C 
ATOM      7  C   UNL     1       3.527  -7.908  -5.594  0.00  0.00    -0.077 C 
ATOM      8  N   UNL     1       3.164  -8.488  -6.892  0.00  0.00    +0.380 N 
ATOM      9  C   UNL     1       1.715  -8.382  -7.098  0.00  0.00    -0.077 C 
ATOM     10  C   UNL     1       1.310  -6.907  -7.148  0.00  0.00    +0.003 C 
ATOM     11  H   UNL     1       3.645  -7.991  -7.627  0.00  0.00    -0.082 HD
BRANCH   8  12
ATOM     12  C   UNL     1       3.560  -9.902  -6.923  0.00  0.00    -0.075 C 
BRANCH  12  13
ATOM     13  C   UNL     1       3.312 -10.471  -8.321  0.00  0.00    -0.028 C 
ATOM     14  C   UNL     1       3.667 -11.960  -8.336  0.00  0.00    +0.002 C 
ATOM     15  C   UNL     1       3.418 -12.528  -9.735  0.00  0.00    +0.000 C 
ATOM     16  C   UNL     1       4.290 -11.786 -10.750  0.00  0.00    +0.000 C 
ATOM     17  C   UNL     1       3.935 -10.298 -10.734  0.00  0.00    +0.000 C 
ATOM     18  C   UNL     1       4.183  -9.729  -9.336  0.00  0.00    +0.002 C 
ENDBRANCH  12  13
ENDBRANCH   8  12
ENDBRANCH   3   5
BRANCH   1  19
ATOM     19  C   UNL     1       0.811  -2.642  -4.837  0.00  0.00    +0.213 C 
BRANCH  19  31
ATOM     20  C   UNL     1       0.456   2.186   0.341  0.00  0.00    +0.007 C 
ATOM     21  C   UNL     1       0.301   0.683   0.101  0.00  0.00    -0.011 C 
ATOM     22  C   UNL     1       1.027   0.294  -1.189  0.00  0.00    +0.038 C 
ATOM     23  C   UNL     1       0.891  -1.208  -1.417  0.00  0.00    +0.113 C 
ATOM     24  C   UNL     1       1.471  -1.987  -0.242  0.00  0.00    +0.041 C 
ATOM     25  C   UNL     1       0.743  -1.590   1.044  0.00  0.00    -0.032 C 
ATOM     26  C   UNL     1       0.906  -0.086   1.278  0.00  0.00    +0.009 C 
ATOM     27  C   UNL     1       1.340  -2.357   2.226  0.00  0.00    +0.011 C 
ATOM     28  C   UNL     1      -0.744  -1.928   0.914  0.00  0.00    +0.011 C 
ATOM     29  C   UNL     1       1.572  -1.609  -2.705  0.00  0.00    +0.247 C 
ATOM     30  O   UNL     1       2.748  -1.496  -2.981  0.00  0.00    -0.273 OA
ATOM     31  N   UNL     1       0.597  -2.122  -3.484  0.00  0.00    -0.215 N 
ATOM     32  C   UNL     1      -0.591  -2.097  -2.867  0.00  0.00    +0.310 C 
ATOM     33  O   UNL     1      -1.621  -2.506  -3.367  0.00  0.00    -0.252 OA
ATOM     34  N   UNL     1      -0.516  -1.569  -1.630  0.00  0.00    -0.285 N 
ATOM     35  H   UNL     1      -1.247  -1.452  -1.004  0.00  0.00    +0.151 HD
ENDBRANCH  19  31
ENDBRANCH   1  19
TORSDOF 5
