REMARK  Name = ZINC43527501
REMARK  8 active torsions:
REMARK  status: ('A' for Active; 'I' for Inactive)
REMARK    1  A    between atoms: C_3  and  C_6
REMARK    2  A    between atoms: C_6  and  N_7
REMARK    3  A    between atoms: N_7  and  C_8
REMARK    4  A    between atoms: C_8  and  N_10
REMARK    5  A    between atoms: N_10  and  C_11
REMARK    6  A    between atoms: C_11  and  C_12
REMARK    7  A    between atoms: C_21  and  C_23
REMARK    8  A    between atoms: C_23  and  N_24
REMARK                            x       y       z     vdW  Elec       q    Type
REMARK                         _______ _______ _______ _____ _____    ______ ____
ROOT
ATOM      1  C   UNL     1       7.870   0.354   4.636  0.00  0.00    -0.051 C 
ATOM      2  C   UNL     1       9.348   0.460   5.022  0.00  0.00    -0.010 C 
ATOM      3  C   UNL     1       9.561   1.759   5.811  0.00  0.00    -0.015 C 
ATOM      4  C   UNL     1       9.150   2.939   4.921  0.00  0.00    -0.015 C 
ATOM      5  C   UNL     1       7.684   2.765   4.517  0.00  0.00    -0.078 C 
ATOM      6  N   UNL     1       7.138   1.518   5.139  0.00  0.00    +0.383 N 
ATOM      7  C   UNL     1       7.207   1.579   6.601  0.00  0.00    -0.076 C 
ATOM      8  C   UNL     1       8.659   1.725   7.052  0.00  0.00    -0.041 C 
ATOM      9  H   UNL     1       6.168   1.424   4.876  0.00  0.00    -0.081 HD
ENDROOT
BRANCH   1  10
ATOM     10  C   UNL     1       7.747   0.295   3.112  0.00  0.00    +0.088 C 
BRANCH  10  11
ATOM     11  N   UNL     1       6.331   0.309   2.737  0.00  0.00    -0.328 N 
ATOM     12  H   UNL     1       5.647   0.350   3.424  0.00  0.00    +0.148 HD
BRANCH  11  13
ATOM     13  C   UNL     1       5.978   0.264   1.437  0.00  0.00    +0.131 C 
ATOM     14  S   UNL     1       7.185   0.191   0.225  0.00  0.00    -0.019 S 
BRANCH  13  15
ATOM     15  N   UNL     1       4.676   0.276   1.091  0.00  0.00    -0.319 N 
ATOM     16  H   UNL     1       3.992   0.317   1.778  0.00  0.00    +0.148 HD
BRANCH  15  17
ATOM     17  C   UNL     1       4.292   0.227  -0.322  0.00  0.00    +0.177 C 
BRANCH  17  20
ATOM     18  C   UNL     1       0.685   0.919  -0.623  0.00  0.00    +0.041 A 
ATOM     19  C   UNL     1       2.027   1.355  -0.539  0.00  0.00    +0.046 A 
ATOM     20  C   UNL     1       2.790   0.252  -0.436  0.00  0.00    +0.122 A 
ATOM     21  O   UNL     1       1.985  -0.823  -0.453  0.00  0.00    -0.466 OA
ATOM     22  C   UNL     1       0.708  -0.424  -0.566  0.00  0.00    +0.195 A 
ENDBRANCH  17  20
ENDBRANCH  15  17
ENDBRANCH  13  15
ENDBRANCH  11  13
ENDBRANCH  10  11
ENDBRANCH   1  10
BRANCH   8  23
ATOM     23  C   UNL     1       8.823   3.026   7.841  0.00  0.00    -0.077 C 
BRANCH  23  24
ATOM     24  N   UNL     1       8.062   2.937   9.094  0.00  0.00    +0.382 N 
ATOM     25  C   UNL     1       8.088   4.239   9.773  0.00  0.00    -0.060 C 
ATOM     26  C   UNL     1       7.201   4.181  11.021  0.00  0.00    +0.089 C 
ATOM     27  N   UNL     1       7.643   3.053  11.855  0.00  0.00    -0.303 N 
ATOM     28  C   UNL     1       7.803   1.738  11.214  0.00  0.00    +0.089 C 
ATOM     29  C   UNL     1       8.661   1.912   9.957  0.00  0.00    -0.060 C 
ATOM     30  C   UNL     1       7.901   3.223  13.204  0.00  0.00    +0.218 A 
ATOM     31  N   UNL     1       7.741   4.421  13.747  0.00  0.00    -0.223 NA
ATOM     32  C   UNL     1       7.979   4.618  15.033  0.00  0.00    +0.116 A 
ATOM     33  C   UNL     1       8.401   3.553  15.813  0.00  0.00    +0.039 A 
ATOM     34  C   UNL     1       8.558   2.313  15.213  0.00  0.00    +0.116 A 
ATOM     35  N   UNL     1       8.298   2.183  13.923  0.00  0.00    -0.223 NA
ATOM     36  H   UNL     1       7.106   2.686   8.889  0.00  0.00    -0.082 HD
ENDBRANCH  23  24
ENDBRANCH   8  23
TORSDOF 8
