REMARK  Name = ZINC63373347
REMARK  10 active torsions:
REMARK  status: ('A' for Active; 'I' for Inactive)
REMARK    1  A    between atoms: C_1  and  C_2
REMARK    2  A    between atoms: C_2  and  C_3
REMARK    3  A    between atoms: C_3  and  O_4
REMARK    4  A    between atoms: O_4  and  C_5
REMARK    5  A    between atoms: C_8  and  C_14
REMARK    6  A    between atoms: C_10  and  O_11
REMARK    7  A    between atoms: O_11  and  C_12
REMARK    8  A    between atoms: C_12  and  C_13
REMARK    9  A    between atoms: N_20  and  C_35
REMARK   10  A    between atoms: C_23  and  C_34
REMARK                            x       y       z     vdW  Elec       q    Type
REMARK                         _______ _______ _______ _____ _____    ______ ____
ROOT
ATOM      1  C   UNL     1       3.652  -4.157  -5.242  0.00  0.00    +0.065 C 
ATOM      2  C   UNL     1       2.666  -3.997  -6.417  0.00  0.00    +0.123 C 
ATOM      3  N   UNL     1       3.409  -3.455  -7.558  0.00  0.00    -0.268 N 
ATOM      4  C   UNL     1       3.534  -3.977  -8.786  0.00  0.00    +0.317 C 
ATOM      5  O   UNL     1       2.900  -4.935  -9.183  0.00  0.00    -0.252 OA
ATOM      6  N   UNL     1       4.439  -3.321  -9.525  0.00  0.00    -0.189 N 
ATOM      7  C   UNL     1       4.934  -2.251  -8.870  0.00  0.00    +0.253 C 
ATOM      8  O   UNL     1       5.788  -1.483  -9.261  0.00  0.00    -0.272 OA
ATOM      9  C   UNL     1       4.202  -2.208  -7.548  0.00  0.00    +0.137 C 
ATOM     10  C   UNL     1       5.185  -2.291  -6.381  0.00  0.00    +0.139 C 
ATOM     11  C   UNL     1       4.991  -3.650  -5.719  0.00  0.00    -0.027 C 
ATOM     12  C   UNL     1       6.190  -4.224  -5.689  0.00  0.00    -0.000 A 
ATOM     13  C   UNL     1       6.652  -5.491  -5.100  0.00  0.00    +0.010 A 
ATOM     14  C   UNL     1       7.968  -5.788  -5.274  0.00  0.00    +0.001 A 
ATOM     15  C   UNL     1       8.857  -4.961  -5.967  0.00  0.00    +0.002 A 
ATOM     16  C   UNL     1       8.521  -3.774  -6.533  0.00  0.00    +0.026 A 
ATOM     17  C   UNL     1       7.165  -3.350  -6.409  0.00  0.00    +0.043 A 
ATOM     18  N   UNL     1       6.577  -2.247  -6.830  0.00  0.00    -0.375 N 
ATOM     19  C   UNL     1       3.302  -0.974  -7.449  0.00  0.00    +0.044 C 
ATOM     20  H   UNL     1       6.986  -1.534  -7.345  0.00  0.00    +0.160 HD
ENDROOT
BRANCH   6  21
ATOM     21  C   UNL     1       4.823  -3.700 -10.820  0.00  0.00    +0.081 A 
ATOM     22  C   UNL     1       4.145  -3.198 -11.922  0.00  0.00    +0.027 A 
ATOM     23  C   UNL     1       4.526  -3.574 -13.196  0.00  0.00    +0.002 A 
ATOM     24  C   UNL     1       5.581  -4.449 -13.375  0.00  0.00    +0.003 A 
ATOM     25  C   UNL     1       6.260  -4.952 -12.281  0.00  0.00    +0.040 A 
ATOM     26  C   UNL     1       5.888  -4.576 -11.002  0.00  0.00    +0.145 A 
ATOM     27  F   UNL     1       6.554  -5.062  -9.933  0.00  0.00    -0.204 F 
ENDBRANCH   6  21
BRANCH   1  31
ATOM     28  C   UNL     1       2.324  -1.847  -1.898  0.00  0.00    +0.162 A 
ATOM     29  C   UNL     1       2.642  -1.222  -3.092  0.00  0.00    +0.050 A 
ATOM     30  C   UNL     1       3.072  -1.972  -4.172  0.00  0.00    +0.008 A 
ATOM     31  C   UNL     1       3.184  -3.345  -4.063  0.00  0.00    -0.035 A 
ATOM     32  C   UNL     1       2.867  -3.975  -2.874  0.00  0.00    +0.053 A 
ATOM     33  C   UNL     1       2.442  -3.229  -1.786  0.00  0.00    +0.162 A 
BRANCH  28  34
ATOM     34  O   UNL     1       1.901  -1.112  -0.835  0.00  0.00    -0.488 OA
BRANCH  34  35
ATOM     35  C   UNL     1       1.804   0.302  -1.022  0.00  0.00    +0.229 C 
BRANCH  35  37
ATOM     36  C   UNL     1       1.212   2.468   0.072  0.00  0.00    +0.007 C 
ATOM     37  C   UNL     1       1.316   0.955   0.273  0.00  0.00    +0.038 C 
ENDBRANCH  35  37
ENDBRANCH  34  35
ENDBRANCH  28  34
BRANCH  33  38
ATOM     38  O   UNL     1       2.136  -3.847  -0.614  0.00  0.00    -0.489 OA
BRANCH  38  39
ATOM     39  C   UNL     1       2.281  -5.268  -0.572  0.00  0.00    +0.226 C 
ATOM     40  C   UNL     1       1.893  -5.780   0.817  0.00  0.00    +0.048 C 
ENDBRANCH  38  39
ENDBRANCH  33  38
ENDBRANCH   1  31
TORSDOF 7
