REMARK  Name = ZINC26363705
REMARK  15 active torsions:
REMARK  status: ('A' for Active; 'I' for Inactive)
REMARK    1  A    between atoms: C_1  and  C_2
REMARK    2  A    between atoms: C_2  and  C_3
REMARK    3  A    between atoms: C_3  and  C_4
REMARK    4  A    between atoms: C_4  and  C_6
REMARK    5  A    between atoms: C_4  and  N_17
REMARK    6  A    between atoms: N_10  and  C_11
REMARK    7  A    between atoms: N_17  and  C_18
REMARK    8  A    between atoms: N_17  and  C_22
REMARK    9  A    between atoms: C_18  and  C_19
REMARK   10  A    between atoms: C_19  and  C_20
REMARK   11  A    between atoms: C_20  and  O_21
REMARK   12  A    between atoms: C_22  and  C_23
REMARK   13  A    between atoms: C_27  and  O_35
REMARK   14  A    between atoms: O_35  and  C_36
REMARK   15  A    between atoms: C_36  and  C_37
REMARK                            x       y       z     vdW  Elec       q    Type
REMARK                         _______ _______ _______ _____ _____    ______ ____
ROOT
ATOM      1  N   UNL     1      -0.648   1.315   1.337  0.00  0.00    +0.389 N 
ATOM      2  H   UNL     1      -1.589   0.791   1.560  0.00  0.00    -0.080 HD
ENDROOT
BRANCH   1   3
ATOM      3  C   UNL     1      -0.156   0.827   0.042  0.00  0.00    +0.003 C 
BRANCH   3   4
ATOM      4  C   UNL     1       1.241   1.343  -0.191  0.00  0.00    +0.138 A 
ATOM      5  N   UNL     1       2.256   1.256   0.634  0.00  0.00    -0.115 NA
ATOM      6  N   UNL     1       3.273   1.812   0.073  0.00  0.00    -0.023 NA
ATOM      7  N   UNL     1       2.933   2.258  -1.085  0.00  0.00    -0.044 NA
ATOM      8  N   UNL     1       1.687   1.989  -1.285  0.00  0.00    -0.228 N 
BRANCH   8   9
ATOM      9  C   UNL     1       0.904   2.323  -2.477  0.00  0.00    +0.111 C 
ATOM     10  C   UNL     1       1.532   1.655  -3.703  0.00  0.00    +0.027 C 
ATOM     11  C   UNL     1       0.715   2.004  -4.948  0.00  0.00    +0.002 C 
ATOM     12  C   UNL     1       0.705   3.521  -5.143  0.00  0.00    +0.000 C 
ATOM     13  C   UNL     1       0.077   4.189  -3.918  0.00  0.00    +0.002 C 
ATOM     14  C   UNL     1       0.894   3.840  -2.672  0.00  0.00    +0.027 C 
ENDBRANCH   8   9
ENDBRANCH   3   4
BRANCH   3  15
ATOM     15  C   UNL     1      -0.140  -0.703   0.047  0.00  0.00    -0.008 C 
BRANCH  15  17
ATOM     16  C   UNL     1      -1.568  -2.753   0.076  0.00  0.00    +0.004 C 
ATOM     17  C   UNL     1      -1.569  -1.228   0.197  0.00  0.00    -0.005 C 
ENDBRANCH  15  17
ENDBRANCH   3  15
ENDBRANCH   1   3
BRANCH   1  18
ATOM     18  C   UNL     1      -0.935   2.755   1.282  0.00  0.00    -0.075 C 
BRANCH  18  19
ATOM     19  C   UNL     1      -2.180   2.994   0.425  0.00  0.00    +0.009 C 
BRANCH  19  20
ATOM     20  C   UNL     1      -2.412   4.499   0.272  0.00  0.00    +0.154 C 
BRANCH  20  21
ATOM     21  O   UNL     1      -3.574   4.723  -0.529  0.00  0.00    -0.395 OA
ATOM     22  H   UNL     1      -3.900   5.750  -0.750  0.00  0.00    +0.209 HD
ENDBRANCH  20  21
ENDBRANCH  19  20
ENDBRANCH  18  19
ENDBRANCH   1  18
BRANCH   1  23
ATOM     23  C   UNL     1       0.305   1.009   2.412  0.00  0.00    -0.037 C 
BRANCH  23  24
ATOM     24  C   UNL     1      -0.381   1.151   3.747  0.00  0.00    +0.001 A 
ATOM     25  C   UNL     1      -0.937   0.065   4.339  0.00  0.00    +0.017 A 
ATOM     26  C   UNL     1      -1.592   0.235   5.638  0.00  0.00    +0.002 A 
ATOM     27  C   UNL     1      -2.179  -0.850   6.298  0.00  0.00    +0.055 A 
ATOM     28  C   UNL     1      -2.792  -0.653   7.519  0.00  0.00    +0.121 A 
ATOM     29  C   UNL     1      -2.829   0.616   8.091  0.00  0.00    +0.047 A 
ATOM     30  C   UNL     1      -2.255   1.692   7.451  0.00  0.00    +0.030 A 
ATOM     31  C   UNL     1      -1.631   1.516   6.220  0.00  0.00    +0.049 A 
ATOM     32  N   UNL     1      -1.050   2.581   5.562  0.00  0.00    -0.322 N 
ATOM     33  H   UNL     1      -1.077   3.585   6.011  0.00  0.00    +0.169 HD
ATOM     34  C   UNL     1      -0.447   2.414   4.373  0.00  0.00    +0.251 A 
ATOM     35  O   UNL     1       0.056   3.377   3.821  0.00  0.00    -0.268 OA
BRANCH  28  36
ATOM     36  O   UNL     1      -3.365  -1.703   8.165  0.00  0.00    -0.492 OA
BRANCH  36  37
ATOM     37  C   UNL     1      -3.983  -1.431   9.425  0.00  0.00    +0.225 C 
ATOM     38  C   UNL     1      -4.567  -2.725   9.996  0.00  0.00    +0.048 C 
ENDBRANCH  36  37
ENDBRANCH  28  36
ENDBRANCH  23  24
ENDBRANCH   1  23
TORSDOF 13
