REMARK  Name = ZINC33479009
REMARK  9 active torsions:
REMARK  status: ('A' for Active; 'I' for Inactive)
REMARK    1  A    between atoms: C_1  and  C_2
REMARK    2  A    between atoms: C_2  and  N_3
REMARK    3  A    between atoms: C_4  and  N_26
REMARK    4  A    between atoms: C_5  and  C_13
REMARK    5  A    between atoms: C_6  and  C_12
REMARK    6  A    between atoms: C_7  and  C_10
REMARK    7  A    between atoms: N_17  and  C_21
REMARK    8  A    between atoms: N_29  and  C_32
REMARK    9  A    between atoms: C_32  and  C_33
REMARK                            x       y       z     vdW  Elec       q    Type
REMARK                         _______ _______ _______ _____ _____    ______ ____
ROOT
ATOM      1  N   UNL     1      -5.741  -2.042   1.815  0.00  0.00    -0.295 N 
ATOM      2  C   UNL     1      -4.839  -2.563   0.944  0.00  0.00    +0.112 A 
ATOM      3  C   UNL     1      -5.198  -3.620   0.091  0.00  0.00    +0.019 A 
ATOM      4  C   UNL     1      -6.505  -4.134   0.141  0.00  0.00    -0.017 A 
ATOM      5  C   UNL     1      -7.412  -3.579   1.039  0.00  0.00    +0.120 A 
ATOM      6  C   UNL     1      -6.999  -2.514   1.878  0.00  0.00    +0.270 A 
ATOM      7  O   UNL     1      -7.789  -2.024   2.667  0.00  0.00    -0.266 OA
ATOM      8  C   UNL     1      -6.917  -5.268  -0.762  0.00  0.00    +0.046 C 
ENDROOT
BRANCH   3   9
ATOM      9  C   UNL     1      -4.219  -4.181  -0.842  0.00  0.00    +0.032 C 
ATOM     10  C   UNL     1      -4.392  -4.029  -2.183  0.00  0.00    +0.077 C 
ATOM     11  C   UNL     1      -3.632  -4.569  -3.264  0.00  0.00    +0.259 C 
ATOM     12  O   UNL     1      -2.667  -5.284  -3.058  0.00  0.00    -0.269 OA
ATOM     13  N   UNL     1      -4.008  -4.274  -4.496  0.00  0.00    -0.252 N 
ATOM     14  C   UNL     1      -5.074  -3.475  -4.725  0.00  0.00    +0.121 C 
ATOM     15  S   UNL     1      -5.729  -2.962  -6.222  0.00  0.00    -0.027 S 
ATOM     16  S   UNL     1      -5.629  -3.092  -3.071  0.00  0.00    -0.061 S 
BRANCH  13  17
ATOM     17  C   UNL     1      -3.255  -4.815  -5.630  0.00  0.00    +0.083 C 
ATOM     18  C   UNL     1      -2.724  -3.664  -6.510  0.00  0.00    +0.023 C 
ATOM     19  C   UNL     1      -2.850  -4.203  -7.957  0.00  0.00    +0.002 C 
ATOM     20  C   UNL     1      -4.182  -4.993  -7.914  0.00  0.00    +0.002 C 
ATOM     21  C   UNL     1      -4.181  -5.660  -6.523  0.00  0.00    +0.023 C 
ENDBRANCH  13  17
ENDBRANCH   3   9
BRANCH   2  22
ATOM     22  N   UNL     1      -3.572  -2.059   0.900  0.00  0.00    -0.320 N 
ATOM     23  C   UNL     1      -2.591  -3.060   1.342  0.00  0.00    +0.088 C 
ATOM     24  C   UNL     1      -1.195  -2.433   1.355  0.00  0.00    -0.060 C 
ATOM     25  N   UNL     1      -0.871  -1.941   0.009  0.00  0.00    +0.382 N 
ATOM     26  C   UNL     1      -1.851  -0.939  -0.434  0.00  0.00    -0.060 C 
ATOM     27  C   UNL     1      -3.247  -1.567  -0.446  0.00  0.00    +0.088 C 
ATOM     28  H   UNL     1      -0.918  -2.793  -0.685  0.00  0.00    -0.082 HD
BRANCH  25  29
ATOM     29  C   UNL     1       0.494  -1.398  -0.038  0.00  0.00    -0.082 C 
ATOM     30  C   UNL     1       0.885  -1.128  -1.493  0.00  0.00    -0.017 C 
ENDBRANCH  25  29
ENDBRANCH   2  22
BRANCH   1  32
ATOM     31  C   UNL     1      -5.724   0.391   2.058  0.00  0.00    +0.027 C 
ATOM     32  C   UNL     1      -5.338  -0.945   2.697  0.00  0.00    +0.123 C 
ENDBRANCH   1  32
BRANCH   5  33
ATOM     33  C   UNL     1      -8.752  -4.081   1.114  0.00  0.00    +0.105 C 
ATOM     34  N   UNL     1      -9.814  -4.478   1.174  0.00  0.00    -0.191 NA
ENDBRANCH   5  33
TORSDOF 6
