REMARK  Name = ZINC02911876
REMARK  8 active torsions:
REMARK  status: ('A' for Active; 'I' for Inactive)
REMARK    1  A    between atoms: C_1  and  C_2
REMARK    2  A    between atoms: C_2  and  C_3
REMARK    3  A    between atoms: C_3  and  S_4
REMARK    4  A    between atoms: S_4  and  C_5
REMARK    5  A    between atoms: C_18  and  C_21
REMARK    6  A    between atoms: C_24  and  N_27
REMARK    7  A    between atoms: N_27  and  C_28
REMARK    8  A    between atoms: N_27  and  C_29
REMARK                            x       y       z     vdW  Elec       q    Type
REMARK                         _______ _______ _______ _____ _____    ______ ____
ROOT
ATOM      1  C   UNL     1       2.310   0.018  -0.070  0.00  0.00    +0.212 A 
ATOM      2  N   UNL     1       1.186  -0.692  -0.061  0.00  0.00    -0.184 NA
ATOM      3  C   UNL     1       0.024  -0.064  -0.025  0.00  0.00    +0.248 A 
ATOM      4  C   UNL     1       0.016   1.350  -0.002  0.00  0.00    +0.156 A 
ATOM      5  N   UNL     1       1.171   1.998  -0.011  0.00  0.00    -0.141 NA
ATOM      6  N   UNL     1       2.281   1.345  -0.044  0.00  0.00    -0.122 NA
ATOM      7  C   UNL     1      -1.272   2.074   0.026  0.00  0.00    +0.028 A 
ATOM      8  C   UNL     1      -1.503   3.114   0.919  0.00  0.00    +0.012 A 
ATOM      9  C   UNL     1      -2.715   3.776   0.900  0.00  0.00    +0.001 A 
ATOM     10  C   UNL     1      -3.700   3.411  -0.001  0.00  0.00    +0.002 A 
ATOM     11  C   UNL     1      -3.486   2.372  -0.888  0.00  0.00    +0.024 A 
ATOM     12  C   UNL     1      -2.281   1.693  -0.877  0.00  0.00    +0.039 A 
ATOM     13  N   UNL     1      -2.039   0.625  -1.746  0.00  0.00    -0.305 N 
ATOM     14  C   UNL     1      -1.937  -0.720  -1.191  0.00  0.00    +0.294 C 
ATOM     15  O   UNL     1      -1.146  -0.745  -0.007  0.00  0.00    -0.449 OA
ATOM     16  H   UNL     1      -1.942   0.776  -2.699  0.00  0.00    +0.150 HD
ENDROOT
BRANCH  14  17
ATOM     17  C   UNL     1      -3.320  -1.224  -0.869  0.00  0.00    +0.011 A 
ATOM     18  C   UNL     1      -3.512  -2.074   0.205  0.00  0.00    +0.011 A 
ATOM     19  C   UNL     1      -4.779  -2.532   0.506  0.00  0.00    +0.023 A 
ATOM     20  C   UNL     1      -5.860  -2.148  -0.277  0.00  0.00    +0.029 A 
ATOM     21  C   UNL     1      -5.663  -1.298  -1.359  0.00  0.00    +0.023 A 
ATOM     22  C   UNL     1      -4.394  -0.839  -1.651  0.00  0.00    +0.011 A 
BRANCH  20  23
ATOM     23  N   UNL     1      -7.142  -2.615   0.021  0.00  0.00    -0.336 N 
ATOM     24  C   UNL     1      -8.261  -2.307  -0.874  0.00  0.00    +0.129 C 
ATOM     25  C   UNL     1      -7.369  -3.413   1.229  0.00  0.00    +0.129 C 
ENDBRANCH  20  23
ENDBRANCH  14  17
BRANCH   1  26
ATOM     26  S   UNL     1       3.862  -0.814  -0.119  0.00  0.00    -0.084 S 
BRANCH  26  27
ATOM     27  C   UNL     1       4.982   0.607  -0.115  0.00  0.00    +0.077 C 
BRANCH  27  29
ATOM     28  C   UNL     1       7.377   1.318  -0.151  0.00  0.00    +0.004 C 
ATOM     29  C   UNL     1       6.430   0.116  -0.155  0.00  0.00    +0.008 C 
ENDBRANCH  27  29
ENDBRANCH  26  27
ENDBRANCH   1  26
TORSDOF 5
