REMARK  Name = ZINC21368151
REMARK  10 active torsions:
REMARK  status: ('A' for Active; 'I' for Inactive)
REMARK    1  A    between atoms: C_1  and  C_2
REMARK    2  A    between atoms: C_2  and  O_3
REMARK    3  A    between atoms: O_3  and  C_4
REMARK    4  A    between atoms: C_7  and  O_33
REMARK    5  A    between atoms: C_8  and  N_10
REMARK    6  A    between atoms: C_11  and  C_21
REMARK    7  A    between atoms: N_23  and  C_24
REMARK    8  A    between atoms: C_30  and  C_32
REMARK    9  A    between atoms: O_33  and  C_34
REMARK   10  A    between atoms: C_34  and  C_35
REMARK                            x       y       z     vdW  Elec       q    Type
REMARK                         _______ _______ _______ _____ _____    ______ ____
ROOT
ATOM      1  N   UNL     1       3.669   2.026  -0.721  0.00  0.00    -0.249 N 
ATOM      2  C   UNL     1       2.446   1.497  -0.128  0.00  0.00    +0.214 C 
ATOM      3  C   UNL     1       1.454   2.612   0.070  0.00  0.00    +0.049 A 
ATOM      4  C   UNL     1       0.138   2.512   0.320  0.00  0.00    +0.025 A 
ATOM      5  C   UNL     1      -0.372   3.823   0.420  0.00  0.00    +0.019 A 
ATOM      6  C   UNL     1       0.659   4.675   0.236  0.00  0.00    +0.086 A 
ATOM      7  N   UNL     1       1.782   3.941   0.017  0.00  0.00    -0.340 N 
ATOM      8  C   UNL     1       3.139   4.431  -0.237  0.00  0.00    +0.217 C 
ATOM      9  C   UNL     1       3.988   3.317  -0.776  0.00  0.00    +0.241 C 
ATOM     10  O   UNL     1       5.041   3.616  -1.300  0.00  0.00    -0.273 OA
ENDROOT
BRANCH   1  15
ATOM     11  C   UNL     1       6.478  -0.335  -1.034  0.00  0.00    +0.122 A 
ATOM     12  C   UNL     1       6.362  -0.707  -2.366  0.00  0.00    +0.049 A 
ATOM     13  C   UNL     1       5.356  -0.174  -3.150  0.00  0.00    +0.051 A 
ATOM     14  C   UNL     1       4.457   0.729  -2.607  0.00  0.00    +0.142 A 
ATOM     15  C   UNL     1       4.574   1.109  -1.272  0.00  0.00    +0.083 A 
ATOM     16  C   UNL     1       5.585   0.573  -0.487  0.00  0.00    +0.072 A 
BRANCH  11  17
ATOM     17  O   UNL     1       7.469  -0.861  -0.266  0.00  0.00    -0.492 OA
BRANCH  17  19
ATOM     18  C   UNL     1       9.394  -2.270   0.119  0.00  0.00    +0.048 C 
ATOM     19  C   UNL     1       8.354  -1.790  -0.895  0.00  0.00    +0.225 C 
ENDBRANCH  17  19
ENDBRANCH  11  17
BRANCH  14  20
ATOM     20  O   UNL     1       3.464   1.249  -3.378  0.00  0.00    -0.490 OA
BRANCH  20  21
ATOM     21  C   UNL     1       3.404   0.815  -4.738  0.00  0.00    +0.226 C 
ATOM     22  C   UNL     1       2.232   1.502  -5.441  0.00  0.00    +0.048 C 
ENDBRANCH  20  21
ENDBRANCH  14  20
ENDBRANCH   1  15
BRANCH   2  23
ATOM     23  C   UNL     1       2.767   0.869   1.204  0.00  0.00    +0.240 C 
ATOM     24  O   UNL     1       3.705   1.276   1.856  0.00  0.00    -0.273 OA
ATOM     25  N   UNL     1       2.011  -0.144   1.671  0.00  0.00    -0.310 N 
ATOM     26  H   UNL     1       1.159  -0.513   1.080  0.00  0.00    +0.149 HD
BRANCH  25  27
ATOM     27  C   UNL     1       2.322  -0.754   2.966  0.00  0.00    +0.076 C 
ATOM     28  C   UNL     1       3.391  -1.833   2.777  0.00  0.00    +0.022 C 
ATOM     29  C   UNL     1       2.869  -2.906   1.820  0.00  0.00    +0.002 C 
ATOM     30  C   UNL     1       1.603  -3.538   2.404  0.00  0.00    +0.000 C 
ATOM     31  C   UNL     1       0.535  -2.460   2.592  0.00  0.00    +0.005 C 
ATOM     32  C   UNL     1       1.057  -1.387   3.550  0.00  0.00    +0.006 C 
ATOM     33  C   UNL     1      -0.012  -0.308   3.738  0.00  0.00    +0.009 C 
ENDBRANCH  25  27
ENDBRANCH   2  23
TORSDOF 7
