REMARK  Name = ZINC00171717
REMARK  8 active torsions:
REMARK  status: ('A' for Active; 'I' for Inactive)
REMARK    1  A    between atoms: C_1  and  C_2
REMARK    2  A    between atoms: C_2  and  C_3
REMARK    3  A    between atoms: C_3  and  C_20
REMARK    4  A    between atoms: C_5  and  C_9
REMARK    5  A    between atoms: C_5  and  C_12
REMARK    6  A    between atoms: C_9  and  C_10
REMARK    7  A    between atoms: C_17  and  O_18
REMARK    8  A    between atoms: O_18  and  C_19
REMARK                            x       y       z     vdW  Elec       q    Type
REMARK                         _______ _______ _______ _____ _____    ______ ____
ROOT
ATOM      1  C   UNL     1       0.075  -0.067   0.038  0.00  0.00    +0.067 C 
ATOM      2  C   UNL     1      -0.045   1.458  -0.024  0.00  0.00    +0.047 C 
ATOM      3  C   UNL     1       1.354   2.077   0.047  0.00  0.00    +0.017 C 
ATOM      4  C   UNL     1       2.208   1.514  -1.094  0.00  0.00    +0.041 C 
ATOM      5  C   UNL     1       2.241  -0.013  -0.990  0.00  0.00    +0.161 C 
ATOM      6  O   UNL     1       0.906  -0.522  -1.031  0.00  0.00    -0.374 OA
ATOM      7  C   UNL     1       0.696  -0.475   1.376  0.00  0.00    +0.041 C 
ENDROOT
BRANCH   3   8
ATOM      8  C   UNL     1       1.252   3.574  -0.092  0.00  0.00    +0.002 A 
ATOM      9  C   UNL     1       0.026   4.163  -0.339  0.00  0.00    +0.008 A 
ATOM     10  C   UNL     1      -0.069   5.536  -0.466  0.00  0.00    +0.001 A 
ATOM     11  C   UNL     1       1.062   6.324  -0.346  0.00  0.00    +0.004 A 
ATOM     12  C   UNL     1       2.289   5.740  -0.099  0.00  0.00    +0.046 A 
ATOM     13  C   UNL     1       2.386   4.362   0.034  0.00  0.00    +0.124 A 
BRANCH  13  14
ATOM     14  O   UNL     1       3.591   3.785   0.282  0.00  0.00    -0.495 OA
ATOM     15  C   UNL     1       4.716   4.659   0.400  0.00  0.00    +0.277 C 
ENDBRANCH  13  14
ENDBRANCH   3   8
BRANCH   1  17
ATOM     16  C   UNL     1      -1.204  -2.212   0.060  0.00  0.00    +0.007 C 
ATOM     17  C   UNL     1      -1.314  -0.694  -0.092  0.00  0.00    +0.031 C 
ENDBRANCH   1  17
BRANCH   3  18
ATOM     18  C   UNL     1       2.000   1.728   1.390  0.00  0.00    +0.130 C 
BRANCH  18  19
ATOM     19  C   UNL     1       1.107   2.139   2.485  0.00  0.00    +0.063 C 
ATOM     20  N   UNL     1       0.417   2.456   3.330  0.00  0.00    -0.197 NA
ENDBRANCH  18  19
ENDBRANCH   3  18
TORSDOF 5
