REMARK  Name = ZINC39383701
REMARK  4 active torsions:
REMARK  status: ('A' for Active; 'I' for Inactive)
REMARK    1  A    between atoms: C_1  and  C_2
REMARK    2  A    between atoms: C_3  and  C_15
REMARK    3  A    between atoms: C_11  and  C_14
REMARK    4  A    between atoms: C_31  and  C_33
REMARK                            x       y       z     vdW  Elec       q    Type
REMARK                         _______ _______ _______ _____ _____    ______ ____
ROOT
ATOM      1  C   UNL     1      -0.133  -0.159  -2.615  0.00  0.00    +0.083 A 
ATOM      2  C   UNL     1      -1.344  -0.198  -3.294  0.00  0.00    +0.098 A 
ATOM      3  C   UNL     1      -1.533   0.665  -4.383  0.00  0.00    +0.253 A 
ATOM      4  O   UNL     1      -2.584   0.659  -5.004  0.00  0.00    -0.268 OA
ATOM      5  N   UNL     1      -0.533   1.501  -4.732  0.00  0.00    -0.295 N 
ATOM      6  H   UNL     1      -0.648   2.105  -5.483  0.00  0.00    +0.172 HD
ATOM      7  C   UNL     1       0.635   1.501  -4.033  0.00  0.00    +0.203 A 
ATOM      8  N   UNL     1       0.820   0.699  -3.007  0.00  0.00    -0.215 NA
ATOM      9  N   UNL     1       1.639   2.359  -4.404  0.00  0.00    -0.268 N 
ATOM     10  C   UNL     1       2.835   2.541  -3.705  0.00  0.00    +0.040 A 
ATOM     11  C   UNL     1       3.275   1.931  -2.528  0.00  0.00    +0.024 A 
ATOM     12  C   UNL     1       4.504   2.255  -1.995  0.00  0.00    +0.002 A 
ATOM     13  C   UNL     1       5.311   3.187  -2.621  0.00  0.00    +0.000 A 
ATOM     14  C   UNL     1       4.883   3.795  -3.786  0.00  0.00    +0.005 A 
ATOM     15  C   UNL     1       3.651   3.474  -4.325  0.00  0.00    -0.024 A 
ATOM     16  C   UNL     1       2.950   3.979  -5.565  0.00  0.00    +0.059 C 
ATOM     17  C   UNL     1       1.616   3.214  -5.593  0.00  0.00    +0.083 C 
ATOM     18  C   UNL     1       1.518   2.360  -6.859  0.00  0.00    +0.029 C 
ENDROOT
BRANCH   1  21
ATOM     19  C   UNL     1       0.641   0.948  -0.023  0.00  0.00    +0.066 C 
ATOM     20  C   UNL     1       0.472  -0.538  -0.215  0.00  0.00    +0.052 A 
ATOM     21  C   UNL     1       0.101  -1.055  -1.461  0.00  0.00    +0.040 A 
ATOM     22  C   UNL     1      -0.042  -2.441  -1.588  0.00  0.00    +0.126 A 
ATOM     23  N   UNL     1       0.176  -3.207  -0.534  0.00  0.00    -0.222 NA
ATOM     24  C   UNL     1       0.525  -2.678   0.630  0.00  0.00    +0.218 A 
ATOM     25  N   UNL     1       0.676  -1.370   0.789  0.00  0.00    -0.219 NA
ATOM     26  N   UNL     1       0.744  -3.514   1.708  0.00  0.00    -0.300 N 
ATOM     27  C   UNL     1       1.127  -2.966   3.016  0.00  0.00    +0.108 C 
ATOM     28  C   UNL     1       2.407  -3.662   3.488  0.00  0.00    +0.022 C 
ATOM     29  C   UNL     1       2.191  -5.177   3.480  0.00  0.00    -0.011 C 
ATOM     30  C   UNL     1       1.884  -5.644   2.056  0.00  0.00    +0.022 C 
ATOM     31  C   UNL     1       0.592  -4.969   1.569  0.00  0.00    +0.108 C 
ATOM     32  C   UNL     1       3.456  -5.875   3.984  0.00  0.00    +0.007 C 
ENDBRANCH   1  21
TORSDOF 1
