REMARK  Name = ZINC02253134
REMARK  8 active torsions:
REMARK  status: ('A' for Active; 'I' for Inactive)
REMARK    1  A    between atoms: C_1  and  C_2
REMARK    2  A    between atoms: C_2  and  C_3
REMARK    3  A    between atoms: C_3  and  C_29
REMARK    4  A    between atoms: N_15  and  C_22
REMARK    5  A    between atoms: N_18  and  C_19
REMARK    6  A    between atoms: C_19  and  C_20
REMARK    7  A    between atoms: C_20  and  O_21
REMARK    8  A    between atoms: C_25  and  C_28
REMARK                            x       y       z     vdW  Elec       q    Type
REMARK                         _______ _______ _______ _____ _____    ______ ____
ROOT
ATOM      1  C   UNL     1      -2.119  -1.186   0.069  0.00  0.00    +0.004 C 
ATOM      2  C   UNL     1      -2.117  -2.688  -0.204  0.00  0.00    +0.047 C 
ATOM      3  C   UNL     1      -1.341  -2.997  -1.456  0.00  0.00    -0.037 A 
ATOM      4  C   UNL     1      -0.591  -4.151  -1.546  0.00  0.00    +0.004 A 
ATOM      5  C   UNL     1       0.115  -4.430  -2.703  0.00  0.00    +0.000 A 
ATOM      6  C   UNL     1       0.076  -3.557  -3.775  0.00  0.00    +0.001 A 
ATOM      7  C   UNL     1      -0.670  -2.398  -3.697  0.00  0.00    +0.010 A 
ATOM      8  C   UNL     1      -1.381  -2.113  -2.535  0.00  0.00    +0.004 A 
ATOM      9  C   UNL     1      -2.181  -0.873  -2.417  0.00  0.00    +0.084 A 
ATOM     10  C   UNL     1      -2.543  -0.426  -1.155  0.00  0.00    +0.050 A 
ATOM     11  C   UNL     1      -3.308   0.742  -1.047  0.00  0.00    +0.264 A 
ATOM     12  O   UNL     1      -3.647   1.166   0.046  0.00  0.00    -0.267 OA
ATOM     13  N   UNL     1      -3.663   1.391  -2.178  0.00  0.00    -0.249 N 
ATOM     14  C   UNL     1      -3.276   0.911  -3.394  0.00  0.00    +0.204 A 
ATOM     15  N   UNL     1      -2.556  -0.187  -3.502  0.00  0.00    -0.215 NA
ATOM     16  N   UNL     1      -3.643   1.586  -4.527  0.00  0.00    -0.312 N 
ATOM     17  C   UNL     1      -3.089  -0.882   1.213  0.00  0.00    +0.016 C 
ATOM     18  H   UNL     1      -4.191   2.384  -4.461  0.00  0.00    +0.149 HD
ENDROOT
BRANCH  13  19
ATOM     19  C   UNL     1      -4.430   2.559  -2.101  0.00  0.00    +0.053 A 
ATOM     20  C   UNL     1      -5.816   2.486  -2.149  0.00  0.00    +0.026 A 
ATOM     21  C   UNL     1      -6.571   3.641  -2.072  0.00  0.00    +0.005 A 
ATOM     22  C   UNL     1      -5.947   4.869  -1.948  0.00  0.00    -0.050 A 
ATOM     23  C   UNL     1      -4.567   4.945  -1.900  0.00  0.00    +0.005 A 
ATOM     24  C   UNL     1      -3.808   3.794  -1.970  0.00  0.00    +0.026 A 
ATOM     25  C   UNL     1      -6.773   6.126  -1.865  0.00  0.00    +0.044 C 
ENDBRANCH  13  19
BRANCH   1  27
ATOM     26  C   UNL     1      -0.712   0.755   0.775  0.00  0.00    +0.005 C 
ATOM     27  C   UNL     1      -0.710  -0.745   0.473  0.00  0.00    +0.008 C 
ENDBRANCH   1  27
BRANCH  16  28
ATOM     28  C   UNL     1      -3.209   1.104  -5.841  0.00  0.00    +0.132 C 
BRANCH  28  29
ATOM     29  C   UNL     1      -3.751   2.031  -6.930  0.00  0.00    +0.174 C 
BRANCH  29  30
ATOM     30  O   UNL     1      -3.163   3.326  -6.789  0.00  0.00    -0.393 OA
ATOM     31  H   UNL     1      -3.462   3.967  -7.449  0.00  0.00    +0.209 HD
ENDBRANCH  29  30
ENDBRANCH  28  29
ENDBRANCH  16  28
TORSDOF 5
