REMARK  Name = ZINC63282028
REMARK  6 active torsions:
REMARK  status: ('A' for Active; 'I' for Inactive)
REMARK    1  A    between atoms: C_6  and  C_11
REMARK    2  A    between atoms: N_13  and  C_14
REMARK    3  A    between atoms: C_14  and  C_15
REMARK    4  A    between atoms: C_15  and  C_16
REMARK    5  A    between atoms: C_16  and  C_17
REMARK    6  A    between atoms: N_22  and  C_25
REMARK                            x       y       z     vdW  Elec       q    Type
REMARK                         _______ _______ _______ _____ _____    ______ ____
ROOT
ATOM      1  C   UNL     1       3.387  -6.195   2.568  0.00  0.00    +0.028 C 
ENDROOT
BRANCH   1   2
ATOM      2  C   UNL     1       3.842  -4.735   2.597  0.00  0.00    +0.104 C 
BRANCH   2   5
ATOM      3  C   UNL     1       3.628  -2.740   1.214  0.00  0.00    +0.239 C 
ATOM      4  O   UNL     1       4.290  -2.137   2.032  0.00  0.00    -0.273 OA
ATOM      5  N   UNL     1       3.347  -4.045   1.403  0.00  0.00    -0.313 N 
ATOM      6  H   UNL     1       2.817  -4.527   0.749  0.00  0.00    +0.149 HD
BRANCH   3  12
ATOM      7  C   UNL     1      -0.077   1.337   0.021  0.00  0.00    +0.001 A 
ATOM      8  C   UNL     1       1.097   2.103   0.027  0.00  0.00    +0.002 A 
ATOM      9  C   UNL     1       2.328   1.550   0.021  0.00  0.00    +0.026 A 
ATOM     10  C   UNL     1       2.481   0.136   0.008  0.00  0.00    +0.043 A 
ATOM     11  N   UNL     1       3.547  -0.627  -0.001  0.00  0.00    -0.370 N 
ATOM     12  C   UNL     1       3.118  -2.030  -0.013  0.00  0.00    +0.190 C 
ATOM     13  C   UNL     1       1.606  -2.002  -0.011  0.00  0.00    +0.016 C 
ATOM     14  C   UNL     1       1.256  -0.695   0.002  0.00  0.00    -0.004 A 
ATOM     15  C   UNL     1      -0.045  -0.015   0.009  0.00  0.00    +0.010 A 
ATOM     16  H   UNL     1       4.466  -0.316   0.001  0.00  0.00    +0.161 HD
ENDBRANCH   3  12
ENDBRANCH   2   5
ENDBRANCH   1   2
BRANCH   1  17
ATOM     17  C   UNL     1       3.904  -6.916   3.814  0.00  0.00    +0.097 C 
BRANCH  17  18
ATOM     18  C   UNL     1       3.455  -8.354   3.785  0.00  0.00    +0.216 C 
ATOM     19  O   UNL     1       2.787  -8.762   2.859  0.00  0.00    -0.276 OA
ATOM     20  N   UNL     1       3.796  -9.187   4.789  0.00  0.00    -0.298 N 
ATOM     21  C   UNL     1       4.600  -8.704   5.921  0.00  0.00    +0.126 C 
ATOM     22  C   UNL     1       3.844  -9.004   7.221  0.00  0.00    +0.124 C 
ATOM     23  N   UNL     1       3.418 -10.410   7.204  0.00  0.00    -0.327 N 
ATOM     24  C   UNL     1       2.614 -10.893   6.072  0.00  0.00    +0.124 C 
ATOM     25  C   UNL     1       3.365 -10.592   4.774  0.00  0.00    +0.126 C 
BRANCH  23  26
ATOM     26  C   UNL     1       3.771 -11.273   8.244  0.00  0.00    +0.031 A 
ATOM     27  C   UNL     1       4.626 -10.838   9.249  0.00  0.00    +0.023 A 
ATOM     28  C   UNL     1       4.973 -11.693  10.277  0.00  0.00    +0.003 A 
ATOM     29  C   UNL     1       4.471 -12.982  10.306  0.00  0.00    +0.020 A 
ATOM     30  C   UNL     1       3.620 -13.418   9.306  0.00  0.00    +0.043 A 
ATOM     31  C   UNL     1       3.264 -12.565   8.278  0.00  0.00    +0.043 A 
ATOM     32 CL   UNL     1       2.993 -15.037   9.347  0.00  0.00    -0.083 Cl
ENDBRANCH  23  26
ENDBRANCH  17  18
ENDBRANCH   1  17
TORSDOF 6
