REMARK  Name = ZINC39677638
REMARK  5 active torsions:
REMARK  status: ('A' for Active; 'I' for Inactive)
REMARK    1  A    between atoms: C_5  and  C_7
REMARK    2  A    between atoms: C_10  and  C_12
REMARK    3  A    between atoms: C_12  and  N_13
REMARK    4  A    between atoms: C_14  and  C_16
REMARK    5  A    between atoms: C_27  and  C_29
REMARK                            x       y       z     vdW  Elec       q    Type
REMARK                         _______ _______ _______ _____ _____    ______ ____
ROOT
ATOM      1  C   UNL     1      -0.815  -8.417   3.390  0.00  0.00    +0.100 C 
ATOM      2  C   UNL     1       0.654  -8.463   3.869  0.00  0.00    +0.121 C 
ATOM      3  N   UNL     1       0.763  -9.736   4.619  0.00  0.00    -0.296 N 
ATOM      4  C   UNL     1      -0.043 -10.699   3.831  0.00  0.00    +0.115 C 
ATOM      5  C   UNL     1      -1.268  -9.886   3.366  0.00  0.00    -0.004 C 
ATOM      6  C   UNL     1      -2.435 -10.095   4.326  0.00  0.00    -0.010 C 
ATOM      7  C   UNL     1      -2.905 -11.550   4.242  0.00  0.00    -0.082 C 
ATOM      8  N   UNL     1      -3.316 -11.855   2.866  0.00  0.00    +0.379 N 
ATOM      9  C   UNL     1      -2.166 -11.742   1.963  0.00  0.00    -0.082 C 
ATOM     10  C   UNL     1      -1.664 -10.295   1.950  0.00  0.00    -0.010 C 
ATOM     11  C   UNL     1       1.443  -9.967   5.760  0.00  0.00    +0.250 C 
ATOM     12  O   UNL     1       1.516 -11.095   6.206  0.00  0.00    -0.270 OA
ATOM     13  H   UNL     1      -3.682 -12.794   2.827  0.00  0.00    -0.086 HD
ATOM     14  H   UNL     1      -4.033 -11.205   2.579  0.00  0.00    -0.086 HD
ENDROOT
BRANCH  11  15
ATOM     15  C   UNL     1       2.099  -8.848   6.468  0.00  0.00    +0.074 A 
ATOM     16  C   UNL     1       2.676  -7.793   5.752  0.00  0.00    +0.017 A 
ATOM     17  C   UNL     1       3.278  -6.769   6.462  0.00  0.00    +0.021 A 
ATOM     18  C   UNL     1       3.291  -6.820   7.845  0.00  0.00    +0.112 A 
ATOM     19  N   UNL     1       2.739  -7.827   8.495  0.00  0.00    -0.243 NA
ATOM     20  C   UNL     1       2.149  -8.823   7.864  0.00  0.00    +0.141 A 
ATOM     21 CL   UNL     1       1.435 -10.117   8.775  0.00  0.00    -0.061 Cl
ENDBRANCH  11  15
BRANCH   1  23
ATOM     22  N   UNL     1      -2.007  -7.157   1.626  0.00  0.00    -0.310 N 
ATOM     23  C   UNL     1      -0.897  -7.820   2.009  0.00  0.00    +0.218 C 
ATOM     24  O   UNL     1       0.034  -7.935   1.241  0.00  0.00    -0.275 OA
ATOM     25  H   UNL     1      -2.753  -7.065   2.240  0.00  0.00    +0.149 HD
BRANCH  22  26
ATOM     26  C   UNL     1      -2.088  -6.577   0.284  0.00  0.00    +0.146 C 
BRANCH  26  30
ATOM     27  C   UNL     1      -5.955  -5.101  -0.360  0.00  0.00    +0.038 A 
ATOM     28  C   UNL     1      -5.056  -4.196   0.139  0.00  0.00    +0.018 A 
ATOM     29  C   UNL     1      -3.765  -4.609   0.377  0.00  0.00    +0.013 A 
ATOM     30  C   UNL     1      -3.421  -5.896   0.110  0.00  0.00    +0.007 A 
ATOM     31  S   UNL     1      -4.958  -6.576  -0.492  0.00  0.00    -0.090 S 
BRANCH  27  36
ATOM     32  C   UNL     1      -9.459  -5.781  -1.504  0.00  0.00    +0.004 A 
ATOM     33  C   UNL     1     -10.007  -4.520  -1.308  0.00  0.00    +0.020 A 
ATOM     34  C   UNL     1      -9.212  -3.505  -0.811  0.00  0.00    +0.111 A 
ATOM     35  N   UNL     1      -7.944  -3.717  -0.523  0.00  0.00    -0.254 NA
ATOM     36  C   UNL     1      -7.380  -4.908  -0.696  0.00  0.00    +0.078 A 
ATOM     37  C   UNL     1      -8.126  -5.979  -1.194  0.00  0.00    +0.029 A 
ENDBRANCH  27  36
ENDBRANCH  26  30
ENDBRANCH  22  26
ENDBRANCH   1  23
TORSDOF 5
