REMARK  Name = ZINC04178629
REMARK  4 active torsions:
REMARK  status: ('A' for Active; 'I' for Inactive)
REMARK    1  A    between atoms: C_1  and  C_2
REMARK    2  A    between atoms: C_5  and  C_7
REMARK    3  A    between atoms: C_5  and  O_11
REMARK    4  A    between atoms: C_12  and  C_14
REMARK                            x       y       z     vdW  Elec       q    Type
REMARK                         _______ _______ _______ _____ _____    ______ ____
ROOT
ATOM      1  C   UNL     1      -6.817  -1.338   0.062  0.00  0.00    +0.062 C 
ATOM      2  C   UNL     1      -6.810   0.169   0.069  0.00  0.00    +0.039 C 
ATOM      3  N   UNL     1      -5.769   0.894   0.058  0.00  0.00    -0.183 NA
ATOM      4  N   UNL     1      -6.019   2.265   0.073  0.00  0.00    -0.148 N 
ATOM      5  C   UNL     1      -7.476   2.478   0.088  0.00  0.00    +0.257 C 
ATOM      6  C   UNL     1      -8.043   1.044   0.086  0.00  0.00    +0.118 C 
ATOM      7  C   UNL     1      -5.084   3.235   0.069  0.00  0.00    +0.277 C 
ATOM      8  O   UNL     1      -5.420   4.405   0.078  0.00  0.00    -0.268 OA
ENDROOT
BRANCH   7   9
ATOM      9  C   UNL     1      -3.659   2.881   0.053  0.00  0.00    +0.095 A 
ATOM     10  C   UNL     1      -2.579   3.709   0.047  0.00  0.00    +0.068 A 
ATOM     11  C   UNL     1      -1.280   3.167   0.031  0.00  0.00    +0.008 A 
ATOM     12  C   UNL     1      -0.041   3.857   0.023  0.00  0.00    +0.010 A 
ATOM     13  C   UNL     1       1.134   3.176   0.008  0.00  0.00    +0.001 A 
ATOM     14  C   UNL     1       1.170   1.787   0.001  0.00  0.00    +0.001 A 
ATOM     15  C   UNL     1      -0.013   1.076   0.008  0.00  0.00    +0.016 A 
ATOM     16  C   UNL     1      -1.213   1.754   0.017  0.00  0.00    +0.021 A 
ATOM     17  S   UNL     1      -2.917   1.258   0.037  0.00  0.00    -0.082 S 
ATOM     18 CL   UNL     1      -2.803   5.431   0.058  0.00  0.00    -0.082 Cl
ENDBRANCH   7   9
BRANCH   5  19
ATOM     19  C   UNL     1      -7.899   3.228   1.353  0.00  0.00    +0.438 C 
ATOM     20  F   UNL     1      -7.285   4.484   1.378  0.00  0.00    -0.166 F 
ATOM     21  F   UNL     1      -9.289   3.387   1.358  0.00  0.00    -0.166 F 
ATOM     22  F   UNL     1      -7.510   2.496   2.481  0.00  0.00    -0.166 F 
ENDBRANCH   5  19
BRANCH   5  23
ATOM     23  O   UNL     1      -7.894   3.188  -1.080  0.00  0.00    -0.363 OA
ATOM     24  H   UNL     1      -7.507   4.070  -1.164  0.00  0.00    +0.212 HD
ENDBRANCH   5  23
TORSDOF 3
