REMARK  Name = ZINC06932132
REMARK  9 active torsions:
REMARK  status: ('A' for Active; 'I' for Inactive)
REMARK    1  A    between atoms: C_1  and  C_2
REMARK    2  A    between atoms: C_5  and  C_7
REMARK    3  A    between atoms: C_9  and  C_17
REMARK    4  A    between atoms: C_17  and  O_19
REMARK    5  A    between atoms: O_19  and  C_20
REMARK    6  A    between atoms: C_20  and  C_22
REMARK    7  A    between atoms: C_20  and  C_25
REMARK    8  A    between atoms: C_22  and  C_23
REMARK    9  A    between atoms: C_22  and  C_24
REMARK                            x       y       z     vdW  Elec       q    Type
REMARK                         _______ _______ _______ _____ _____    ______ ____
ROOT
ATOM      1  C   UNL     1       0.484  -2.237   0.015  0.00  0.00    +0.107 A 
ATOM      2  C   UNL     1      -0.843  -1.774   0.037  0.00  0.00    +0.047 A 
ATOM      3  C   UNL     1      -1.088  -0.409   0.036  0.00  0.00    +0.070 A 
ATOM      4  C   UNL     1       0.074   0.483   0.012  0.00  0.00    +0.014 A 
ATOM      5  C   UNL     1      -0.074   1.873   0.010  0.00  0.00    +0.011 A 
ATOM      6  C   UNL     1       1.034   2.669  -0.012  0.00  0.00    +0.001 A 
ATOM      7  C   UNL     1       2.311   2.113  -0.034  0.00  0.00    +0.002 A 
ATOM      8  C   UNL     1       2.490   0.763  -0.032  0.00  0.00    +0.028 A 
ATOM      9  C   UNL     1       1.371  -0.089  -0.009  0.00  0.00    +0.073 A 
ATOM     10  N   UNL     1       1.516  -1.415  -0.007  0.00  0.00    -0.244 NA
ENDROOT
BRANCH   1  15
ATOM     11  C   UNL     1      -0.329  -7.187   0.045  0.00  0.00    +0.086 C 
ATOM     12  C   UNL     1       0.382  -5.858   0.029  0.00  0.00    +0.103 A 
ATOM     13  C   UNL     1       1.719  -5.682   0.004  0.00  0.00    +0.045 A 
ATOM     14  C   UNL     1       1.952  -4.294  -0.009  0.00  0.00    +0.052 A 
ATOM     15  C   UNL     1       0.732  -3.691   0.016  0.00  0.00    +0.153 A 
ATOM     16  O   UNL     1      -0.211  -4.654   0.036  0.00  0.00    -0.458 OA
ENDBRANCH   1  15
BRANCH   3  17
ATOM     17  C   UNL     1      -2.466   0.125   0.059  0.00  0.00    +0.341 C 
ATOM     18  O   UNL     1      -2.652   1.320   0.169  0.00  0.00    -0.245 OA
BRANCH  17  19
ATOM     19  O   UNL     1      -3.515  -0.714  -0.040  0.00  0.00    -0.448 OA
BRANCH  19  20
ATOM     20  C   UNL     1      -4.839  -0.120  -0.010  0.00  0.00    +0.265 C 
BRANCH  20  21
ATOM     21  C   UNL     1      -5.787  -0.965  -0.823  0.00  0.00    +0.261 C 
ATOM     22  O   UNL     1      -6.902  -0.558  -1.069  0.00  0.00    -0.271 OA
ATOM     23  N   UNL     1      -5.395  -2.172  -1.275  0.00  0.00    -0.237 N 
ATOM     24  C   UNL     1      -6.276  -2.974  -1.906  0.00  0.00    +0.303 C 
ATOM     25  O   UNL     1      -7.423  -2.608  -2.067  0.00  0.00    -0.253 OA
ATOM     26  N   UNL     1      -5.884  -4.181  -2.358  0.00  0.00    -0.313 N 
ATOM     27  H   UNL     1      -4.479  -2.464  -1.147  0.00  0.00    +0.159 HD
ATOM     28  H   UNL     1      -4.968  -4.473  -2.230  0.00  0.00    +0.146 HD
ATOM     29  H   UNL     1      -6.518  -4.758  -2.812  0.00  0.00    +0.146 HD
ENDBRANCH  20  21
BRANCH  20  30
ATOM     30  C   UNL     1      -5.333  -0.047   1.436  0.00  0.00    +0.033 C 
ATOM     31  C   UNL     1      -4.420   0.881   2.240  0.00  0.00    +0.011 C 
ATOM     32  C   UNL     1      -6.763   0.497   1.460  0.00  0.00    +0.011 C 
ENDBRANCH  20  30
ENDBRANCH  19  20
ENDBRANCH  17  19
ENDBRANCH   3  17
TORSDOF 6
