REMARK  Name = ZINC10059068
REMARK  6 active torsions:
REMARK  status: ('A' for Active; 'I' for Inactive)
REMARK    1  A    between atoms: C_1  and  O_2
REMARK    2  A    between atoms: O_2  and  C_3
REMARK    3  A    between atoms: C_5  and  C_12
REMARK    4  A    between atoms: C_7  and  O_10
REMARK    5  A    between atoms: C_8  and  O_9
REMARK    6  A    between atoms: O_10  and  C_11
REMARK                            x       y       z     vdW  Elec       q    Type
REMARK                         _______ _______ _______ _____ _____    ______ ____
ROOT
ATOM      1  C   UNL     1       1.240   7.456   0.006  0.00  0.00    +0.090 C 
ATOM      2  C   UNL     1      -0.060   8.084   0.421  0.00  0.00    -0.007 A 
ATOM      3  C   UNL     1      -0.080   9.437   0.810  0.00  0.00    -0.012 A 
ATOM      4  C   UNL     1       1.099  10.203   0.823  0.00  0.00    +0.009 A 
ATOM      5  C   UNL     1       1.049  11.509   1.201  0.00  0.00    +0.001 A 
ATOM      6  C   UNL     1      -0.156  12.101   1.577  0.00  0.00    +0.001 A 
ATOM      7  C   UNL     1      -1.316  11.390   1.577  0.00  0.00    +0.008 A 
ATOM      8  C   UNL     1      -1.304  10.038   1.194  0.00  0.00    -0.017 A 
ATOM      9  C   UNL     1      -2.484   9.274   1.182  0.00  0.00    +0.010 A 
ATOM     10  C   UNL     1      -2.441   7.971   0.805  0.00  0.00    +0.024 A 
ATOM     11  C   UNL     1      -1.234   7.367   0.424  0.00  0.00    +0.036 A 
ATOM     12  N   UNL     1      -1.234   6.021   0.045  0.00  0.00    -0.313 N 
ATOM     13  C   UNL     1      -0.059   5.312   0.025  0.00  0.00    +0.053 A 
ATOM     14  C   UNL     1       1.158   5.957   0.013  0.00  0.00    +0.070 A 
ATOM     15  C   UNL     1       2.332   5.189   0.006  0.00  0.00    +0.343 A 
ATOM     16  O   UNL     1       3.405   5.767   0.002  0.00  0.00    -0.245 OA
ATOM     17  O   UNL     1       2.327   3.852   0.002  0.00  0.00    -0.422 OA
ATOM     18  C   UNL     1       1.168   3.164   0.007  0.00  0.00    +0.141 A 
ATOM     19  C   UNL     1      -0.063   3.841   0.021  0.00  0.00    +0.039 A 
ATOM     20  C   UNL     1      -1.259   3.123   0.029  0.00  0.00    +0.013 A 
ATOM     21  C   UNL     1      -1.227   1.746   0.017  0.00  0.00    +0.001 A 
ATOM     22  C   UNL     1      -0.013   1.076   0.008  0.00  0.00    +0.004 A 
ATOM     23  C   UNL     1       1.176   1.774   0.000  0.00  0.00    +0.047 A 
ATOM     24  H   UNL     1      -2.065   5.588  -0.204  0.00  0.00    +0.152 HD
ENDROOT
BRANCH   1  27
ATOM     25  C   UNL     1       3.093   9.040  -2.881  0.00  0.00    +0.165 A 
ATOM     26  C   UNL     1       2.768   8.610  -1.604  0.00  0.00    +0.054 A 
ATOM     27  C   UNL     1       1.590   7.921  -1.384  0.00  0.00    -0.028 A 
ATOM     28  C   UNL     1       0.735   7.651  -2.436  0.00  0.00    +0.054 A 
ATOM     29  C   UNL     1       1.051   8.082  -3.716  0.00  0.00    +0.165 A 
ATOM     30  C   UNL     1       2.233   8.777  -3.941  0.00  0.00    +0.201 A 
BRANCH  25  32
ATOM     31  C   UNL     1       5.087   9.954  -1.962  0.00  0.00    +0.277 C 
ATOM     32  O   UNL     1       4.252   9.719  -3.097  0.00  0.00    -0.491 OA
ENDBRANCH  25  32
BRANCH  30  33
ATOM     33  O   UNL     1       2.549   9.197  -5.197  0.00  0.00    -0.501 OA
ATOM     34  H   UNL     1       3.059   8.555  -5.709  0.00  0.00    +0.292 HD
ENDBRANCH  30  33
BRANCH  29  35
ATOM     35  O   UNL     1       0.206   7.822  -4.750  0.00  0.00    -0.491 OA
ATOM     36  C   UNL     1      -0.991   7.104  -4.444  0.00  0.00    +0.277 C 
ENDBRANCH  29  35
ENDBRANCH   1  27
TORSDOF 4
