REMARK  Name = ZINC59343505
REMARK  7 active torsions:
REMARK  status: ('A' for Active; 'I' for Inactive)
REMARK    1  A    between atoms: C_1  and  C_2
REMARK    2  A    between atoms: C_2  and  C_3
REMARK    3  A    between atoms: C_3  and  C_5
REMARK    4  A    between atoms: C_3  and  C_6
REMARK    5  A    between atoms: N_8  and  C_9
REMARK    6  A    between atoms: C_12  and  S_15
REMARK    7  A    between atoms: S_15  and  N_18
REMARK                            x       y       z     vdW  Elec       q    Type
REMARK                         _______ _______ _______ _____ _____    ______ ____
ROOT
ATOM      1  C   UNL     1       1.988  -4.162   2.684  0.00  0.00    +0.034 A 
ATOM      2  C   UNL     1       1.527  -4.570   1.440  0.00  0.00    +0.025 A 
ATOM      3  C   UNL     1       1.597  -5.902   1.082  0.00  0.00    +0.030 A 
ATOM      4  C   UNL     1       2.126  -6.829   1.962  0.00  0.00    +0.109 A 
ATOM      5  C   UNL     1       2.585  -6.425   3.203  0.00  0.00    +0.030 A 
ATOM      6  C   UNL     1       2.523  -5.094   3.563  0.00  0.00    +0.025 A 
ENDROOT
BRANCH   1   9
ATOM      7  C   UNL     1       2.893  -2.267   3.803  0.00  0.00    +0.220 C 
ATOM      8  O   UNL     1       3.787  -2.964   4.235  0.00  0.00    -0.275 OA
ATOM      9  N   UNL     1       1.918  -2.813   3.049  0.00  0.00    -0.285 N 
ATOM     10  H   UNL     1       1.168  -2.270   2.760  0.00  0.00    +0.155 HD
BRANCH   7  11
ATOM     11  C   UNL     1       2.873  -0.791   4.109  0.00  0.00    +0.072 C 
ATOM     12  C   UNL     1       2.929   0.001   2.801  0.00  0.00    +0.017 C 
BRANCH  11  14
ATOM     13  C   UNL     1       3.996   1.037   5.388  0.00  0.00    +0.004 C 
ATOM     14  C   UNL     1       4.082  -0.433   4.974  0.00  0.00    +0.009 C 
ENDBRANCH  11  14
ENDBRANCH   7  11
ENDBRANCH   1   9
BRANCH   4  15
ATOM     15  S   UNL     1       2.214  -8.528   1.502  0.00  0.00    +0.075 S 
ATOM     16  O   UNL     1       2.247  -9.274   2.711  0.00  0.00    -0.150 OA
ATOM     17  O   UNL     1       1.220  -8.731   0.508  0.00  0.00    -0.150 OA
BRANCH  15  18
ATOM     18  N   UNL     1       3.677  -8.760   0.763  0.00  0.00    -0.203 N 
ATOM     19  C   UNL     1       3.794  -8.691  -0.700  0.00  0.00    +0.132 C 
ATOM     20  C   UNL     1       4.658  -9.874  -1.157  0.00  0.00    +0.025 C 
ATOM     21  C   UNL     1       6.059  -9.719  -0.567  0.00  0.00    +0.038 C 
ATOM     22  C   UNL     1       5.983  -9.488   0.919  0.00  0.00    -0.025 A 
ATOM     23  C   UNL     1       4.824  -9.018   1.522  0.00  0.00    +0.054 A 
ATOM     24  C   UNL     1       4.790  -8.806   2.895  0.00  0.00    +0.025 A 
ATOM     25  C   UNL     1       5.910  -9.058   3.662  0.00  0.00    +0.002 A 
ATOM     26  C   UNL     1       7.065  -9.523   3.062  0.00  0.00    +0.000 A 
ATOM     27  C   UNL     1       7.100  -9.745   1.695  0.00  0.00    +0.005 A 
ENDBRANCH  15  18
ENDBRANCH   4  15
TORSDOF 5
