REMARK  Name = ZINC12529390
REMARK  6 active torsions:
REMARK  status: ('A' for Active; 'I' for Inactive)
REMARK    1  A    between atoms: C_4  and  N_16
REMARK    2  A    between atoms: C_6  and  S_7
REMARK    3  A    between atoms: S_7  and  N_10
REMARK    4  A    between atoms: C_17  and  C_19
REMARK    5  A    between atoms: C_19  and  S_20
REMARK    6  A    between atoms: S_20  and  C_21
REMARK                            x       y       z     vdW  Elec       q    Type
REMARK                         _______ _______ _______ _____ _____    ______ ____
ROOT
ATOM      1  C   UNL     1       3.490  -2.325  -0.761  0.00  0.00    +0.030 A 
ATOM      2  C   UNL     1       3.928  -2.638  -2.035  0.00  0.00    +0.024 A 
ATOM      3  C   UNL     1       4.833  -1.815  -2.678  0.00  0.00    +0.062 A 
ATOM      4  C   UNL     1       5.299  -0.669  -2.044  0.00  0.00    +0.054 A 
ATOM      5  C   UNL     1       4.853  -0.356  -0.767  0.00  0.00    +0.053 A 
ATOM      6  C   UNL     1       3.947  -1.183  -0.131  0.00  0.00    +0.107 A 
ATOM      7 CL   UNL     1       5.387  -2.212  -4.274  0.00  0.00    -0.082 Cl
ENDROOT
BRANCH   4   8
ATOM      8  N   UNL     1       6.215   0.167  -2.692  0.00  0.00    -0.284 N 
ATOM      9  C   UNL     1       7.035   0.956  -1.969  0.00  0.00    +0.227 C 
ATOM     10  O   UNL     1       7.050   0.869  -0.759  0.00  0.00    -0.275 OA
ATOM     11  H   UNL     1       6.261   0.179  -3.660  0.00  0.00    +0.155 HD
BRANCH   9  12
ATOM     12  C   UNL     1       7.934   1.946  -2.664  0.00  0.00    +0.172 C 
BRANCH  12  13
ATOM     13  S   UNL     1       8.907   2.850  -1.429  0.00  0.00    -0.088 S 
BRANCH  13  14
ATOM     14  C   UNL     1       9.893   3.953  -2.386  0.00  0.00    +0.160 A 
ATOM     15  N   UNL     1       9.938   4.112  -3.695  0.00  0.00    -0.133 NA
ATOM     16  N   UNL     1      10.791   5.042  -4.243  0.00  0.00    -0.125 NA
ATOM     17  C   UNL     1      11.558   5.772  -3.457  0.00  0.00    +0.180 A 
ATOM     18  S   UNL     1      11.092   5.161  -1.844  0.00  0.00    -0.025 S 
ATOM     19  N   UNL     1      12.480   6.757  -3.793  0.00  0.00    -0.336 N 
ATOM     20  H   UNL     1      12.626   6.987  -4.724  0.00  0.00    +0.144 HD
ATOM     21  H   UNL     1      12.977   7.214  -3.097  0.00  0.00    +0.144 HD
ENDBRANCH  13  14
ENDBRANCH  12  13
ENDBRANCH   9  12
ENDBRANCH   4   8
BRANCH   6  22
ATOM     22  S   UNL     1       3.381  -0.786   1.490  0.00  0.00    +0.061 S 
ATOM     23  O   UNL     1       4.378   0.039   2.077  0.00  0.00    -0.153 OA
ATOM     24  O   UNL     1       2.956  -2.006   2.082  0.00  0.00    -0.153 OA
BRANCH  22  25
ATOM     25  N   UNL     1       2.029   0.154   1.319  0.00  0.00    -0.177 NA
ATOM     26  C   UNL     1       0.696  -0.459   1.244  0.00  0.00    +0.109 C 
ATOM     27  C   UNL     1      -0.008   0.045  -0.020  0.00  0.00    +0.017 C 
ATOM     28  C   UNL     1      -0.019   1.575  -0.017  0.00  0.00    +0.003 C 
ATOM     29  C   UNL     1       1.419   2.098  -0.025  0.00  0.00    +0.017 C 
ATOM     30  C   UNL     1       2.139   1.617   1.239  0.00  0.00    +0.109 C 
ENDBRANCH  22  25
ENDBRANCH   6  22
TORSDOF 6
