REMARK  Name = ZINC37305523
REMARK  6 active torsions:
REMARK  status: ('A' for Active; 'I' for Inactive)
REMARK    1  A    between atoms: C_1  and  C_2
REMARK    2  A    between atoms: C_2  and  C_4
REMARK    3  A    between atoms: C_2  and  N_10
REMARK    4  A    between atoms: N_10  and  C_11
REMARK    5  A    between atoms: C_14  and  S_17
REMARK    6  A    between atoms: S_17  and  C_18
REMARK                            x       y       z     vdW  Elec       q    Type
REMARK                         _______ _______ _______ _____ _____    ______ ____
ROOT
ATOM      1  C   UNL     1       0.016  -0.634   2.395  0.00  0.00    +0.028 A 
ATOM      2  C   UNL     1      -1.336  -0.324   2.475  0.00  0.00    +0.024 A 
ATOM      3  C   UNL     1      -2.008  -0.473   3.672  0.00  0.00    +0.017 A 
ATOM      4  C   UNL     1      -1.333  -0.934   4.795  0.00  0.00    +0.016 A 
ATOM      5  C   UNL     1       0.018  -1.244   4.715  0.00  0.00    +0.017 A 
ATOM      6  C   UNL     1       0.689  -1.099   3.517  0.00  0.00    +0.024 A 
ENDROOT
BRANCH   1   7
ATOM      7  N   UNL     1       0.697  -0.483   1.182  0.00  0.00    -0.337 N 
ATOM      8  H   UNL     1       1.640  -0.703   1.125  0.00  0.00    +0.147 HD
BRANCH   7  10
ATOM      9  C   UNL     1      -0.029   1.538   0.012  0.00  0.00    +0.033 C 
ATOM     10  C   UNL     1      -0.013   0.008  -0.001  0.00  0.00    +0.105 C 
BRANCH  10  11
ATOM     11  C   UNL     1       0.687  -0.476  -1.245  0.00  0.00    +0.024 A 
ATOM     12  C   UNL     1       0.154  -1.009  -2.372  0.00  0.00    +0.030 A 
ATOM     13  C   UNL     1       0.999  -1.387  -3.399  0.00  0.00    +0.023 A 
ATOM     14  C   UNL     1       2.335  -1.214  -3.248  0.00  0.00    +0.046 A 
ATOM     15  S   UNL     1       2.432  -0.491  -1.619  0.00  0.00    -0.099 S 
ATOM     16 BR   UNL     1      -1.717  -1.232  -2.537  0.00  0.00    -0.049 Br
ENDBRANCH  10  11
ENDBRANCH   7  10
ENDBRANCH   1   7
BRANCH   4  17
ATOM     17  S   UNL     1      -2.192  -1.124   6.322  0.00  0.00    -0.050 S 
BRANCH  17  18
ATOM     18  C   UNL     1      -2.913  -2.728   6.209  0.00  0.00    +0.189 A 
ATOM     19  N   UNL     1      -3.758  -3.285   7.103  0.00  0.00    -0.254 N 
ATOM     20  H   UNL     1      -4.083  -2.884   7.925  0.00  0.00    +0.191 HD
ATOM     21  N   UNL     1      -4.073  -4.561   6.607  0.00  0.00    -0.160 NA
ATOM     22  C   UNL     1      -3.426  -4.703   5.481  0.00  0.00    +0.245 A 
ATOM     23  N   UNL     1      -2.728  -3.594   5.235  0.00  0.00    -0.209 NA
ENDBRANCH  17  18
ENDBRANCH   4  17
TORSDOF 5
