REMARK  Name = ZINC60436629
REMARK  7 active torsions:
REMARK  status: ('A' for Active; 'I' for Inactive)
REMARK    1  A    between atoms: C_1  and  C_2
REMARK    2  A    between atoms: C_6  and  C_8
REMARK    3  A    between atoms: C_6  and  N_23
REMARK    4  A    between atoms: C_8  and  N_9
REMARK    5  A    between atoms: N_9  and  C_10
REMARK    6  A    between atoms: N_23  and  C_24
REMARK    7  A    between atoms: N_23  and  C_25
REMARK                            x       y       z     vdW  Elec       q    Type
REMARK                         _______ _______ _______ _____ _____    ______ ____
ROOT
ATOM      1  N   UNL     1       3.079  -2.281   2.208  0.00  0.00    -0.350 N 
ATOM      2  H   UNL     1       3.278  -1.782   1.400  0.00  0.00    +0.145 HD
ENDROOT
BRANCH   1   3
ATOM      3  C   UNL     1       4.080  -2.621   3.061  0.00  0.00    +0.081 C 
ATOM      4  C   UNL     1       5.388  -2.339   2.735  0.00  0.00    +0.058 C 
ATOM      5  C   UNL     1       6.503  -2.828   3.573  0.00  0.00    +0.000 A 
ATOM      6  C   UNL     1       6.281  -3.587   4.716  0.00  0.00    +0.009 A 
ATOM      7  C   UNL     1       7.356  -4.021   5.465  0.00  0.00    +0.001 A 
ATOM      8  C   UNL     1       8.652  -3.705   5.086  0.00  0.00    +0.001 A 
ATOM      9  C   UNL     1       8.892  -2.953   3.956  0.00  0.00    +0.013 A 
ATOM     10  C   UNL     1       7.819  -2.505   3.184  0.00  0.00    +0.045 A 
ATOM     11  C   UNL     1       8.031  -1.702   1.973  0.00  0.00    +0.251 C 
ATOM     12  O   UNL     1       9.164  -1.421   1.632  0.00  0.00    -0.270 OA
ATOM     13  N   UNL     1       6.994  -1.274   1.234  0.00  0.00    -0.248 N 
ATOM     14  C   UNL     1       5.716  -1.549   1.543  0.00  0.00    +0.252 C 
ATOM     15  O   UNL     1       4.821  -1.135   0.829  0.00  0.00    -0.270 OA
ATOM     16  H   UNL     1       7.176  -0.747   0.441  0.00  0.00    +0.158 HD
ENDBRANCH   1   3
BRANCH   1  17
ATOM     17  C   UNL     1       1.698  -2.667   2.507  0.00  0.00    +0.089 C 
BRANCH  17  23
ATOM     18  C   UNL     1      -0.055   1.137  -0.217  0.00  0.00    +0.007 C 
ATOM     19  C   UNL     1      -0.082  -0.381  -0.029  0.00  0.00    -0.015 C 
ATOM     20  C   UNL     1       0.421  -1.062  -1.303  0.00  0.00    +0.003 C 
ATOM     21  C   UNL     1       0.394  -2.580  -1.115  0.00  0.00    -0.001 C 
ATOM     22  C   UNL     1       1.297  -2.964   0.059  0.00  0.00    -0.010 C 
ATOM     23  C   UNL     1       0.794  -2.283   1.334  0.00  0.00    -0.050 C 
ATOM     24  C   UNL     1       0.821  -0.765   1.145  0.00  0.00    -0.007 C 
BRANCH  23  25
ATOM     25  N   UNL     1      -0.581  -2.718   1.611  0.00  0.00    +0.381 N 
ATOM     26  C   UNL     1      -0.600  -4.170   1.833  0.00  0.00    -0.096 C 
ATOM     27  C   UNL     1      -1.078  -2.032   2.812  0.00  0.00    -0.096 C 
ATOM     28  H   UNL     1      -1.171  -2.490   0.825  0.00  0.00    -0.082 HD
ENDBRANCH  23  25
ENDBRANCH  17  23
ENDBRANCH   1  17
TORSDOF 4
