REMARK  Name = ZINC13500578
REMARK  15 active torsions:
REMARK  status: ('A' for Active; 'I' for Inactive)
REMARK    1  A    between atoms: C_1  and  C_2
REMARK    2  A    between atoms: C_2  and  O_3
REMARK    3  A    between atoms: O_3  and  C_4
REMARK    4  A    between atoms: C_11  and  C_16
REMARK    5  A    between atoms: C_16  and  N_70
REMARK    6  A    between atoms: C_17  and  C_18
REMARK    7  A    between atoms: C_17  and  N_70
REMARK    8  A    between atoms: C_18  and  C_19
REMARK    9  A    between atoms: C_19  and  O_20
REMARK   10  A    between atoms: C_21  and  C_23
REMARK   11  A    between atoms: C_21  and  C_33
REMARK   12  A    between atoms: C_21  and  N_70
REMARK   13  A    between atoms: N_27  and  C_28
REMARK   14  A    between atoms: C_33  and  C_34
REMARK   15  A    between atoms: C_33  and  C_35
REMARK                            x       y       z     vdW  Elec       q    Type
REMARK                         _______ _______ _______ _____ _____    ______ ____
ROOT
ATOM      1  N   UNL     1       3.936   1.800  -1.154  0.00  0.00    +0.389 N 
ATOM      2  H   UNL     1       3.663   2.741  -0.848  0.00  0.00    -0.080 HD
ENDROOT
BRANCH   1   3
ATOM      3  C   UNL     1       5.411   1.705  -1.154  0.00  0.00    -0.037 C 
BRANCH   3  11
ATOM      4  C   UNL     1       7.311  -2.499  -5.294  0.00  0.00    +0.121 A 
ATOM      5  C   UNL     1       7.389  -3.565  -4.400  0.00  0.00    +0.047 A 
ATOM      6  C   UNL     1       7.070  -3.392  -3.072  0.00  0.00    +0.030 A 
ATOM      7  C   UNL     1       6.666  -2.143  -2.612  0.00  0.00    +0.049 A 
ATOM      8  C   UNL     1       6.586  -1.063  -3.511  0.00  0.00    +0.002 A 
ATOM      9  C   UNL     1       6.912  -1.252  -4.858  0.00  0.00    +0.055 A 
ATOM     10  C   UNL     1       6.154   0.245  -3.014  0.00  0.00    +0.017 A 
ATOM     11  C   UNL     1       5.854   0.371  -1.698  0.00  0.00    +0.001 A 
ATOM     12  C   UNL     1       5.951  -0.742  -0.837  0.00  0.00    +0.251 A 
ATOM     13  O   UNL     1       5.673  -0.608   0.342  0.00  0.00    -0.268 OA
ATOM     14  N   UNL     1       6.342  -1.948  -1.284  0.00  0.00    -0.322 N 
ATOM     15  H   UNL     1       6.398  -2.693  -0.665  0.00  0.00    +0.169 HD
BRANCH   4  16
ATOM     16  O   UNL     1       7.629  -2.689  -6.602  0.00  0.00    -0.492 OA
BRANCH  16  18
ATOM     17  C   UNL     1       8.349  -4.023  -8.485  0.00  0.00    +0.048 C 
ATOM     18  C   UNL     1       8.034  -4.004  -6.987  0.00  0.00    +0.225 C 
ENDBRANCH  16  18
ENDBRANCH   4  16
ENDBRANCH   3  11
ENDBRANCH   1   3
BRANCH   1  19
ATOM     19  C   UNL     1       3.415   1.569  -2.517  0.00  0.00    -0.075 C 
BRANCH  19  20
ATOM     20  C   UNL     1       3.736   2.791  -3.381  0.00  0.00    +0.009 C 
BRANCH  20  21
ATOM     21  C   UNL     1       3.076   2.634  -4.752  0.00  0.00    +0.154 C 
BRANCH  21  22
ATOM     22  O   UNL     1       3.376   3.775  -5.558  0.00  0.00    -0.395 OA
ATOM     23  H   UNL     1       2.989   3.744  -6.444  0.00  0.00    +0.209 HD
ENDBRANCH  21  22
ENDBRANCH  20  21
ENDBRANCH  19  20
ENDBRANCH   1  19
BRANCH   1  24
ATOM     24  C   UNL     1       3.366   0.807  -0.220  0.00  0.00    +0.006 C 
BRANCH  24  25
ATOM     25  C   UNL     1       1.865   0.803  -0.361  0.00  0.00    +0.139 A 
ATOM     26  N   UNL     1       1.085   1.852  -0.449  0.00  0.00    -0.115 NA
ATOM     27  N   UNL     1      -0.130   1.436  -0.558  0.00  0.00    -0.023 NA
ATOM     28  N   UNL     1      -0.144   0.149  -0.541  0.00  0.00    -0.044 NA
ATOM     29  N   UNL     1       1.067  -0.279  -0.421  0.00  0.00    -0.228 N 
BRANCH  29  30
ATOM     30  C   UNL     1       1.493  -1.680  -0.362  0.00  0.00    +0.111 C 
ATOM     31  C   UNL     1       1.029  -2.428  -1.628  0.00  0.00    +0.027 C 
ATOM     32  C   UNL     1       0.641  -3.837  -1.115  0.00  0.00    +0.002 C 
ATOM     33  C   UNL     1      -0.019  -3.534   0.253  0.00  0.00    +0.002 C 
ATOM     34  C   UNL     1       0.827  -2.383   0.834  0.00  0.00    +0.027 C 
ENDBRANCH  29  30
ENDBRANCH  24  25
BRANCH  24  35
ATOM     35  C   UNL     1       3.742   1.201   1.210  0.00  0.00    -0.024 C 
ATOM     36  C   UNL     1       3.194   2.596   1.516  0.00  0.00    +0.006 C 
ATOM     37  C   UNL     1       3.143   0.192   2.192  0.00  0.00    +0.006 C 
ENDBRANCH  24  35
ENDBRANCH   1  24
TORSDOF 12
