REMARK  Name = ZINC63258835
REMARK  11 active torsions:
REMARK  status: ('A' for Active; 'I' for Inactive)
REMARK    1  A    between atoms: C_1  and  C_2
REMARK    2  A    between atoms: C_6  and  O_8
REMARK    3  A    between atoms: O_8  and  C_9
REMARK    4  A    between atoms: C_9  and  C_10
REMARK    5  A    between atoms: N_12  and  C_13
REMARK    6  A    between atoms: C_13  and  C_15
REMARK    7  A    between atoms: C_13  and  C_25
REMARK    8  A    between atoms: C_15  and  C_16
REMARK    9  A    between atoms: C_25  and  O_27
REMARK   10  A    between atoms: O_27  and  C_28
REMARK   11  A    between atoms: C_28  and  C_29
REMARK                            x       y       z     vdW  Elec       q    Type
REMARK                         _______ _______ _______ _____ _____    ______ ____
ROOT
ATOM      1  C   UNL     1       0.115  -6.694   5.179  0.00  0.00    +0.186 C 
ENDROOT
BRANCH   1   4
ATOM      2  C   UNL     1       0.083  -4.787   3.662  0.00  0.00    +0.251 C 
ATOM      3  O   UNL     1       0.077  -4.055   4.629  0.00  0.00    -0.272 OA
ATOM      4  N   UNL     1       0.101  -6.125   3.830  0.00  0.00    -0.299 N 
ATOM      5  H   UNL     1       0.105  -6.710   3.056  0.00  0.00    +0.150 HD
BRANCH   2   6
ATOM      6  C   UNL     1       0.069  -4.202   2.274  0.00  0.00    +0.324 C 
BRANCH   6   7
ATOM      7  O   UNL     1       0.050  -2.776   2.358  0.00  0.00    -0.483 OA
BRANCH   7  13
ATOM      8  C   UNL     1      -0.018   1.503   0.010  0.00  0.00    +0.044 C 
ATOM      9  C   UNL     1       0.002  -0.004   0.002  0.00  0.00    -0.047 A 
ATOM     10  C   UNL     1       0.006  -0.688  -1.200  0.00  0.00    +0.003 A 
ATOM     11  C   UNL     1       0.024  -2.071  -1.211  0.00  0.00    +0.004 A 
ATOM     12  C   UNL     1       0.039  -2.772  -0.020  0.00  0.00    +0.045 A 
ATOM     13  C   UNL     1       0.035  -2.088   1.186  0.00  0.00    +0.121 A 
ATOM     14  C   UNL     1       0.023  -0.700   1.195  0.00  0.00    +0.049 A 
ENDBRANCH   7  13
ENDBRANCH   6   7
ENDBRANCH   2   6
ENDBRANCH   1   4
BRANCH   1  15
ATOM     15  C   UNL     1       0.734  -8.067   5.139  0.00  0.00    +0.328 C 
ATOM     16  O   UNL     1       1.123  -8.524   4.090  0.00  0.00    -0.249 OA
BRANCH  15  17
ATOM     17  O   UNL     1       0.852  -8.784   6.268  0.00  0.00    -0.459 OA
BRANCH  17  18
ATOM     18  C   UNL     1       1.448 -10.078   6.156  0.00  0.00    +0.269 C 
BRANCH  18  19
ATOM     19  C   UNL     1       1.496 -10.728   7.515  0.00  0.00    +0.008 A 
ATOM     20  C   UNL     1       0.997 -10.061   8.618  0.00  0.00    +0.010 A 
ATOM     21  C   UNL     1       1.040 -10.656   9.864  0.00  0.00    +0.020 A 
ATOM     22  C   UNL     1       1.584 -11.921  10.009  0.00  0.00    +0.042 A 
ATOM     23  C   UNL     1       2.083 -12.589   8.905  0.00  0.00    +0.040 A 
ATOM     24  C   UNL     1       2.034 -11.994   7.657  0.00  0.00    +0.049 A 
ATOM     25 CL   UNL     1       2.655 -12.834   6.270  0.00  0.00    -0.083 Cl
ATOM     26 CL   UNL     1       1.639 -12.669  11.574  0.00  0.00    -0.083 Cl
ENDBRANCH  18  19
ENDBRANCH  17  18
ENDBRANCH  15  17
ENDBRANCH   1  15
BRANCH   1  27
ATOM     27  C   UNL     1      -1.319  -6.795   5.705  0.00  0.00    +0.067 C 
BRANCH  27  28
ATOM     28  C   UNL     1      -1.895  -5.412   5.861  0.00  0.00    -0.039 C 
ATOM     29  C   UNL     1      -2.660  -4.744   4.968  0.00  0.00    -0.001 A 
ATOM     30  C   UNL     1      -3.163  -5.091   3.633  0.00  0.00    +0.010 A 
ATOM     31  C   UNL     1      -3.922  -4.194   2.965  0.00  0.00    +0.001 A 
ATOM     32  C   UNL     1      -4.240  -2.943   3.512  0.00  0.00    +0.002 A 
ATOM     33  C   UNL     1      -3.814  -2.552   4.732  0.00  0.00    +0.026 A 
ATOM     34  C   UNL     1      -3.010  -3.417   5.524  0.00  0.00    +0.043 A 
ATOM     35  N   UNL     1      -2.482  -3.271   6.715  0.00  0.00    -0.380 N 
ATOM     36  C   UNL     1      -1.742  -4.492   7.052  0.00  0.00    +0.144 C 
ATOM     37  H   UNL     1      -2.570  -2.488   7.281  0.00  0.00    +0.160 HD
ENDBRANCH  27  28
ENDBRANCH   1  27
TORSDOF 10
