REMARK  Name = ZINC19897501
REMARK  6 active torsions:
REMARK  status: ('A' for Active; 'I' for Inactive)
REMARK    1  A    between atoms: C_2  and  C_3
REMARK    2  A    between atoms: C_3  and  S_4
REMARK    3  A    between atoms: S_4  and  C_5
REMARK    4  A    between atoms: C_8  and  C_11
REMARK    5  A    between atoms: N_9  and  N_10
REMARK    6  A    between atoms: C_11  and  N_12
REMARK                            x       y       z     vdW  Elec       q    Type
REMARK                         _______ _______ _______ _____ _____    ______ ____
ROOT
ATOM      1  N   UNL     1       4.013   0.934  -1.413  0.00  0.00    -0.291 N 
ATOM      2  C   UNL     1       4.332  -0.264  -2.061  0.00  0.00    +0.048 A 
ATOM      3  C   UNL     1       4.937  -1.298  -1.370  0.00  0.00    +0.024 A 
ATOM      4  C   UNL     1       5.246  -2.480  -2.020  0.00  0.00    +0.002 A 
ATOM      5  C   UNL     1       4.949  -2.640  -3.360  0.00  0.00    +0.001 A 
ATOM      6  C   UNL     1       4.337  -1.614  -4.062  0.00  0.00    +0.017 A 
ATOM      7  C   UNL     1       4.027  -0.432  -3.417  0.00  0.00    +0.034 A 
ATOM      8  S   UNL     1       3.247   0.893  -4.286  0.00  0.00    -0.086 S 
ATOM      9  C   UNL     1       3.816   2.310  -3.401  0.00  0.00    +0.034 A 
ATOM     10  C   UNL     1       4.140   2.174  -2.048  0.00  0.00    +0.048 A 
ATOM     11  C   UNL     1       4.588   3.279  -1.342  0.00  0.00    +0.024 A 
ATOM     12  C   UNL     1       4.712   4.502  -1.977  0.00  0.00    +0.002 A 
ATOM     13  C   UNL     1       4.391   4.632  -3.315  0.00  0.00    +0.001 A 
ATOM     14  C   UNL     1       3.941   3.534  -4.030  0.00  0.00    +0.017 A 
ENDROOT
BRANCH   1  15
ATOM     15  C   UNL     1       3.539   0.889  -0.027  0.00  0.00    +0.188 C 
BRANCH  15  19
ATOM     16  C   UNL     1       0.002  -0.004   0.002  0.00  0.00    +0.209 A 
ATOM     17  N   UNL     1      -0.016   1.309   0.009  0.00  0.00    -0.121 NA
ATOM     18  N   UNL     1       1.187   1.762   0.000  0.00  0.00    -0.130 NA
ATOM     19  C   UNL     1       2.037   0.774  -0.013  0.00  0.00    +0.169 A 
ATOM     20  N   UNL     1       1.313  -0.386  -0.013  0.00  0.00    -0.226 N 
BRANCH  20  21
ATOM     21  N   UNL     1       1.800  -1.662  -0.024  0.00  0.00    -0.295 N 
ATOM     22  H   UNL     1       2.886  -1.836  -0.036  0.00  0.00    +0.163 HD
ATOM     23  H   UNL     1       1.106  -2.516  -0.023  0.00  0.00    +0.163 HD
ENDBRANCH  20  21
BRANCH  16  24
ATOM     24  S   UNL     1      -1.400  -1.071   0.009  0.00  0.00    -0.080 S 
BRANCH  24  25
ATOM     25  C   UNL     1      -2.729   0.157   0.029  0.00  0.00    +0.104 C 
BRANCH  25  27
ATOM     26  C   UNL     1      -4.856  -0.432   1.074  0.00  0.00    +0.005 C 
ATOM     27  C   UNL     1      -4.063  -0.545   0.037  0.00  0.00    -0.023 C 
ENDBRANCH  25  27
ENDBRANCH  24  25
ENDBRANCH  16  24
ENDBRANCH  15  19
ENDBRANCH   1  15
TORSDOF 6
