REMARK  Name = ZINC07000699
REMARK  6 active torsions:
REMARK  status: ('A' for Active; 'I' for Inactive)
REMARK    1  A    between atoms: C_1  and  C_2
REMARK    2  A    between atoms: N_11  and  C_12
REMARK    3  A    between atoms: N_14  and  C_23
REMARK    4  A    between atoms: C_23  and  C_24
REMARK    5  A    between atoms: C_24  and  C_25
REMARK    6  A    between atoms: C_24  and  C_26
REMARK                            x       y       z     vdW  Elec       q    Type
REMARK                         _______ _______ _______ _____ _____    ______ ____
ROOT
ATOM      1  C   UNL     1      -0.084   5.312   0.023  0.00  0.00    +0.059 A 
ATOM      2  C   UNL     1       1.093   5.965  -0.042  0.00  0.00    +0.113 A 
ATOM      3  N   UNL     1       2.294   5.309  -0.057  0.00  0.00    -0.313 N 
ATOM      4  C   UNL     1       2.379   3.965  -0.009  0.00  0.00    +0.259 A 
ATOM      5  O   UNL     1       3.467   3.417  -0.026  0.00  0.00    -0.267 OA
ATOM      6  C   UNL     1       1.150   3.168   0.062  0.00  0.00    +0.048 A 
ATOM      7  C   UNL     1      -0.091   3.846   0.079  0.00  0.00    +0.010 A 
ATOM      8  C   UNL     1      -1.277   3.115   0.145  0.00  0.00    +0.010 A 
ATOM      9  C   UNL     1      -1.228   1.749   0.190  0.00  0.00    +0.001 A 
ATOM     10  C   UNL     1      -0.012   1.079   0.180  0.00  0.00    +0.001 A 
ATOM     11  C   UNL     1       1.175   1.774   0.114  0.00  0.00    +0.014 A 
ENDROOT
BRANCH   1  21
ATOM     12  C   UNL     1      -5.839   7.199   1.703  0.00  0.00    +0.009 C 
ATOM     13  C   UNL     1      -4.449   7.835   1.635  0.00  0.00    +0.003 C 
ATOM     14  C   UNL     1      -4.587   9.358   1.560  0.00  0.00    +0.006 C 
ATOM     15  C   UNL     1      -3.197   9.997   1.525  0.00  0.00    +0.019 C 
ATOM     16  C   UNL     1      -2.449   9.516   0.278  0.00  0.00    +0.109 C 
ATOM     17  N   UNL     1      -2.438   8.047   0.269  0.00  0.00    -0.285 N 
ATOM     18  C   UNL     1      -3.716   7.331   0.383  0.00  0.00    +0.112 C 
ATOM     19  C   UNL     1      -1.279   7.369   0.153  0.00  0.00    +0.307 C 
ATOM     20  O   UNL     1      -0.222   7.970   0.152  0.00  0.00    -0.252 OA
ATOM     21  N   UNL     1      -1.292   6.027   0.037  0.00  0.00    -0.267 N 
ATOM     22  H   UNL     1      -2.136   5.554  -0.036  0.00  0.00    +0.156 HD
ENDBRANCH   1  21
BRANCH   3  23
ATOM     23  C   UNL     1       3.528   6.094  -0.128  0.00  0.00    +0.128 C 
BRANCH  23  24
ATOM     24  C   UNL     1       4.006   6.422   1.288  0.00  0.00    +0.003 C 
ATOM     25  C   UNL     1       5.359   7.133   1.217  0.00  0.00    +0.009 C 
ATOM     26  C   UNL     1       2.986   7.333   1.972  0.00  0.00    +0.009 C 
ENDBRANCH  23  24
ENDBRANCH   3  23
TORSDOF 3
