REMARK  Name = ZINC44854889
REMARK  7 active torsions:
REMARK  status: ('A' for Active; 'I' for Inactive)
REMARK    1  A    between atoms: C_1  and  C_2
REMARK    2  A    between atoms: C_2  and  C_4
REMARK    3  A    between atoms: C_2  and  N_16
REMARK    4  A    between atoms: C_7  and  N_10
REMARK    5  A    between atoms: C_17  and  C_19
REMARK    6  A    between atoms: N_24  and  C_26
REMARK    7  A    between atoms: C_26  and  C_27
REMARK                            x       y       z     vdW  Elec       q    Type
REMARK                         _______ _______ _______ _____ _____    ______ ____
ROOT
ATOM      1  N   UNL     1       0.700  -0.505   1.189  0.00  0.00    -0.309 N 
ATOM      2  C   UNL     1       0.034  -0.649   2.352  0.00  0.00    +0.215 C 
ATOM      3  O   UNL     1      -1.143  -0.364   2.415  0.00  0.00    -0.276 OA
ATOM      4  H   UNL     1       1.641  -0.733   1.138  0.00  0.00    +0.149 HD
ENDROOT
BRANCH   2   5
ATOM      5  C   UNL     1       0.751  -1.164   3.572  0.00  0.00    +0.058 C 
ATOM      6  C   UNL     1       1.303  -2.564   3.289  0.00  0.00    +0.009 C 
ATOM      7  C   UNL     1       1.962  -3.110   4.559  0.00  0.00    -0.018 C 
ATOM      8  C   UNL     1       0.940  -3.109   5.698  0.00  0.00    -0.078 C 
ATOM      9  N   UNL     1       0.470  -1.739   5.938  0.00  0.00    +0.383 N 
ATOM     10  C   UNL     1      -0.226  -1.234   4.748  0.00  0.00    -0.066 C 
ATOM     11  H   UNL     1       1.260  -1.145   6.141  0.00  0.00    -0.081 HD
BRANCH   9  12
ATOM     12  C   UNL     1      -0.451  -1.732   7.082  0.00  0.00    -0.042 C 
BRANCH  12  13
ATOM     13  C   UNL     1       0.296  -2.123   8.331  0.00  0.00    -0.056 A 
ATOM     14  C   UNL     1       0.215  -3.396   8.807  0.00  0.00    +0.002 A 
ATOM     15  C   UNL     1       0.898  -3.776   9.960  0.00  0.00    +0.001 A 
ATOM     16  C   UNL     1       1.667  -2.885  10.644  0.00  0.00    +0.008 A 
ATOM     17  C   UNL     1       1.775  -1.562  10.184  0.00  0.00    -0.018 A 
ATOM     18  C   UNL     1       1.085  -1.177   9.007  0.00  0.00    -0.017 A 
ATOM     19  C   UNL     1       1.198   0.145   8.543  0.00  0.00    +0.009 A 
ATOM     20  C   UNL     1       1.971   1.034   9.225  0.00  0.00    +0.001 A 
ATOM     21  C   UNL     1       2.655   0.653  10.378  0.00  0.00    +0.001 A 
ATOM     22  C   UNL     1       2.559  -0.614  10.864  0.00  0.00    +0.008 A 
ENDBRANCH  12  13
ENDBRANCH   9  12
ENDBRANCH   2   5
BRANCH   1  24
ATOM     23  C   UNL     1      -0.002   1.526   0.020  0.00  0.00    +0.033 C 
ATOM     24  C   UNL     1       0.002  -0.004   0.002  0.00  0.00    +0.100 C 
BRANCH  24  25
ATOM     25  C   UNL     1       0.708  -0.490  -1.238  0.00  0.00    -0.027 A 
ATOM     26  C   UNL     1       2.089  -0.525  -1.276  0.00  0.00    +0.007 A 
ATOM     27  C   UNL     1       2.739  -0.970  -2.411  0.00  0.00    +0.023 A 
ATOM     28  C   UNL     1       2.003  -1.382  -3.514  0.00  0.00    +0.030 A 
ATOM     29  C   UNL     1       0.615  -1.346  -3.472  0.00  0.00    +0.023 A 
ATOM     30  C   UNL     1      -0.029  -0.905  -2.333  0.00  0.00    +0.007 A 
BRANCH  28  31
ATOM     31  N   UNL     1       2.656  -1.832  -4.664  0.00  0.00    -0.330 N 
ATOM     32  C   UNL     1       1.893  -2.384  -5.792  0.00  0.00    +0.105 C 
ATOM     33  C   UNL     1       2.287  -1.632  -7.067  0.00  0.00    +0.019 C 
ATOM     34  C   UNL     1       3.805  -1.697  -7.245  0.00  0.00    +0.003 C 
ATOM     35  C   UNL     1       4.489  -1.019  -6.055  0.00  0.00    +0.019 C 
ATOM     36  C   UNL     1       4.120  -1.758  -4.770  0.00  0.00    +0.105 C 
ENDBRANCH  28  31
ENDBRANCH  24  25
ENDBRANCH   1  24
TORSDOF 6
