REMARK  Name = ZINC08419427
REMARK  7 active torsions:
REMARK  status: ('A' for Active; 'I' for Inactive)
REMARK    1  A    between atoms: C_1  and  C_2
REMARK    2  A    between atoms: C_7  and  N_12
REMARK    3  A    between atoms: C_9  and  C_11
REMARK    4  A    between atoms: N_12  and  C_13
REMARK    5  A    between atoms: C_13  and  N_15
REMARK    6  A    between atoms: N_15  and  N_16
REMARK    7  A    between atoms: C_17  and  C_19
REMARK                            x       y       z     vdW  Elec       q    Type
REMARK                         _______ _______ _______ _____ _____    ______ ____
ROOT
ATOM      1  N   UNL     1       1.137   2.397   0.004  0.00  0.00    -0.246 N 
ATOM      2  H   UNL     1       1.983   1.924  -0.006  0.00  0.00    +0.172 HD
ENDROOT
BRANCH   1   3
ATOM      3  N   UNL     1       1.118   3.798   0.012  0.00  0.00    -0.231 N 
ATOM      4  C   UNL     1       2.276   4.488   0.004  0.00  0.00    +0.262 C 
ATOM      5  O   UNL     1       3.337   3.895  -0.009  0.00  0.00    -0.269 OA
ATOM      6  H   UNL     1       0.271   4.272   0.022  0.00  0.00    +0.173 HD
BRANCH   4   7
ATOM      7  C   UNL     1       2.256   5.966   0.013  0.00  0.00    +0.056 A 
ATOM      8  C   UNL     1       3.452   6.694   0.005  0.00  0.00    +0.017 A 
ATOM      9  C   UNL     1       3.380   8.075   0.013  0.00  0.00    +0.041 A 
ATOM     10  C   UNL     1       2.137   8.688   0.028  0.00  0.00    +0.129 A 
ATOM     11  N   UNL     1       1.026   7.975   0.035  0.00  0.00    -0.243 NA
ATOM     12  C   UNL     1       1.044   6.658   0.022  0.00  0.00    +0.125 A 
ATOM     13 CL   UNL     1       2.040  10.421   0.038  0.00  0.00    -0.062 Cl
ENDBRANCH   4   7
ENDBRANCH   1   3
BRANCH   1  14
ATOM     14  C   UNL     1      -0.021   1.708   0.011  0.00  0.00    +0.147 C 
ATOM     15  S   UNL     1       0.002  -0.004   0.002  0.00  0.00    -0.017 S 
BRANCH  14  16
ATOM     16  N   UNL     1      -1.197   2.366   0.021  0.00  0.00    -0.322 N 
ATOM     17  H   UNL     1      -1.210   3.336   0.026  0.00  0.00    +0.148 HD
BRANCH  16  23
ATOM     18  C   UNL     1      -4.704   0.411   1.464  0.00  0.00    +0.008 C 
ATOM     19  C   UNL     1      -4.875   1.692   0.644  0.00  0.00    -0.009 C 
ATOM     20  C   UNL     1      -5.255   1.331  -0.793  0.00  0.00    +0.003 C 
ATOM     21  C   UNL     1      -4.151   0.472  -1.413  0.00  0.00    +0.002 C 
ATOM     22  C   UNL     1      -2.837   1.255  -1.415  0.00  0.00    +0.022 C 
ATOM     23  C   UNL     1      -2.456   1.616   0.022  0.00  0.00    +0.075 C 
ATOM     24  C   UNL     1      -3.560   2.475   0.642  0.00  0.00    +0.009 C 
ATOM     25  C   UNL     1      -3.180   2.836   2.079  0.00  0.00    +0.009 C 
ENDBRANCH  16  23
ENDBRANCH  14  16
ENDBRANCH   1  14
TORSDOF 5
