REMARK  Name = ZINC13765981
REMARK  2 active torsions:
REMARK  status: ('A' for Active; 'I' for Inactive)
REMARK    1  A    between atoms: C_10  and  N_14
REMARK    2  A    between atoms: N_14  and  N_15
REMARK                            x       y       z     vdW  Elec       q    Type
REMARK                         _______ _______ _______ _____ _____    ______ ____
ROOT
ATOM      1  N   UNL     1       2.955  -6.845  -0.067  0.00  0.00    -0.177 NA
ATOM      2  C   UNL     1       3.590  -7.996  -0.081  0.00  0.00    +0.156 C 
ATOM      3  C   UNL     1       2.997  -9.353  -0.089  0.00  0.00    +0.071 A 
ATOM      4  C   UNL     1       4.066 -10.254  -0.103  0.00  0.00    +0.047 A 
ATOM      5  C   UNL     1       3.811 -11.625  -0.113  0.00  0.00    +0.025 A 
ATOM      6  C   UNL     1       2.515 -12.090  -0.108  0.00  0.00    +0.014 A 
ATOM      7  C   UNL     1       1.446 -11.198  -0.094  0.00  0.00    +0.029 A 
ATOM      8  C   UNL     1       1.678  -9.817  -0.085  0.00  0.00    +0.147 A 
ATOM      9  O   UNL     1       0.487  -9.180  -0.073  0.00  0.00    -0.454 OA
ATOM     10  C   UNL     1      -0.543 -10.055  -0.075  0.00  0.00    +0.136 A 
ATOM     11  C   UNL     1      -0.021 -11.356  -0.086  0.00  0.00    +0.028 A 
ATOM     12  C   UNL     1      -0.875 -12.454  -0.090  0.00  0.00    +0.012 A 
ATOM     13  C   UNL     1      -2.240 -12.258  -0.079  0.00  0.00    +0.001 A 
ATOM     14  C   UNL     1      -2.759 -10.973  -0.065  0.00  0.00    +0.004 A 
ATOM     15  C   UNL     1      -1.921  -9.878  -0.065  0.00  0.00    +0.047 A 
ATOM     16  N   UNL     1       5.262  -9.544  -0.104  0.00  0.00    -0.279 N 
ATOM     17  C   UNL     1       5.046  -8.217  -0.097  0.00  0.00    +0.269 C 
ATOM     18  O   UNL     1       5.902  -7.352  -0.101  0.00  0.00    -0.268 OA
ATOM     19  H   UNL     1       6.141  -9.954  -0.113  0.00  0.00    +0.155 HD
ENDROOT
BRANCH   1  20
ATOM     20  N   UNL     1       3.622  -5.741  -0.067  0.00  0.00    -0.237 N 
ATOM     21  H   UNL     1       4.592  -5.760  -0.077  0.00  0.00    +0.174 HD
BRANCH  20  31
ATOM     22  C   UNL     1      -0.017   1.375   0.010  0.00  0.00    +0.001 A 
ATOM     23  C   UNL     1       1.172   2.087   0.002  0.00  0.00    +0.004 A 
ATOM     24  C   UNL     1       2.384   1.429  -0.013  0.00  0.00    +0.047 A 
ATOM     25  C   UNL     1       2.424   0.040  -0.021  0.00  0.00    +0.136 A 
ATOM     26  C   UNL     1       1.219  -0.677  -0.013  0.00  0.00    +0.028 A 
ATOM     27  C   UNL     1       0.002  -0.004   0.002  0.00  0.00    +0.012 A 
ATOM     28  C   UNL     1       1.603  -2.102  -0.025  0.00  0.00    +0.028 A 
ATOM     29  C   UNL     1       0.885  -3.295  -0.025  0.00  0.00    +0.014 A 
ATOM     30  C   UNL     1       1.556  -4.498  -0.039  0.00  0.00    +0.025 A 
ATOM     31  C   UNL     1       2.949  -4.520  -0.053  0.00  0.00    +0.052 A 
ATOM     32  C   UNL     1       3.670  -3.336  -0.053  0.00  0.00    +0.071 A 
ATOM     33  C   UNL     1       3.005  -2.117  -0.039  0.00  0.00    +0.138 A 
ATOM     34  O   UNL     1       3.448  -0.841  -0.036  0.00  0.00    -0.455 OA
ENDBRANCH  20  31
ENDBRANCH   1  20
TORSDOF 2
