REMARK  Name = ZINC08847670
REMARK  5 active torsions:
REMARK  status: ('A' for Active; 'I' for Inactive)
REMARK    1  A    between atoms: C_1  and  O_2
REMARK    2  A    between atoms: O_2  and  C_3
REMARK    3  A    between atoms: C_5  and  C_10
REMARK    4  A    between atoms: C_8  and  O_9
REMARK    5  A    between atoms: N_13  and  N_14
REMARK                            x       y       z     vdW  Elec       q    Type
REMARK                         _______ _______ _______ _____ _____    ______ ____
ROOT
ATOM      1  C   UNL     1      -2.498   5.106   0.344  0.00  0.00    +0.138 A 
ATOM      2  C   UNL     1      -1.413   5.914   0.363  0.00  0.00    +0.077 A 
ATOM      3  C   UNL     1      -0.097   5.322   0.050  0.00  0.00    +0.096 A 
ATOM      4  N   UNL     1       0.959   6.063  -0.192  0.00  0.00    -0.179 NA
ATOM      5  C   UNL     1      -0.039   3.838   0.027  0.00  0.00    +0.047 A 
ATOM      6  C   UNL     1       1.173   3.161   0.010  0.00  0.00    +0.033 A 
ATOM      7  C   UNL     1       1.181   1.778   0.000  0.00  0.00    +0.043 A 
ATOM      8  C   UNL     1      -0.013   1.076   0.008  0.00  0.00    +0.043 A 
ATOM      9  C   UNL     1      -1.223   1.744   0.017  0.00  0.00    +0.085 A 
ATOM     10  C   UNL     1      -1.250   3.132   0.031  0.00  0.00    +0.156 A 
ATOM     11  O   UNL     1      -2.426   3.797   0.039  0.00  0.00    -0.453 OA
ATOM     12 CL   UNL     1      -2.709   0.847   0.019  0.00  0.00    -0.080 Cl
ATOM     13 CL   UNL     1       2.691   0.921  -0.022  0.00  0.00    -0.083 Cl
ENDROOT
BRANCH   4  14
ATOM     14  N   UNL     1       0.857   7.460  -0.160  0.00  0.00    -0.206 N 
ATOM     15  C   UNL     1       1.964   8.236  -0.414  0.00  0.00    +0.214 A 
ATOM     16  N   UNL     1       1.983   9.604  -0.410  0.00  0.00    -0.325 N 
ATOM     17  H   UNL     1       1.208  10.207  -0.225  0.00  0.00    +0.169 HD
ATOM     18  C   UNL     1       3.277   9.997  -0.710  0.00  0.00    +0.067 A 
ATOM     19  C   UNL     1       3.899  11.228  -0.849  0.00  0.00    +0.028 A 
ATOM     20  C   UNL     1       5.241  11.288  -1.163  0.00  0.00    +0.002 A 
ATOM     21  C   UNL     1       5.974  10.123  -1.342  0.00  0.00    +0.002 A 
ATOM     22  C   UNL     1       5.372   8.892  -1.208  0.00  0.00    +0.030 A 
ATOM     23  C   UNL     1       4.013   8.814  -0.890  0.00  0.00    +0.091 A 
ATOM     24  N   UNL     1       3.160   7.776  -0.691  0.00  0.00    -0.213 NA
ATOM     25  H   UNL     1       0.006   7.879   0.042  0.00  0.00    +0.177 HD
ENDBRANCH   4  14
BRANCH   1  28
ATOM     26  C   UNL     1      -6.188   5.424   0.972  0.00  0.00    +0.162 A 
ATOM     27  C   UNL     1      -4.957   4.879   0.658  0.00  0.00    +0.061 A 
ATOM     28  C   UNL     1      -3.815   5.684   0.673  0.00  0.00    +0.021 A 
ATOM     29  C   UNL     1      -3.925   7.039   0.995  0.00  0.00    +0.015 A 
ATOM     30  C   UNL     1      -5.156   7.578   1.302  0.00  0.00    +0.050 A 
ATOM     31  C   UNL     1      -6.289   6.777   1.292  0.00  0.00    +0.158 A 
BRANCH  26  33
ATOM     32  C   UNL     1      -7.122   3.265   0.625  0.00  0.00    +0.277 C 
ATOM     33  O   UNL     1      -7.300   4.642   0.962  0.00  0.00    -0.491 OA
ENDBRANCH  26  33
BRANCH  31  34
ATOM     34  O   UNL     1      -7.501   7.312   1.595  0.00  0.00    -0.503 OA
ATOM     35  H   UNL     1      -7.980   7.659   0.830  0.00  0.00    +0.292 HD
ENDBRANCH  31  34
ENDBRANCH   1  28
TORSDOF 4
