REMARK  Name = ZINC41003084
REMARK  12 active torsions:
REMARK  status: ('A' for Active; 'I' for Inactive)
REMARK    1  A    between atoms: C_1  and  C_2
REMARK    2  A    between atoms: C_2  and  S_3
REMARK    3  A    between atoms: S_3  and  C_4
REMARK    4  A    between atoms: C_9  and  C_21
REMARK    5  A    between atoms: C_11  and  C_15
REMARK    6  A    between atoms: C_12  and  C_14
REMARK    7  A    between atoms: C_15  and  O_17
REMARK    8  A    between atoms: O_17  and  C_18
REMARK    9  A    between atoms: C_18  and  C_19
REMARK   10  A    between atoms: C_18  and  C_20
REMARK   11  A    between atoms: C_26  and  O_27
REMARK   12  A    between atoms: O_27  and  C_28
REMARK                            x       y       z     vdW  Elec       q    Type
REMARK                         _______ _______ _______ _____ _____    ______ ____
ROOT
ATOM      1  C   UNL     1       1.226  -2.389   1.113  0.00  0.00    +0.210 A 
ATOM      2  N   UNL     1       0.602  -3.052   0.128  0.00  0.00    -0.187 NA
ATOM      3  C   UNL     1       0.564  -4.324   0.415  0.00  0.00    +0.219 A 
ATOM      4  N   UNL     1       1.170  -4.505   1.614  0.00  0.00    -0.220 N 
ATOM      5  N   UNL     1       1.595  -3.247   2.040  0.00  0.00    -0.141 NA
ATOM      6  C   UNL     1       1.308  -5.806   2.263  0.00  0.00    +0.183 C 
ATOM      7  C   UNL     1       0.958  -6.894   1.282  0.00  0.00    +0.082 C 
ATOM      8  C   UNL     1       0.360  -6.654   0.105  0.00  0.00    +0.020 C 
ATOM      9  N   UNL     1       0.029  -5.386  -0.303  0.00  0.00    -0.287 N 
ATOM     10  C   UNL     1       0.042  -7.816  -0.800  0.00  0.00    +0.061 C 
ATOM     11  H   UNL     1      -0.555  -5.237  -1.062  0.00  0.00    +0.155 HD
ENDROOT
BRANCH   6  12
ATOM     12  C   UNL     1       0.378  -5.878   3.446  0.00  0.00    +0.024 A 
ATOM     13  C   UNL     1      -0.985  -5.744   3.264  0.00  0.00    +0.025 A 
ATOM     14  C   UNL     1      -1.839  -5.810   4.350  0.00  0.00    +0.018 A 
ATOM     15  C   UNL     1      -1.331  -6.011   5.621  0.00  0.00    +0.019 A 
ATOM     16  C   UNL     1       0.031  -6.146   5.808  0.00  0.00    +0.047 A 
ATOM     17  C   UNL     1       0.889  -6.085   4.719  0.00  0.00    +0.126 A 
ATOM     18 BR   UNL     1      -3.704  -5.626   4.097  0.00  0.00    -0.050 Br
BRANCH  17  19
ATOM     19  O   UNL     1       2.229  -6.222   4.900  0.00  0.00    -0.495 OA
ATOM     20  C   UNL     1       2.684  -6.432   6.238  0.00  0.00    +0.277 C 
ENDBRANCH  17  19
ENDBRANCH   6  12
BRANCH   7  21
ATOM     21  C   UNL     1       1.274  -8.229   1.617  0.00  0.00    +0.339 C 
ATOM     22  O   UNL     1       2.429  -8.611   1.570  0.00  0.00    -0.245 OA
BRANCH  21  23
ATOM     23  O   UNL     1       0.296  -9.081   1.990  0.00  0.00    -0.459 OA
BRANCH  23  24
ATOM     24  C   UNL     1       0.688 -10.417   2.315  0.00  0.00    +0.171 C 
ATOM     25  C   UNL     1       1.013 -10.504   3.808  0.00  0.00    +0.052 C 
ATOM     26  C   UNL     1      -0.455 -11.378   1.985  0.00  0.00    +0.052 C 
ENDBRANCH  23  24
ENDBRANCH  21  23
ENDBRANCH   7  21
BRANCH   1  27
ATOM     27  S   UNL     1       1.513  -0.651   1.155  0.00  0.00    -0.085 S 
BRANCH  27  29
ATOM     28  C   UNL     1       0.955   1.470  -0.480  0.00  0.00    +0.016 C 
ATOM     29  C   UNL     1       0.775  -0.047  -0.388  0.00  0.00    +0.074 C 
ENDBRANCH  27  29
ENDBRANCH   1  27
TORSDOF 7
