REMARK  Name = ZINC66603055
REMARK  11 active torsions:
REMARK  status: ('A' for Active; 'I' for Inactive)
REMARK    1  A    between atoms: C_1  and  C_2
REMARK    2  A    between atoms: C_5  and  C_12
REMARK    3  A    between atoms: C_8  and  C_10
REMARK    4  A    between atoms: C_8  and  C_11
REMARK    5  A    between atoms: C_12  and  C_13
REMARK    6  A    between atoms: N_15  and  C_16
REMARK    7  A    between atoms: N_15  and  C_17
REMARK    8  A    between atoms: C_17  and  C_19
REMARK    9  A    between atoms: C_17  and  C_20
REMARK   10  A    between atoms: C_23  and  S_26
REMARK   11  A    between atoms: S_26  and  N_29
REMARK                            x       y       z     vdW  Elec       q    Type
REMARK                         _______ _______ _______ _____ _____    ______ ____
ROOT
ATOM      1  C   UNL     1       0.678  -2.157  -3.737  0.00  0.00    +0.216 C 
ATOM      2  O   UNL     1      -0.364  -1.557  -3.583  0.00  0.00    -0.276 OA
ATOM      3  N   UNL     1       1.105  -2.460  -4.979  0.00  0.00    -0.298 N 
ATOM      4  C   UNL     1       2.365  -3.185  -5.164  0.00  0.00    +0.132 C 
ENDROOT
BRANCH   3   5
ATOM      5  C   UNL     1       0.310  -2.064  -6.144  0.00  0.00    +0.103 C 
ATOM      6  C   UNL     1       1.186  -1.265  -7.111  0.00  0.00    +0.033 C 
BRANCH   5   7
ATOM      7  C   UNL     1      -0.211  -3.295  -6.838  0.00  0.00    -0.027 A 
ATOM      8  C   UNL     1      -1.566  -3.433  -7.075  0.00  0.00    +0.007 A 
ATOM      9  C   UNL     1      -2.045  -4.563  -7.712  0.00  0.00    +0.029 A 
ATOM     10  C   UNL     1      -1.169  -5.555  -8.112  0.00  0.00    +0.105 A 
ATOM     11  C   UNL     1       0.186  -5.416  -7.875  0.00  0.00    +0.029 A 
ATOM     12  C   UNL     1       0.665  -4.285  -7.242  0.00  0.00    +0.007 A 
BRANCH  10  13
ATOM     13  S   UNL     1      -1.779  -6.995  -8.922  0.00  0.00    +0.056 S 
ATOM     14  O   UNL     1      -0.818  -8.020  -8.707  0.00  0.00    -0.153 OA
ATOM     15  O   UNL     1      -3.139  -7.133  -8.537  0.00  0.00    -0.153 OA
BRANCH  13  16
ATOM     16  N   UNL     1      -1.777  -6.680 -10.548  0.00  0.00    -0.204 NA
ATOM     17  H   UNL     1      -1.472  -5.819 -10.875  0.00  0.00    +0.144 HD
ATOM     18  H   UNL     1      -2.081  -7.356 -11.174  0.00  0.00    +0.144 HD
ENDBRANCH  13  16
ENDBRANCH  10  13
ENDBRANCH   5   7
ENDBRANCH   3   5
BRANCH   1  19
ATOM     19  C   UNL     1       1.496  -2.565  -2.538  0.00  0.00    +0.099 C 
BRANCH  19  23
ATOM     20  C   UNL     1       0.012   1.416   0.093  0.00  0.00    +0.007 C 
ATOM     21  C   UNL     1       0.051  -0.113   0.056  0.00  0.00    -0.013 C 
ATOM     22  C   UNL     1       0.754  -0.575  -1.223  0.00  0.00    +0.007 C 
ATOM     23  C   UNL     1       0.793  -2.103  -1.260  0.00  0.00    -0.002 C 
ATOM     24  C   UNL     1       1.557  -2.624  -0.041  0.00  0.00    +0.010 C 
ATOM     25  C   UNL     1       0.854  -2.163   1.237  0.00  0.00    -0.034 C 
ATOM     26  C   UNL     1       0.815  -0.634   1.274  0.00  0.00    +0.009 C 
ATOM     27  C   UNL     1      -0.574  -2.710   1.259  0.00  0.00    +0.011 C 
ATOM     28  C   UNL     1       1.619  -2.684   2.456  0.00  0.00    +0.011 C 
ENDBRANCH  19  23
ENDBRANCH   1  19
TORSDOF 6
