REMARK  Name = ZINC11913816
REMARK  5 active torsions:
REMARK  status: ('A' for Active; 'I' for Inactive)
REMARK    1  A    between atoms: C_5  and  C_7
REMARK    2  A    between atoms: C_9  and  C_23
REMARK    3  A    between atoms: C_10  and  O_22
REMARK    4  A    between atoms: N_13  and  C_14
REMARK    5  A    between atoms: C_23  and  C_25
REMARK                            x       y       z     vdW  Elec       q    Type
REMARK                         _______ _______ _______ _____ _____    ______ ____
ROOT
ATOM      1  C   UNL     1      -2.738   5.905   0.016  0.00  0.00    +0.148 C 
ATOM      2  C   UNL     1      -1.383   6.575   0.020  0.00  0.00    +0.071 C 
ATOM      3  C   UNL     1      -1.607   7.908  -0.059  0.00  0.00    +0.188 C 
ATOM      4  C   UNL     1      -3.064   8.154  -0.110  0.00  0.00    +0.283 C 
ATOM      5  O   UNL     1      -3.584   9.249  -0.183  0.00  0.00    -0.267 OA
ATOM      6  N   UNL     1      -3.728   6.985  -0.063  0.00  0.00    -0.279 N 
ENDROOT
BRANCH   1  11
ATOM      7  C   UNL     1      -3.488   4.648  -3.464  0.00  0.00    +0.001 A 
ATOM      8  C   UNL     1      -3.091   3.326  -3.373  0.00  0.00    +0.003 A 
ATOM      9  C   UNL     1      -2.580   2.838  -2.186  0.00  0.00    +0.039 A 
ATOM     10  C   UNL     1      -2.465   3.673  -1.087  0.00  0.00    +0.129 A 
ATOM     11  C   UNL     1      -2.862   4.996  -1.179  0.00  0.00    +0.013 A 
ATOM     12  C   UNL     1      -3.379   5.480  -2.366  0.00  0.00    +0.008 A 
ATOM     13  F   UNL     1      -1.964   3.197   0.074  0.00  0.00    -0.205 F 
ENDBRANCH   1  11
BRANCH   6  14
ATOM     14  C   UNL     1      -5.184   6.819  -0.091  0.00  0.00    +0.100 C 
ATOM     15  C   UNL     1      -5.752   7.440  -1.378  0.00  0.00    +0.047 C 
ATOM     16  C   UNL     1      -7.292   7.558  -1.272  0.00  0.00    +0.168 C 
ATOM     17  S   UNL     1      -7.560   7.725   0.540  0.00  0.00    -0.029 S 
ATOM     18  O   UNL     1      -8.312   6.611   1.001  0.00  0.00    -0.174 OA
ATOM     19  O   UNL     1      -8.015   9.041   0.822  0.00  0.00    -0.174 OA
ATOM     20  C   UNL     1      -5.820   7.555   1.123  0.00  0.00    +0.188 C 
ENDBRANCH   6  14
BRANCH   3  21
ATOM     21  O   UNL     1      -0.649   8.863  -0.086  0.00  0.00    -0.502 OA
ATOM     22  H   UNL     1      -1.079   9.764  -0.147  0.00  0.00    +0.292 HD
ENDBRANCH   3  21
BRANCH   2  23
ATOM     23  C   UNL     1      -0.079   5.910   0.089  0.00  0.00    +0.195 C 
ATOM     24  O   UNL     1       0.685   5.969  -0.857  0.00  0.00    -0.287 OA
BRANCH  23  25
ATOM     25  C   UNL     1       0.308   5.168   1.306  0.00  0.00    +0.022 A 
ATOM     26  C   UNL     1       1.510   4.457   1.342  0.00  0.00    +0.013 A 
ATOM     27  C   UNL     1       1.866   3.766   2.481  0.00  0.00    +0.021 A 
ATOM     28  C   UNL     1       1.035   3.778   3.589  0.00  0.00    +0.041 A 
ATOM     29  C   UNL     1      -0.161   4.477   3.559  0.00  0.00    +0.021 A 
ATOM     30  C   UNL     1      -0.525   5.175   2.427  0.00  0.00    +0.013 A 
ATOM     31 CL   UNL     1       1.490   2.906   5.020  0.00  0.00    -0.084 Cl
ENDBRANCH  23  25
ENDBRANCH   2  23
TORSDOF 5
