REMARK  Name = ZINC19234258
REMARK  12 active torsions:
REMARK  status: ('A' for Active; 'I' for Inactive)
REMARK    1  A    between atoms: C_1  and  C_2
REMARK    2  A    between atoms: C_7  and  C_14
REMARK    3  A    between atoms: C_8  and  O_12
REMARK    4  A    between atoms: O_12  and  C_13
REMARK    5  A    between atoms: C_14  and  N_15
REMARK    6  A    between atoms: N_15  and  C_16
REMARK    7  A    between atoms: N_15  and  C_21
REMARK    8  A    between atoms: C_16  and  C_17
REMARK    9  A    between atoms: C_17  and  N_18
REMARK   10  A    between atoms: N_18  and  C_19
REMARK   11  A    between atoms: N_18  and  C_20
REMARK   12  A    between atoms: C_21  and  C_22
REMARK                            x       y       z     vdW  Elec       q    Type
REMARK                         _______ _______ _______ _____ _____    ______ ____
ROOT
ATOM      1  C   UNL     1      -2.566   3.612   7.011  0.00  0.00    +0.125 C 
ENDROOT
BRANCH   1   8
ATOM      2  C   UNL     1      -0.962   0.822  -0.233  0.00  0.00    +0.044 C 
ATOM      3  C   UNL     1      -1.488   1.361   1.072  0.00  0.00    -0.048 A 
ATOM      4  C   UNL     1      -2.850   1.626   1.205  0.00  0.00    +0.004 A 
ATOM      5  C   UNL     1      -3.356   2.109   2.373  0.00  0.00    +0.010 A 
ATOM      6  C   UNL     1      -2.495   2.354   3.455  0.00  0.00    +0.001 A 
ATOM      7  C   UNL     1      -2.981   2.858   4.678  0.00  0.00    +0.020 A 
ATOM      8  C   UNL     1      -2.091   3.074   5.687  0.00  0.00    +0.029 A 
ATOM      9  C   UNL     1      -0.733   2.793   5.491  0.00  0.00    +0.220 A 
ATOM     10  N   UNL     1      -0.285   2.322   4.347  0.00  0.00    -0.213 NA
ATOM     11  C   UNL     1      -1.110   2.090   3.320  0.00  0.00    +0.075 A 
ATOM     12  C   UNL     1      -0.626   1.587   2.101  0.00  0.00    +0.031 A 
BRANCH   9  13
ATOM     13  O   UNL     1       0.141   3.011   6.504  0.00  0.00    -0.479 OA
ATOM     14  C   UNL     1       1.515   2.709   6.253  0.00  0.00    +0.279 C 
ENDBRANCH   9  13
ENDBRANCH   1   8
BRANCH   1  15
ATOM     15  N   UNL     1      -2.812   2.496   7.934  0.00  0.00    -0.295 NA
BRANCH  15  16
ATOM     16  C   UNL     1      -3.746   2.887   8.998  0.00  0.00    +0.066 C 
BRANCH  16  17
ATOM     17  C   UNL     1      -4.272   1.635   9.701  0.00  0.00    -0.064 C 
BRANCH  17  18
ATOM     18  N   UNL     1      -5.303   2.017  10.676  0.00  0.00    +0.377 N 
ATOM     19  C   UNL     1      -5.997   0.833  11.200  0.00  0.00    -0.097 C 
ATOM     20  C   UNL     1      -4.725   2.814  11.767  0.00  0.00    -0.097 C 
ATOM     21  H   UNL     1      -6.044   2.641  10.157  0.00  0.00    -0.083 HD
ENDBRANCH  17  18
ENDBRANCH  16  17
ENDBRANCH  15  16
BRANCH  15  22
ATOM     22  C   UNL     1      -1.552   1.993   8.499  0.00  0.00    +0.127 C 
BRANCH  22  23
ATOM     23  C   UNL     1      -0.948   3.044   9.394  0.00  0.00    +0.004 A 
ATOM     24  C   UNL     1      -1.050   3.181  10.739  0.00  0.00    +0.012 A 
ATOM     25  C   UNL     1      -0.400   4.233  11.357  0.00  0.00    +0.008 A 
ATOM     26  C   UNL     1       0.311   5.103  10.598  0.00  0.00    +0.045 A 
ATOM     27  S   UNL     1       0.081   4.436   8.958  0.00  0.00    -0.100 S 
ENDBRANCH  22  23
ENDBRANCH  15  22
ENDBRANCH   1  15
TORSDOF 8
