REMARK  Name = ZINC15018644
REMARK  7 active torsions:
REMARK  status: ('A' for Active; 'I' for Inactive)
REMARK    1  A    between atoms: C_2  and  C_3
REMARK    2  A    between atoms: C_3  and  O_4
REMARK    3  A    between atoms: O_4  and  C_5
REMARK    4  A    between atoms: C_6  and  C_13
REMARK    5  A    between atoms: N_14  and  N_15
REMARK    6  A    between atoms: N_15  and  C_16
REMARK    7  A    between atoms: C_16  and  N_18
REMARK                            x       y       z     vdW  Elec       q    Type
REMARK                         _______ _______ _______ _____ _____    ______ ____
ROOT
ATOM      1  C   UNL     1      -0.792   3.273   1.348  0.00  0.00    +0.144 A 
ATOM      2  C   UNL     1      -1.903   3.958   0.836  0.00  0.00    +0.038 A 
ATOM      3  C   UNL     1      -2.001   5.341   1.009  0.00  0.00    +0.027 A 
ATOM      4  C   UNL     1      -1.007   6.022   1.681  0.00  0.00    +0.015 A 
ATOM      5  C   UNL     1       0.088   5.341   2.185  0.00  0.00    +0.032 A 
ATOM      6  C   UNL     1       0.194   3.971   2.025  0.00  0.00    +0.057 A 
ATOM      7  I   UNL     1       1.851   2.953   2.802  0.00  0.00    -0.040 I 
ATOM      8  I   UNL     1      -1.155   8.096   1.940  0.00  0.00    -0.044 I 
ENDROOT
BRANCH   2   9
ATOM      9  C   UNL     1      -2.961   3.224   0.119  0.00  0.00    +0.142 C 
ATOM     10  N   UNL     1      -2.865   1.940  -0.040  0.00  0.00    -0.188 NA
BRANCH  10  11
ATOM     11  N   UNL     1      -3.871   1.242  -0.722  0.00  0.00    -0.219 N 
ATOM     12  H   UNL     1      -4.638   1.719  -1.075  0.00  0.00    +0.176 HD
BRANCH  11  13
ATOM     13  C   UNL     1      -3.772  -0.092  -0.887  0.00  0.00    +0.147 C 
ATOM     14  S   UNL     1      -5.001  -0.945  -1.720  0.00  0.00    -0.017 S 
BRANCH  13  15
ATOM     15  N   UNL     1      -2.706  -0.755  -0.396  0.00  0.00    -0.339 N 
ATOM     16  H   UNL     1      -2.010  -0.272   0.076  0.00  0.00    +0.144 HD
ATOM     17  H   UNL     1      -2.635  -1.715  -0.515  0.00  0.00    +0.144 HD
ENDBRANCH  13  15
ENDBRANCH  11  13
ENDBRANCH  10  11
ENDBRANCH   2   9
BRANCH   1  18
ATOM     18  O   UNL     1      -0.687   1.929   1.186  0.00  0.00    -0.478 OA
BRANCH  18  19
ATOM     19  C   UNL     1      -0.018   1.468   0.010  0.00  0.00    +0.317 C 
BRANCH  19  21
ATOM     20  C   UNL     1       0.018  -1.178  -0.004  0.00  0.00    +0.007 C 
ATOM     21  C   UNL     1       0.002  -0.004   0.002  0.00  0.00    -0.065 C 
ENDBRANCH  19  21
ENDBRANCH  18  19
ENDBRANCH   1  18
TORSDOF 7
