REMARK  Name = ZINC08635826
REMARK  9 active torsions:
REMARK  status: ('A' for Active; 'I' for Inactive)
REMARK    1  A    between atoms: C_1  and  N_56
REMARK    2  A    between atoms: C_2  and  C_3
REMARK    3  A    between atoms: C_2  and  N_56
REMARK    4  A    between atoms: C_9  and  C_10
REMARK    5  A    between atoms: C_9  and  N_56
REMARK    6  A    between atoms: C_18  and  C_20
REMARK    7  A    between atoms: C_20  and  N_21
REMARK    8  A    between atoms: N_21  and  S_22
REMARK    9  A    between atoms: S_22  and  C_25
REMARK                            x       y       z     vdW  Elec       q    Type
REMARK                         _______ _______ _______ _____ _____    ______ ____
ROOT
ATOM      1  C   UNL     1       0.607  -0.513   1.312  0.00  0.00    -0.041 C 
ATOM      2  C   UNL     1      -0.303  -0.128   2.482  0.00  0.00    -0.077 C 
ATOM      3  C   UNL     1       0.378  -2.089   3.730  0.00  0.00    -0.078 C 
ATOM      4  C   UNL     1       1.308  -2.530   2.596  0.00  0.00    -0.015 C 
ATOM      5  C   UNL     1       0.729  -2.041   1.262  0.00  0.00    -0.015 C 
ATOM      6  C   UNL     1      -0.673  -2.639   1.089  0.00  0.00    -0.011 C 
ATOM      7  C   UNL     1      -1.548  -2.195   2.265  0.00  0.00    -0.053 C 
ATOM      8  N   UNL     1      -0.775  -1.338   3.189  0.00  0.00    +0.383 N 
ATOM      9  H   UNL     1      -1.382  -1.054   3.967  0.00  0.00    -0.081 HD
ENDROOT
BRANCH   1  10
ATOM     10  C   UNL     1       0.002  -0.004   0.002  0.00  0.00    -0.077 C 
BRANCH  10  12
ATOM     11  C   UNL     1       1.346   2.010   0.000  0.00  0.00    -0.096 C 
ATOM     12  N   UNL     1      -0.030   1.473   0.034  0.00  0.00    +0.381 N 
ATOM     13  H   UNL     1      -0.486   1.778   0.903  0.00  0.00    -0.082 HD
BRANCH  12  14
ATOM     14  C   UNL     1      -0.802   1.987  -1.117  0.00  0.00    -0.043 C 
BRANCH  14  15
ATOM     15  C   UNL     1      -1.007   3.470  -0.943  0.00  0.00    -0.064 A 
ATOM     16  C   UNL     1      -2.115   3.939  -0.262  0.00  0.00    +0.002 A 
ATOM     17  C   UNL     1      -2.300   5.299  -0.097  0.00  0.00    +0.000 A 
ATOM     18  C   UNL     1      -1.383   6.190  -0.623  0.00  0.00    +0.000 A 
ATOM     19  C   UNL     1      -0.278   5.721  -1.308  0.00  0.00    +0.000 A 
ATOM     20  C   UNL     1      -0.090   4.361  -1.468  0.00  0.00    +0.002 A 
ENDBRANCH  14  15
ENDBRANCH  12  14
ENDBRANCH  10  12
ENDBRANCH   1  10
BRANCH   7  21
ATOM     21  C   UNL     1      -2.747  -1.404   1.739  0.00  0.00    +0.091 C 
BRANCH  21  22
ATOM     22  N   UNL     1      -3.517  -0.876   2.869  0.00  0.00    -0.191 NA
ATOM     23  H   UNL     1      -3.369  -1.224   3.762  0.00  0.00    +0.148 HD
BRANCH  22  24
ATOM     24  S   UNL     1      -4.641   0.314   2.620  0.00  0.00    +0.065 S 
ATOM     25  O   UNL     1      -5.229   0.589   3.885  0.00  0.00    -0.153 OA
ATOM     26  O   UNL     1      -4.004   1.318   1.842  0.00  0.00    -0.153 OA
BRANCH  24  27
ATOM     27  C   UNL     1      -5.913  -0.373   1.612  0.00  0.00    +0.142 A 
ATOM     28  C   UNL     1      -7.044  -1.019   1.988  0.00  0.00    +0.036 A 
ATOM     29  C   UNL     1      -7.911  -1.474   1.012  0.00  0.00    +0.010 A 
ATOM     30  C   UNL     1      -7.599  -1.271  -0.291  0.00  0.00    +0.047 A 
ATOM     31  S   UNL     1      -6.043  -0.405  -0.168  0.00  0.00    -0.077 S 
ENDBRANCH  24  27
ENDBRANCH  22  24
ENDBRANCH  21  22
ENDBRANCH   7  21
TORSDOF 8
