REMARK  Name = ZINC04125104
REMARK  5 active torsions:
REMARK  status: ('A' for Active; 'I' for Inactive)
REMARK    1  A    between atoms: C_1  and  C_2
REMARK    2  A    between atoms: C_2  and  C_3
REMARK    3  A    between atoms: C_2  and  O_4
REMARK    4  A    between atoms: O_4  and  C_5
REMARK    5  A    between atoms: C_5  and  C_7
REMARK                            x       y       z     vdW  Elec       q    Type
REMARK                         _______ _______ _______ _____ _____    ______ ____
ROOT
ATOM      1  C   UNL     1       3.018   3.930  -1.446  0.00  0.00    +0.191 C 
ATOM      2  C   UNL     1       2.615   3.884   0.034  0.00  0.00    +0.054 C 
ATOM      3  C   UNL     1       1.338   3.099   0.172  0.00  0.00    -0.001 A 
ATOM      4  C   UNL     1       1.400   1.715   0.161  0.00  0.00    +0.007 A 
ATOM      5  C   UNL     1       0.247   0.964   0.277  0.00  0.00    +0.001 A 
ATOM      6  C   UNL     1      -0.978   1.592   0.401  0.00  0.00    +0.004 A 
ATOM      7  C   UNL     1      -1.046   2.970   0.421  0.00  0.00    +0.046 A 
ATOM      8  C   UNL     1       0.113   3.729   0.305  0.00  0.00    +0.127 A 
ATOM      9  O   UNL     1       0.011   5.083   0.327  0.00  0.00    -0.468 OA
ATOM     10  C   UNL     1       1.118   5.838  -0.179  0.00  0.00    +0.181 C 
ATOM     11  C   UNL     1       2.394   5.331   0.501  0.00  0.00    +0.061 C 
ATOM     12  C   UNL     1       3.590   6.171   0.045  0.00  0.00    +0.010 C 
ATOM     13  C   UNL     1       3.358   7.641   0.396  0.00  0.00    +0.001 C 
ATOM     14  C   UNL     1       2.100   8.137  -0.321  0.00  0.00    +0.006 C 
ATOM     15  C   UNL     1       0.899   7.315   0.149  0.00  0.00    +0.069 C 
ATOM     16  N   UNL     1       1.213   5.651  -1.622  0.00  0.00    -0.277 N 
ATOM     17  C   UNL     1       2.048   4.790  -2.206  0.00  0.00    +0.230 C 
ATOM     18  O   UNL     1       2.023   4.695  -3.415  0.00  0.00    -0.275 OA
ATOM     19  H   UNL     1       0.636   6.184  -2.191  0.00  0.00    +0.152 HD
ENDROOT
BRANCH   1  20
ATOM     20  C   UNL     1       3.003   2.534  -2.013  0.00  0.00    +0.320 C 
ATOM     21  O   UNL     1       1.998   2.101  -2.526  0.00  0.00    -0.250 OA
BRANCH  20  22
ATOM     22  O   UNL     1       4.106   1.772  -1.950  0.00  0.00    -0.461 OA
BRANCH  22  24
ATOM     23  C   UNL     1       5.394   0.015  -3.039  0.00  0.00    +0.052 C 
ATOM     24  C   UNL     1       4.019   0.438  -2.517  0.00  0.00    +0.170 C 
ATOM     25  C   UNL     1       3.559  -0.545  -1.438  0.00  0.00    +0.052 C 
ENDBRANCH  22  24
ENDBRANCH  20  22
ENDBRANCH   1  20
TORSDOF 3
