REMARK  Name = ZINC06196793
REMARK  9 active torsions:
REMARK  status: ('A' for Active; 'I' for Inactive)
REMARK    1  A    between atoms: C_1  and  C_2
REMARK    2  A    between atoms: C_2  and  O_3
REMARK    3  A    between atoms: O_3  and  C_4
REMARK    4  A    between atoms: C_11  and  C_16
REMARK    5  A    between atoms: C_16  and  C_18
REMARK    6  A    between atoms: C_16  and  N_77
REMARK    7  A    between atoms: N_22  and  C_23
REMARK    8  A    between atoms: C_31  and  C_34
REMARK    9  A    between atoms: C_34  and  C_35
REMARK                            x       y       z     vdW  Elec       q    Type
REMARK                         _______ _______ _______ _____ _____    ______ ____
ROOT
ATOM      1  C   UNL     1       2.948  -0.526  -2.284  0.00  0.00    +0.039 C 
ENDROOT
BRANCH   1   9
ATOM      2  C   UNL     1       8.124   2.330  -4.151  0.00  0.00    +0.121 A 
ATOM      3  C   UNL     1       8.818   2.181  -2.952  0.00  0.00    +0.047 A 
ATOM      4  C   UNL     1       8.236   1.544  -1.879  0.00  0.00    +0.030 A 
ATOM      5  C   UNL     1       6.943   1.042  -1.986  0.00  0.00    +0.049 A 
ATOM      6  C   UNL     1       6.238   1.190  -3.196  0.00  0.00    +0.002 A 
ATOM      7  C   UNL     1       6.840   1.839  -4.279  0.00  0.00    +0.055 A 
ATOM      8  C   UNL     1       4.881   0.651  -3.297  0.00  0.00    +0.017 A 
ATOM      9  C   UNL     1       4.345   0.035  -2.214  0.00  0.00    +0.011 A 
ATOM     10  C   UNL     1       5.093  -0.086  -1.024  0.00  0.00    +0.251 A 
ATOM     11  O   UNL     1       4.594  -0.648  -0.064  0.00  0.00    -0.268 OA
ATOM     12  N   UNL     1       6.342   0.401  -0.922  0.00  0.00    -0.322 N 
ATOM     13  H   UNL     1       6.843   0.296  -0.063  0.00  0.00    +0.169 HD
BRANCH   2  14
ATOM     14  O   UNL     1       8.714   2.962  -5.200  0.00  0.00    -0.492 OA
BRANCH  14  16
ATOM     15  C   UNL     1      10.537   4.122  -6.282  0.00  0.00    +0.048 C 
ATOM     16  C   UNL     1      10.044   3.446  -5.001  0.00  0.00    +0.225 C 
ENDBRANCH  14  16
ENDBRANCH   2  14
ENDBRANCH   1   9
BRANCH   1  22
ATOM     17  C   UNL     1       0.770  -0.492  -1.228  0.00  0.00    -0.077 C 
ATOM     18  C   UNL     1       0.002  -0.004   0.002  0.00  0.00    -0.015 C 
ATOM     19  C   UNL     1      -0.019   1.527   0.010  0.00  0.00    -0.010 C 
ATOM     20  C   UNL     1       1.421   2.049  -0.001  0.00  0.00    -0.015 C 
ATOM     21  C   UNL     1       2.147   1.502  -1.231  0.00  0.00    -0.077 C 
ATOM     22  N   UNL     1       2.154   0.024  -1.167  0.00  0.00    +0.389 N 
ATOM     23  H   UNL     1       2.579  -0.268  -0.279  0.00  0.00    -0.080 HD
BRANCH  19  24
ATOM     24  C   UNL     1      -0.733   2.022   1.270  0.00  0.00    +0.038 C 
BRANCH  24  25
ATOM     25  C   UNL     1      -0.861   3.522   1.218  0.00  0.00    -0.047 A 
ATOM     26  C   UNL     1       0.133   4.320   1.754  0.00  0.00    +0.003 A 
ATOM     27  C   UNL     1       0.017   5.697   1.702  0.00  0.00    +0.000 A 
ATOM     28  C   UNL     1      -1.097   6.275   1.123  0.00  0.00    +0.000 A 
ATOM     29  C   UNL     1      -2.093   5.477   0.591  0.00  0.00    +0.000 A 
ATOM     30  C   UNL     1      -1.975   4.101   0.639  0.00  0.00    +0.003 A 
ENDBRANCH  24  25
ENDBRANCH  19  24
ENDBRANCH   1  22
BRANCH   1  31
ATOM     31  C   UNL     1       3.003  -2.026  -2.151  0.00  0.00    +0.143 A 
ATOM     32  N   UNL     1       3.216  -2.707  -1.052  0.00  0.00    -0.115 NA
ATOM     33  N   UNL     1       3.187  -3.961  -1.349  0.00  0.00    -0.023 NA
ATOM     34  N   UNL     1       2.960  -4.097  -2.608  0.00  0.00    -0.044 NA
ATOM     35  N   UNL     1       2.835  -2.927  -3.137  0.00  0.00    -0.227 N 
BRANCH  35  36
ATOM     36  C   UNL     1       2.566  -2.633  -4.547  0.00  0.00    +0.111 C 
ATOM     37  C   UNL     1       1.230  -3.261  -4.952  0.00  0.00    +0.027 C 
ATOM     38  C   UNL     1       0.949  -2.955  -6.425  0.00  0.00    +0.002 C 
ATOM     39  C   UNL     1       2.069  -3.536  -7.290  0.00  0.00    +0.000 C 
ATOM     40  C   UNL     1       3.404  -2.908  -6.885  0.00  0.00    +0.002 C 
ATOM     41  C   UNL     1       3.686  -3.214  -5.412  0.00  0.00    +0.027 C 
ENDBRANCH  35  36
ENDBRANCH   1  31
TORSDOF 8
