REMARK  Name = ZINC52036452
REMARK  8 active torsions:
REMARK  status: ('A' for Active; 'I' for Inactive)
REMARK    1  A    between atoms: C_1  and  C_2
REMARK    2  A    between atoms: C_2  and  C_3
REMARK    3  A    between atoms: C_2  and  C_4
REMARK    4  A    between atoms: C_2  and  N_5
REMARK    5  A    between atoms: C_13  and  O_20
REMARK    6  A    between atoms: C_14  and  O_18
REMARK    7  A    between atoms: O_18  and  C_19
REMARK    8  A    between atoms: O_20  and  C_21
REMARK                            x       y       z     vdW  Elec       q    Type
REMARK                         _______ _______ _______ _____ _____    ______ ____
ROOT
ATOM      1  N   UNL     1       2.739  -0.123  -0.215  0.00  0.00    -0.314 N 
ATOM      2  C   UNL     1       2.141  -0.080  -1.452  0.00  0.00    +0.154 C 
ATOM      3  N   UNL     1       0.901   0.306  -1.564  0.00  0.00    -0.375 N 
ATOM      4  N   UNL     1       2.851  -0.445  -2.572  0.00  0.00    -0.300 N 
ATOM      5  C   UNL     1       4.288  -0.151  -2.696  0.00  0.00    +0.112 C 
ATOM      6  C   UNL     1       5.037  -1.482  -2.749  0.00  0.00    +0.054 C 
ATOM      7  C   UNL     1       4.387  -2.424  -3.729  0.00  0.00    -0.038 A 
ATOM      8  C   UNL     1       5.155  -3.477  -4.213  0.00  0.00    +0.053 A 
ATOM      9  C   UNL     1       4.620  -4.386  -5.107  0.00  0.00    +0.162 A 
ATOM     10  C   UNL     1       3.300  -4.245  -5.525  0.00  0.00    +0.162 A 
ATOM     11  C   UNL     1       2.540  -3.194  -5.045  0.00  0.00    +0.054 A 
ATOM     12  C   UNL     1       3.084  -2.280  -4.151  0.00  0.00    -0.023 A 
ATOM     13  C   UNL     1       2.209  -1.149  -3.687  0.00  0.00    +0.143 C 
ATOM     14  H   UNL     1       3.632  -0.488  -0.120  0.00  0.00    +0.149 HD
ATOM     15  H   UNL     1       0.460   0.276  -2.427  0.00  0.00    +0.158 HD
ATOM     16  H   UNL     1       0.420   0.625  -0.784  0.00  0.00    +0.158 HD
ENDROOT
BRANCH   1  18
ATOM     17  C   UNL     1       0.767  -0.457   1.194  0.00  0.00    +0.031 C 
ATOM     18  C   UNL     1       2.025   0.382   0.961  0.00  0.00    +0.026 C 
ATOM     19  C   UNL     1       1.630   1.842   0.729  0.00  0.00    +0.031 C 
ATOM     20  C   UNL     1       2.934   0.289   2.188  0.00  0.00    +0.031 C 
ENDBRANCH   1  18
BRANCH  10  21
ATOM     21  O   UNL     1       2.761  -5.134  -6.401  0.00  0.00    -0.491 OA
ATOM     22  C   UNL     1       1.400  -4.924  -6.785  0.00  0.00    +0.277 C 
ENDBRANCH  10  21
BRANCH   9  23
ATOM     23  O   UNL     1       5.380  -5.412  -5.575  0.00  0.00    -0.491 OA
ATOM     24  C   UNL     1       6.725  -5.492  -5.101  0.00  0.00    +0.277 C 
ENDBRANCH   9  23
TORSDOF 3
