REMARK  Name = ZINC49409521
REMARK  8 active torsions:
REMARK  status: ('A' for Active; 'I' for Inactive)
REMARK    1  A    between atoms: C_1  and  N_2
REMARK    2  A    between atoms: N_2  and  C_3
REMARK    3  A    between atoms: N_2  and  C_4
REMARK    4  A    between atoms: C_4  and  C_6
REMARK    5  A    between atoms: C_4  and  C_22
REMARK    6  A    between atoms: C_6  and  N_7
REMARK    7  A    between atoms: C_8  and  C_10
REMARK    8  A    between atoms: C_10  and  C_15
REMARK                            x       y       z     vdW  Elec       q    Type
REMARK                         _______ _______ _______ _____ _____    ______ ____
ROOT
ATOM      1  N   UNL     1       1.238  -2.738  -0.020  0.00  0.00    -0.316 N 
ATOM      2  C   UNL     1       1.525  -4.032  -0.267  0.00  0.00    +0.224 C 
ATOM      3  O   UNL     1       1.365  -4.864   0.601  0.00  0.00    -0.275 OA
ATOM      4  H   UNL     1       1.293  -2.084  -0.735  0.00  0.00    +0.149 HD
ENDROOT
BRANCH   2   5
ATOM      5  C   UNL     1       2.043  -4.444  -1.621  0.00  0.00    +0.072 C 
ATOM      6  C   UNL     1       1.053  -4.013  -2.717  0.00  0.00    +0.021 C 
ATOM      7  C   UNL     1       0.591  -5.304  -3.426  0.00  0.00    +0.001 C 
ATOM      8  C   UNL     1       0.824  -6.418  -2.375  0.00  0.00    +0.001 C 
ATOM      9  C   UNL     1       2.148  -5.981  -1.701  0.00  0.00    +0.021 C 
BRANCH   5  10
ATOM     10  C   UNL     1       3.392  -3.820  -1.868  0.00  0.00    -0.032 A 
ATOM     11  C   UNL     1       4.022  -3.113  -0.861  0.00  0.00    +0.006 A 
ATOM     12  C   UNL     1       5.260  -2.541  -1.087  0.00  0.00    +0.020 A 
ATOM     13  C   UNL     1       5.869  -2.676  -2.322  0.00  0.00    +0.041 A 
ATOM     14  C   UNL     1       5.238  -3.385  -3.330  0.00  0.00    +0.020 A 
ATOM     15  C   UNL     1       4.003  -3.961  -3.100  0.00  0.00    +0.006 A 
ATOM     16 CL   UNL     1       7.423  -1.958  -2.607  0.00  0.00    -0.084 Cl
ENDBRANCH   5  10
ENDBRANCH   2   5
BRANCH   1  17
ATOM     17  C   UNL     1       0.845  -2.319   1.327  0.00  0.00    +0.093 C 
BRANCH  17  18
ATOM     18  C   UNL     1       0.689  -0.797   1.363  0.00  0.00    -0.020 C 
BRANCH  18  19
ATOM     19  C   UNL     1      -0.451  -0.388   0.467  0.00  0.00    -0.041 A 
ATOM     20  C   UNL     1      -0.202  -0.006  -0.838  0.00  0.00    +0.003 A 
ATOM     21  C   UNL     1      -1.248   0.370  -1.660  0.00  0.00    +0.000 A 
ATOM     22  C   UNL     1      -2.543   0.365  -1.178  0.00  0.00    +0.001 A 
ATOM     23  C   UNL     1      -2.794  -0.017   0.127  0.00  0.00    +0.020 A 
ATOM     24  C   UNL     1      -1.748  -0.398   0.949  0.00  0.00    +0.043 A 
ATOM     25 CL   UNL     1      -2.062  -0.883   2.586  0.00  0.00    -0.083 Cl
ENDBRANCH  18  19
BRANCH  18  27
ATOM     26  C   UNL     1       1.816   1.292   1.018  0.00  0.00    -0.096 C 
ATOM     27  N   UNL     1       1.931  -0.167   0.895  0.00  0.00    +0.382 N 
ATOM     28  C   UNL     1       3.058  -0.640   1.710  0.00  0.00    -0.096 C 
ATOM     29  H   UNL     1       2.089  -0.412  -0.071  0.00  0.00    -0.082 HD
ENDBRANCH  18  27
ENDBRANCH  17  18
ENDBRANCH   1  17
TORSDOF 6
