REMARK  Name = ZINC35894724
REMARK  6 active torsions:
REMARK  status: ('A' for Active; 'I' for Inactive)
REMARK    1  A    between atoms: C_6  and  C_7
REMARK    2  A    between atoms: C_7  and  N_8
REMARK    3  A    between atoms: C_9  and  C_11
REMARK    4  A    between atoms: C_16  and  N_35
REMARK    5  A    between atoms: N_24  and  C_27
REMARK    6  A    between atoms: C_27  and  C_28
REMARK                            x       y       z     vdW  Elec       q    Type
REMARK                         _______ _______ _______ _____ _____    ______ ____
ROOT
ATOM      1  C   UNL     1      -3.312  -1.942  -3.025  0.00  0.00    +0.098 C 
ATOM      2  C   UNL     1      -2.212  -2.691  -3.748  0.00  0.00    +0.051 C 
ATOM      3  C   UNL     1      -2.179  -4.144  -3.376  0.00  0.00    -0.023 A 
ATOM      4  C   UNL     1      -0.982  -4.836  -3.411  0.00  0.00    +0.038 A 
ATOM      5  C   UNL     1      -0.943  -6.175  -3.073  0.00  0.00    +0.127 A 
ATOM      6  C   UNL     1      -2.101  -6.830  -2.697  0.00  0.00    +0.034 A 
ATOM      7  C   UNL     1      -3.300  -6.146  -2.658  0.00  0.00    +0.025 A 
ATOM      8  C   UNL     1      -3.342  -4.798  -2.997  0.00  0.00    +0.033 A 
ATOM      9  N   UNL     1      -4.547  -4.109  -2.947  0.00  0.00    -0.329 N 
ATOM     10  C   UNL     1      -4.634  -2.659  -2.990  0.00  0.00    +0.069 C 
ATOM     11  C   UNL     1      -5.544  -2.254  -4.151  0.00  0.00    -0.055 C 
ATOM     12  N   UNL     1      -6.841  -2.928  -3.998  0.00  0.00    +0.385 N 
ATOM     13  C   UNL     1      -6.676  -4.385  -4.066  0.00  0.00    -0.059 C 
ATOM     14  C   UNL     1      -5.819  -4.859  -2.891  0.00  0.00    +0.087 C 
ATOM     15  H   UNL     1      -7.243  -2.680  -3.106  0.00  0.00    -0.081 HD
ENDROOT
BRANCH   1  17
ATOM     16  N   UNL     1      -1.726  -1.017  -1.368  0.00  0.00    -0.311 N 
ATOM     17  C   UNL     1      -2.867  -1.693  -1.607  0.00  0.00    +0.218 C 
ATOM     18  O   UNL     1      -3.535  -2.101  -0.681  0.00  0.00    -0.275 OA
ATOM     19  H   UNL     1      -1.191  -0.691  -2.109  0.00  0.00    +0.149 HD
BRANCH  16  20
ATOM     20  C   UNL     1      -1.293  -0.775   0.010  0.00  0.00    +0.139 C 
BRANCH  20  26
ATOM     21  C   UNL     1      -0.017   1.378   0.010  0.00  0.00    +0.008 A 
ATOM     22  C   UNL     1       1.170   2.086   0.002  0.00  0.00    +0.038 A 
ATOM     23  C   UNL     1       2.379   1.410  -0.013  0.00  0.00    +0.123 A 
ATOM     24  C   UNL     1       2.396   0.026  -0.021  0.00  0.00    +0.038 A 
ATOM     25  C   UNL     1       1.208  -0.680  -0.013  0.00  0.00    +0.008 A 
ATOM     26  C   UNL     1       0.002  -0.004   0.002  0.00  0.00    -0.030 A 
ATOM     27  F   UNL     1       3.540   2.101  -0.021  0.00  0.00    -0.205 F 
ENDBRANCH  20  26
ENDBRANCH  16  20
ENDBRANCH   1  17
BRANCH   5  28
ATOM     28  N   UNL     1       0.342  -6.909  -3.112  0.00  0.00    +0.056 N 
ATOM     29  O   UNL     1       1.355  -6.338  -3.440  0.00  0.00    -0.126 OA
ATOM     30  O   UNL     1       0.377  -8.081  -2.816  0.00  0.00    -0.126 OA
ENDBRANCH   5  28
BRANCH  12  31
ATOM     31  C   UNL     1      -7.744  -2.492  -5.072  0.00  0.00    -0.043 C 
BRANCH  31  32
ATOM     32  C   UNL     1      -9.112  -3.085  -4.851  0.00  0.00    -0.064 A 
ATOM     33  C   UNL     1      -9.427  -4.317  -5.393  0.00  0.00    +0.003 A 
ATOM     34  C   UNL     1     -10.682  -4.861  -5.190  0.00  0.00    +0.020 A 
ATOM     35  C   UNL     1     -11.621  -4.172  -4.444  0.00  0.00    +0.041 A 
ATOM     36  C   UNL     1     -11.305  -2.939  -3.901  0.00  0.00    +0.020 A 
ATOM     37  C   UNL     1     -10.048  -2.399  -4.100  0.00  0.00    +0.003 A 
ATOM     38 CL   UNL     1     -13.197  -4.854  -4.189  0.00  0.00    -0.084 Cl
ENDBRANCH  31  32
ENDBRANCH  12  31
TORSDOF 6
