REMARK  Name = ZINC35217477
REMARK  7 active torsions:
REMARK  status: ('A' for Active; 'I' for Inactive)
REMARK    1  A    between atoms: C_1  and  C_2
REMARK    2  A    between atoms: C_8  and  C_18
REMARK    3  A    between atoms: C_10  and  C_12
REMARK    4  A    between atoms: N_16  and  C_17
REMARK    5  A    between atoms: C_22  and  C_31
REMARK    6  A    between atoms: C_27  and  C_29
REMARK    7  A    between atoms: C_27  and  C_30
REMARK                            x       y       z     vdW  Elec       q    Type
REMARK                         _______ _______ _______ _____ _____    ______ ____
ROOT
ATOM      1  C   UNL     1       4.369  -0.838   0.431  0.00  0.00    +0.044 C 
ATOM      2  C   UNL     1       3.253  -1.839   0.282  0.00  0.00    -0.050 A 
ATOM      3  C   UNL     1       3.133  -2.565  -0.901  0.00  0.00    +0.005 A 
ATOM      4  C   UNL     1       2.136  -3.476  -1.068  0.00  0.00    +0.028 A 
ATOM      5  C   UNL     1       1.209  -3.694  -0.032  0.00  0.00    +0.072 A 
ATOM      6  C   UNL     1       1.336  -2.952   1.169  0.00  0.00    +0.013 A 
ATOM      7  C   UNL     1       2.376  -2.027   1.309  0.00  0.00    +0.014 A 
ATOM      8  C   UNL     1       0.368  -3.182   2.243  0.00  0.00    +0.048 A 
ATOM      9  C   UNL     1      -0.625  -4.123   2.016  0.00  0.00    +0.043 A 
ATOM     10  C   UNL     1      -0.661  -4.804   0.787  0.00  0.00    +0.089 A 
ATOM     11  N   UNL     1       0.222  -4.581  -0.167  0.00  0.00    -0.245 NA
ENDROOT
BRANCH   8  12
ATOM     12  C   UNL     1       0.447  -2.441   3.521  0.00  0.00    +0.248 C 
ATOM     13  O   UNL     1       0.651  -1.243   3.517  0.00  0.00    -0.270 OA
ATOM     14  N   UNL     1       0.292  -3.094   4.690  0.00  0.00    -0.294 N 
ATOM     15  C   UNL     1      -0.074  -4.511   4.843  0.00  0.00    +0.115 C 
ATOM     16  C   UNL     1      -0.081  -4.799   6.362  0.00  0.00    -0.014 C 
ATOM     17  C   UNL     1      -0.420  -3.406   6.959  0.00  0.00    +0.030 C 
ATOM     18  C   UNL     1       0.447  -2.512   6.038  0.00  0.00    +0.077 C 
ATOM     19  C   UNL     1       1.896  -2.666   6.488  0.00  0.00    +0.029 C 
ATOM     20  C   UNL     1       2.384  -4.103   6.525  0.00  0.00    -0.033 C 
ATOM     21  C   UNL     1       1.334  -5.159   6.806  0.00  0.00    +0.014 C 
ATOM     22  C   UNL     1       3.441  -4.196   7.653  0.00  0.00    +0.011 C 
ATOM     23  C   UNL     1       3.118  -4.431   5.216  0.00  0.00    +0.011 C 
ATOM     24  C   UNL     1      -1.116  -5.868   6.747  0.00  0.00    +0.013 C 
ENDBRANCH   8  12
BRANCH  10  25
ATOM     25  C   UNL     1      -1.723  -5.803   0.557  0.00  0.00    +0.067 A 
ATOM     26  C   UNL     1      -2.758  -6.084   1.400  0.00  0.00    +0.029 A 
ATOM     27  C   UNL     1      -3.526  -7.090   0.796  0.00  0.00    +0.020 A 
ATOM     28  C   UNL     1      -2.948  -7.395  -0.387  0.00  0.00    +0.086 A 
ATOM     29  N   UNL     1      -1.848  -6.611  -0.546  0.00  0.00    -0.349 N 
ATOM     30  C   UNL     1      -0.945  -6.627  -1.700  0.00  0.00    +0.149 C 
ENDBRANCH  10  25
TORSDOF 2
