REMARK  Name = ZINC39969393
REMARK  11 active torsions:
REMARK  status: ('A' for Active; 'I' for Inactive)
REMARK    1  A    between atoms: C_1  and  O_2
REMARK    2  A    between atoms: O_2  and  C_3
REMARK    3  A    between atoms: C_8  and  C_13
REMARK    4  A    between atoms: C_13  and  C_34
REMARK    5  A    between atoms: C_14  and  C_15
REMARK    6  A    between atoms: C_18  and  O_23
REMARK    7  A    between atoms: C_19  and  O_21
REMARK    8  A    between atoms: O_21  and  C_22
REMARK    9  A    between atoms: O_23  and  C_24
REMARK   10  A    between atoms: C_24  and  C_25
REMARK   11  A    between atoms: C_28  and  C_31
REMARK                            x       y       z     vdW  Elec       q    Type
REMARK                         _______ _______ _______ _____ _____    ______ ____
ROOT
ATOM      1  C   UNL     1      -5.951  -6.401  -0.148  0.00  0.00    -0.020 A 
ATOM      2  C   UNL     1      -5.350  -5.867  -1.294  0.00  0.00    +0.012 A 
ATOM      3  C   UNL     1      -5.682  -6.359  -2.537  0.00  0.00    +0.050 A 
ATOM      4  C   UNL     1      -6.612  -7.383  -2.657  0.00  0.00    +0.162 A 
ATOM      5  C   UNL     1      -7.215  -7.920  -1.520  0.00  0.00    +0.162 A 
ATOM      6  C   UNL     1      -6.884  -7.437  -0.269  0.00  0.00    +0.057 A 
ENDROOT
BRANCH   1   8
ATOM      7  C   UNL     1      -5.380  -4.557   1.350  0.00  0.00    +0.072 C 
ATOM      8  C   UNL     1      -5.598  -5.878   1.181  0.00  0.00    +0.026 C 
BRANCH   7  14
ATOM      9  C   UNL     1      -4.003   0.690  -0.036  0.00  0.00    +0.122 A 
ATOM     10  C   UNL     1      -5.301   0.984   0.556  0.00  0.00    +0.048 A 
ATOM     11  C   UNL     1      -6.191   0.013   0.836  0.00  0.00    +0.031 A 
ATOM     12  C   UNL     1      -5.859  -1.389   0.543  0.00  0.00    +0.061 A 
ATOM     13  N   UNL     1      -6.519  -2.499   0.710  0.00  0.00    -0.359 N 
ATOM     14  C   UNL     1      -5.671  -3.595   0.227  0.00  0.00    +0.216 C 
ATOM     15  N   UNL     1      -4.426  -2.979  -0.245  0.00  0.00    -0.359 N 
ATOM     16  C   UNL     1      -4.533  -1.690  -0.062  0.00  0.00    +0.064 A 
ATOM     17  C   UNL     1      -3.625  -0.576  -0.340  0.00  0.00    +0.073 A 
ATOM     18  H   UNL     1      -7.409  -2.585   1.085  0.00  0.00    +0.162 HD
ATOM     19  H   UNL     1      -3.663  -3.443  -0.624  0.00  0.00    +0.162 HD
BRANCH   9  21
ATOM     20  C   UNL     1      -3.592   3.028   0.044  0.00  0.00    +0.277 C 
ATOM     21  O   UNL     1      -3.150   1.712  -0.294  0.00  0.00    -0.495 OA
ENDBRANCH   9  21
ENDBRANCH   7  14
BRANCH   7  22
ATOM     22  C   UNL     1      -4.872  -4.069   2.597  0.00  0.00    +0.099 C 
ATOM     23  N   UNL     1      -4.469  -3.682   3.586  0.00  0.00    -0.191 NA
ENDBRANCH   7  22
ENDBRANCH   1   8
BRANCH   5  24
ATOM     24  O   UNL     1      -8.125  -8.922  -1.642  0.00  0.00    -0.491 OA
ATOM     25  C   UNL     1      -8.703  -9.425  -0.436  0.00  0.00    +0.277 C 
ENDBRANCH   5  24
BRANCH   4  26
ATOM     26  O   UNL     1      -6.936  -7.864  -3.886  0.00  0.00    -0.484 OA
BRANCH  26  27
ATOM     27  C   UNL     1      -6.281  -7.269  -5.008  0.00  0.00    +0.264 C 
BRANCH  27  28
ATOM     28  C   UNL     1      -6.763  -7.925  -6.276  0.00  0.00    -0.010 A 
ATOM     29  C   UNL     1      -6.105  -9.038  -6.769  0.00  0.00    +0.008 A 
ATOM     30  C   UNL     1      -6.540  -9.643  -7.929  0.00  0.00    +0.015 A 
ATOM     31  C   UNL     1      -7.648  -9.130  -8.608  0.00  0.00    +0.063 A 
ATOM     32  C   UNL     1      -8.307  -8.006  -8.105  0.00  0.00    +0.015 A 
ATOM     33  C   UNL     1      -7.864  -7.414  -6.940  0.00  0.00    +0.008 A 
BRANCH  31  34
ATOM     34  C   UNL     1      -8.119  -9.772  -9.850  0.00  0.00    +0.387 C 
ATOM     35  O   UNL     1      -7.539 -10.755 -10.288  0.00  0.00    -0.241 OA
ATOM     36  O   UNL     1      -9.089  -9.320 -10.442  0.00  0.00    -0.241 OA
ENDBRANCH  31  34
ENDBRANCH  27  28
ENDBRANCH  26  27
ENDBRANCH   4  26
TORSDOF 9
