REMARK  Name = ZINC40018967
REMARK  16 active torsions:
REMARK  status: ('A' for Active; 'I' for Inactive)
REMARK    1  A    between atoms: C_1  and  C_2
REMARK    2  A    between atoms: C_2  and  C_3
REMARK    3  A    between atoms: C_3  and  C_4
REMARK    4  A    between atoms: C_4  and  N_5
REMARK    5  A    between atoms: N_5  and  C_6
REMARK    6  A    between atoms: N_5  and  C_10
REMARK    7  A    between atoms: C_6  and  C_7
REMARK    8  A    between atoms: C_7  and  C_8
REMARK    9  A    between atoms: C_8  and  C_9
REMARK   10  A    between atoms: C_10  and  C_11
REMARK   11  A    between atoms: C_11  and  C_12
REMARK   12  A    between atoms: C_12  and  N_13
REMARK   13  A    between atoms: C_14  and  C_29
REMARK   14  A    between atoms: C_16  and  C_21
REMARK   15  A    between atoms: C_21  and  C_23
REMARK   16  A    between atoms: C_26  and  C_28
REMARK                            x       y       z     vdW  Elec       q    Type
REMARK                         _______ _______ _______ _____ _____    ______ ____
ROOT
ATOM      1  N   UNL     1       3.811  -5.907  -0.297  0.00  0.00    -0.284 N 
ATOM      2  C   UNL     1       3.353  -6.201  -1.660  0.00  0.00    +0.145 C 
ATOM      3  C   UNL     1       4.600  -6.393  -2.491  0.00  0.00    +0.079 C 
ATOM      4  C   UNL     1       5.653  -6.220  -1.659  0.00  0.00    +0.249 C 
ATOM      5  C   UNL     1       5.156  -5.914  -0.303  0.00  0.00    +0.288 C 
ATOM      6  O   UNL     1       5.859  -5.701   0.665  0.00  0.00    -0.266 OA
ATOM      7  O   UNL     1       6.956  -6.309  -2.016  0.00  0.00    -0.282 OA
ENDROOT
BRANCH   2   8
ATOM      8  C   UNL     1       2.525  -7.460  -1.668  0.00  0.00    -0.021 A 
ATOM      9  C   UNL     1       2.862  -8.515  -0.840  0.00  0.00    +0.007 A 
ATOM     10  C   UNL     1       2.104  -9.670  -0.847  0.00  0.00    +0.022 A 
ATOM     11  C   UNL     1       1.006  -9.772  -1.682  0.00  0.00    +0.059 A 
ATOM     12  C   UNL     1       0.667  -8.716  -2.510  0.00  0.00    +0.060 A 
ATOM     13  C   UNL     1       1.424  -7.558  -2.499  0.00  0.00    +0.027 A 
ATOM     14 CL   UNL     1      -0.710  -8.842  -3.559  0.00  0.00    -0.082 Cl
ATOM     15 CL   UNL     1       0.053 -11.223  -1.691  0.00  0.00    -0.082 Cl
ENDBRANCH   2   8
BRANCH   3  16
ATOM     16  C   UNL     1       4.658  -6.707  -3.923  0.00  0.00    +0.230 C 
ATOM     17  O   UNL     1       5.114  -7.774  -4.295  0.00  0.00    -0.283 OA
BRANCH  16  18
ATOM     18  C   UNL     1       4.167  -5.737  -4.906  0.00  0.00    +0.175 A 
ATOM     19  C   UNL     1       4.067  -5.939  -6.266  0.00  0.00    +0.053 A 
ATOM     20  C   UNL     1       3.551  -4.753  -6.809  0.00  0.00    +0.045 A 
ATOM     21  C   UNL     1       3.359  -3.894  -5.782  0.00  0.00    +0.103 A 
ATOM     22  O   UNL     1       3.725  -4.490  -4.641  0.00  0.00    -0.457 OA
ATOM     23  C   UNL     1       2.816  -2.493  -5.904  0.00  0.00    +0.086 C 
ENDBRANCH  16  18
ENDBRANCH   3  16
BRANCH   1  24
ATOM     24  C   UNL     1       2.955  -5.647   0.864  0.00  0.00    +0.107 C 
BRANCH  24  25
ATOM     25  C   UNL     1       2.663  -4.148   0.956  0.00  0.00    +0.000 C 
BRANCH  25  26
ATOM     26  C   UNL     1       1.769  -3.876   2.167  0.00  0.00    -0.077 C 
BRANCH  26  27
ATOM     27  N   UNL     1       1.489  -2.437   2.256  0.00  0.00    +0.380 N 
ATOM     28  H   UNL     1       2.358  -1.925   2.274  0.00  0.00    -0.082 HD
BRANCH  27  29
ATOM     29  C   UNL     1       0.700  -2.019   1.089  0.00  0.00    -0.079 C 
BRANCH  29  30
ATOM     30  C   UNL     1       0.528  -0.499   1.107  0.00  0.00    -0.019 C 
BRANCH  30  32
ATOM     31  C   UNL     1      -0.343   1.471  -0.160  0.00  0.00    +0.004 C 
ATOM     32  C   UNL     1      -0.171  -0.050  -0.177  0.00  0.00    -0.005 C 
ENDBRANCH  30  32
ENDBRANCH  29  30
ENDBRANCH  27  29
BRANCH  27  33
ATOM     33  C   UNL     1       0.732  -2.160   3.484  0.00  0.00    -0.079 C 
BRANCH  33  34
ATOM     34  C   UNL     1       1.608  -2.460   4.702  0.00  0.00    -0.019 C 
BRANCH  34  35
ATOM     35  C   UNL     1       0.871  -2.041   5.975  0.00  0.00    -0.005 C 
ATOM     36  C   UNL     1       1.747  -2.341   7.193  0.00  0.00    +0.004 C 
ENDBRANCH  34  35
ENDBRANCH  33  34
ENDBRANCH  27  33
ENDBRANCH  26  27
ENDBRANCH  25  26
ENDBRANCH  24  25
ENDBRANCH   1  24
TORSDOF 13
