REMARK  Name = ZINC52094423
REMARK  3 active torsions:
REMARK  status: ('A' for Active; 'I' for Inactive)
REMARK    1  A    between atoms: C_4  and  C_8
REMARK    2  A    between atoms: C_8  and  C_10
REMARK    3  A    between atoms: C_8  and  N_23
REMARK                            x       y       z     vdW  Elec       q    Type
REMARK                         _______ _______ _______ _____ _____    ______ ____
ROOT
ATOM      1  C   UNL     1       3.988  -1.281   1.328  0.00  0.00    -0.010 A 
ATOM      2  C   UNL     1       3.738  -2.616   1.576  0.00  0.00    +0.034 A 
ATOM      3  C   UNL     1       3.990  -3.144   2.833  0.00  0.00    +0.067 A 
ATOM      4  C   UNL     1       4.494  -2.323   3.844  0.00  0.00    +0.068 A 
ATOM      5  C   UNL     1       4.742  -0.984   3.587  0.00  0.00    +0.043 A 
ATOM      6  C   UNL     1       4.494  -0.468   2.329  0.00  0.00    +0.025 A 
ATOM      7 BR   UNL     1       4.839   1.357   1.974  0.00  0.00    -0.050 Br
ATOM      8  N   UNL     1       4.642  -3.122   4.975  0.00  0.00    -0.306 N 
ATOM      9  H   UNL     1       4.973  -2.828   5.838  0.00  0.00    +0.170 HD
ATOM     10  C   UNL     1       4.245  -4.371   4.667  0.00  0.00    +0.325 A 
ATOM     11  O   UNL     1       4.247  -5.316   5.434  0.00  0.00    -0.247 OA
ATOM     12  N   UNL     1       3.846  -4.416   3.382  0.00  0.00    -0.306 N 
ATOM     13  H   UNL     1       3.515  -5.201   2.918  0.00  0.00    +0.170 HD
ENDROOT
BRANCH   1  14
ATOM     14  C   UNL     1       3.715  -0.707  -0.038  0.00  0.00    +0.119 C 
BRANCH  14  18
ATOM     15  C   UNL     1      -0.017   1.378   0.010  0.00  0.00    +0.006 A 
ATOM     16  C   UNL     1       1.170   2.086   0.002  0.00  0.00    +0.039 A 
ATOM     17  C   UNL     1       2.379   1.412  -0.013  0.00  0.00    +0.131 A 
ATOM     18  C   UNL     1       2.399   0.028  -0.021  0.00  0.00    +0.044 A 
ATOM     19  C   UNL     1       1.210  -0.681  -0.013  0.00  0.00    +0.131 A 
ATOM     20  C   UNL     1       0.002  -0.004   0.002  0.00  0.00    +0.039 A 
ATOM     21  F   UNL     1       1.228  -2.031  -0.020  0.00  0.00    -0.205 F 
ATOM     22  F   UNL     1       3.539   2.104  -0.022  0.00  0.00    -0.205 F 
ENDBRANCH  14  18
BRANCH  14  23
ATOM     23  N   UNL     1       3.655  -1.796  -1.023  0.00  0.00    -0.320 NA
ATOM     24  H   UNL     1       4.545  -2.263  -1.100  0.00  0.00    +0.119 HD
ATOM     25  H   UNL     1       2.921  -2.450  -0.794  0.00  0.00    +0.119 HD
ENDBRANCH  14  23
ENDBRANCH   1  14
TORSDOF 3
