REMARK  Name = ZINC21233280
REMARK  6 active torsions:
REMARK  status: ('A' for Active; 'I' for Inactive)
REMARK    1  A    between atoms: C_1  and  C_2
REMARK    2  A    between atoms: C_2  and  C_3
REMARK    3  A    between atoms: C_2  and  O_4
REMARK    4  A    between atoms: O_4  and  C_5
REMARK    5  A    between atoms: C_8  and  C_11
REMARK    6  A    between atoms: C_16  and  C_26
REMARK                            x       y       z     vdW  Elec       q    Type
REMARK                         _______ _______ _______ _____ _____    ______ ____
ROOT
ATOM      1  C   UNL     1      -3.577   6.865   0.854  0.00  0.00    +0.032 C 
ATOM      2  C   UNL     1      -2.761   8.033   0.302  0.00  0.00    +0.059 C 
ATOM      3  C   UNL     1      -3.660   9.240   0.091  0.00  0.00    +0.017 C 
ATOM      4  C   UNL     1      -4.949   9.075  -0.251  0.00  0.00    +0.036 C 
ATOM      5  C   UNL     1      -5.951  10.181  -0.486  0.00  0.00    +0.136 C 
ATOM      6  N   UNL     1      -5.371  11.504  -0.573  0.00  0.00    -0.331 N 
ATOM      7  C   UNL     1      -4.733  12.080   0.522  0.00  0.00    +0.049 A 
ATOM      8  C   UNL     1      -5.261  13.190   1.164  0.00  0.00    +0.025 A 
ATOM      9  C   UNL     1      -4.639  13.682   2.297  0.00  0.00    +0.002 A 
ATOM     10  C   UNL     1      -3.497  13.075   2.790  0.00  0.00    +0.002 A 
ATOM     11  C   UNL     1      -2.953  11.982   2.138  0.00  0.00    +0.025 A 
ATOM     12  C   UNL     1      -3.564  11.501   0.994  0.00  0.00    +0.052 A 
ATOM     13  N   UNL     1      -3.045  10.438   0.262  0.00  0.00    -0.316 N 
ATOM     14  C   UNL     1      -5.486   7.776  -0.406  0.00  0.00    +0.163 C 
ATOM     15  O   UNL     1      -6.647   7.658  -0.744  0.00  0.00    -0.292 OA
ATOM     16  C   UNL     1      -4.673   6.539  -0.167  0.00  0.00    +0.088 C 
ATOM     17  H   UNL     1      -5.431  12.070  -1.514  0.00  0.00    +0.147 HD
ATOM     18  H   UNL     1      -2.062  10.623  -0.197  0.00  0.00    +0.152 HD
ENDROOT
BRANCH   5  19
ATOM     19  C   UNL     1      -6.949  10.170   0.643  0.00  0.00    -0.022 A 
ATOM     20  C   UNL     1      -8.289   9.956   0.378  0.00  0.00    +0.006 A 
ATOM     21  C   UNL     1      -9.205   9.945   1.413  0.00  0.00    +0.001 A 
ATOM     22  C   UNL     1      -8.782  10.148   2.714  0.00  0.00    +0.015 A 
ATOM     23  C   UNL     1      -7.441  10.361   2.979  0.00  0.00    +0.018 A 
ATOM     24  C   UNL     1      -6.524  10.367   1.943  0.00  0.00    +0.021 A 
ATOM     25 BR   UNL     1      -6.861  10.638   4.757  0.00  0.00    -0.050 Br
ENDBRANCH   5  19
BRANCH   1  29
ATOM     26  C   UNL     1      -1.050   3.463   1.405  0.00  0.00    +0.121 A 
ATOM     27  C   UNL     1      -1.168   4.045   0.151  0.00  0.00    +0.046 A 
ATOM     28  C   UNL     1      -1.989   5.142  -0.025  0.00  0.00    +0.007 A 
ATOM     29  C   UNL     1      -2.686   5.666   1.048  0.00  0.00    -0.043 A 
ATOM     30  C   UNL     1      -2.565   5.091   2.300  0.00  0.00    +0.007 A 
ATOM     31  C   UNL     1      -1.749   3.991   2.481  0.00  0.00    +0.046 A 
BRANCH  26  32
ATOM     32  O   UNL     1      -0.246   2.382   1.581  0.00  0.00    -0.489 OA
BRANCH  32  34
ATOM     33  C   UNL     1       1.254   1.159   3.029  0.00  0.00    +0.051 C 
ATOM     34  C   UNL     1      -0.074   1.911   2.919  0.00  0.00    +0.167 C 
ATOM     35  C   UNL     1      -1.225   0.970   3.280  0.00  0.00    +0.051 C 
ENDBRANCH  32  34
ENDBRANCH  26  32
ENDBRANCH   1  29
TORSDOF 4
