REMARK  Name = ZINC16779682
REMARK  8 active torsions:
REMARK  status: ('A' for Active; 'I' for Inactive)
REMARK    1  A    between atoms: C_1  and  C_2
REMARK    2  A    between atoms: C_5  and  S_8
REMARK    3  A    between atoms: S_8  and  N_11
REMARK    4  A    between atoms: N_11  and  C_12
REMARK    5  A    between atoms: C_14  and  N_20
REMARK    6  A    between atoms: C_15  and  O_19
REMARK    7  A    between atoms: C_21  and  C_30
REMARK    8  A    between atoms: C_22  and  C_29
REMARK                            x       y       z     vdW  Elec       q    Type
REMARK                         _______ _______ _______ _____ _____    ______ ____
ROOT
ATOM      1  C   UNL     1      -1.070  -0.239   2.413  0.00  0.00    +0.052 A 
ATOM      2  C   UNL     1      -0.865   0.238   3.700  0.00  0.00    +0.054 A 
ATOM      3  C   UNL     1      -1.950   0.504   4.521  0.00  0.00    +0.092 A 
ATOM      4  C   UNL     1      -3.243   0.280   4.057  0.00  0.00    +0.159 A 
ATOM      5  C   UNL     1      -3.444  -0.202   2.773  0.00  0.00    +0.086 A 
ATOM      6  C   UNL     1      -2.361  -0.461   1.952  0.00  0.00    +0.048 A 
ATOM      7 CL   UNL     1      -5.057  -0.481   2.194  0.00  0.00    -0.080 Cl
ENDROOT
BRANCH   3   8
ATOM      8  N   UNL     1      -1.745   0.992   5.820  0.00  0.00    -0.310 N 
ATOM      9  C   UNL     1      -1.592   0.214   6.938  0.00  0.00    +0.025 A 
ATOM     10  C   UNL     1      -1.411   0.994   8.016  0.00  0.00    -0.022 A 
ATOM     11  C   UNL     1      -1.460   2.384   7.554  0.00  0.00    +0.003 A 
ATOM     12  C   UNL     1      -1.672   2.325   6.164  0.00  0.00    +0.054 A 
ATOM     13  C   UNL     1      -1.765   3.507   5.438  0.00  0.00    +0.027 A 
ATOM     14  C   UNL     1      -1.649   4.718   6.085  0.00  0.00    +0.002 A 
ATOM     15  C   UNL     1      -1.439   4.771   7.456  0.00  0.00    +0.001 A 
ATOM     16  C   UNL     1      -1.345   3.621   8.188  0.00  0.00    +0.010 A 
ATOM     17  C   UNL     1      -1.202   0.528   9.433  0.00  0.00    +0.046 C 
ATOM     18  C   UNL     1      -1.620  -1.292   6.954  0.00  0.00    +0.064 C 
ENDBRANCH   3   8
BRANCH   1  19
ATOM     19  N   UNL     1       0.024  -0.502   1.581  0.00  0.00    -0.216 N 
ATOM     20  H   UNL     1       0.795  -0.976   1.930  0.00  0.00    +0.174 HD
BRANCH  19  21
ATOM     21  S   UNL     1       0.002  -0.004   0.002  0.00  0.00    +0.072 S 
ATOM     22  O   UNL     1      -1.243  -0.424  -0.539  0.00  0.00    -0.150 OA
ATOM     23  O   UNL     1       1.248  -0.390  -0.563  0.00  0.00    -0.150 OA
BRANCH  21  28
ATOM     24  C   UNL     1      -0.080   6.029   0.034  0.00  0.00    +0.044 C 
ATOM     25  C   UNL     1      -0.059   4.522   0.026  0.00  0.00    -0.050 A 
ATOM     26  C   UNL     1       1.147   3.847   0.012  0.00  0.00    +0.005 A 
ATOM     27  C   UNL     1       1.166   2.465   0.004  0.00  0.00    +0.029 A 
ATOM     28  C   UNL     1      -0.022   1.758   0.012  0.00  0.00    +0.109 A 
ATOM     29  C   UNL     1      -1.228   2.433   0.021  0.00  0.00    +0.029 A 
ATOM     30  C   UNL     1      -1.247   3.815   0.033  0.00  0.00    +0.005 A 
ENDBRANCH  21  28
ENDBRANCH  19  21
ENDBRANCH   1  19
BRANCH   4  31
ATOM     31  O   UNL     1      -4.310   0.535   4.863  0.00  0.00    -0.503 OA
ATOM     32  H   UNL     1      -4.585  -0.219   5.402  0.00  0.00    +0.292 HD
ENDBRANCH   4  31
TORSDOF 5
