REMARK  Name = ZINC29397683
REMARK  8 active torsions:
REMARK  status: ('A' for Active; 'I' for Inactive)
REMARK    1  A    between atoms: C_4  and  C_7
REMARK    2  A    between atoms: C_7  and  C_8
REMARK    3  A    between atoms: N_10  and  C_11
REMARK    4  A    between atoms: N_14  and  C_17
REMARK    5  A    between atoms: C_17  and  C_18
REMARK    6  A    between atoms: N_20  and  C_21
REMARK    7  A    between atoms: C_31  and  C_33
REMARK    8  A    between atoms: C_33  and  C_34
REMARK                            x       y       z     vdW  Elec       q    Type
REMARK                         _______ _______ _______ _____ _____    ______ ____
ROOT
ATOM      1  C   UNL     1       6.743  -5.468  -6.629  0.00  0.00    +0.197 C 
ATOM      2  O   UNL     1       6.025  -6.127  -5.907  0.00  0.00    -0.278 OA
ATOM      3  N   UNL     1       7.147  -5.966  -7.815  0.00  0.00    -0.313 N 
ATOM      4  H   UNL     1       7.798  -5.368  -8.469  0.00  0.00    +0.149 HD
ENDROOT
BRANCH   3   5
ATOM      5  C   UNL     1       6.719  -7.304  -8.231  0.00  0.00    +0.081 C 
ATOM      6  C   UNL     1       7.670  -8.355  -7.648  0.00  0.00    +0.027 C 
ATOM      7  C   UNL     1       9.105  -7.931  -7.959  0.00  0.00    +0.037 C 
ATOM      8  C   UNL     1       9.261  -7.622  -9.425  0.00  0.00    -0.041 A 
ATOM      9  C   UNL     1      10.548  -7.583  -9.944  0.00  0.00    +0.042 A 
ATOM     10  C   UNL     1      10.758  -7.292 -11.278  0.00  0.00    +0.124 A 
ATOM     11  C   UNL     1       9.677  -7.038 -12.104  0.00  0.00    +0.038 A 
ATOM     12  C   UNL     1       8.398  -7.079 -11.589  0.00  0.00    +0.007 A 
ATOM     13  C   UNL     1       8.185  -7.373 -10.248  0.00  0.00    -0.039 A 
ATOM     14  C   UNL     1       6.762  -7.406  -9.755  0.00  0.00    +0.044 C 
ATOM     15  F   UNL     1      12.014  -7.255 -11.774  0.00  0.00    -0.205 F 
BRANCH  14  16
ATOM     16  C   UNL     1       5.991  -6.233 -10.361  0.00  0.00    +0.046 C 
BRANCH  16  17
ATOM     17  C   UNL     1       4.531  -6.354 -10.006  0.00  0.00    -0.029 A 
ATOM     18  C   UNL     1       3.686  -7.145 -10.768  0.00  0.00    +0.006 A 
ATOM     19  C   UNL     1       2.352  -7.230 -10.401  0.00  0.00    +0.020 A 
ATOM     20  C   UNL     1       1.910  -6.521  -9.300  0.00  0.00    +0.111 A 
ATOM     21  N   UNL     1       2.741  -5.774  -8.601  0.00  0.00    -0.263 NA
ATOM     22  C   UNL     1       4.017  -5.673  -8.918  0.00  0.00    +0.114 A 
ENDBRANCH  16  17
ENDBRANCH  14  16
ENDBRANCH   3   5
BRANCH   1  23
ATOM     23  C   UNL     1       7.183  -4.092  -6.201  0.00  0.00    +0.019 C 
BRANCH  23  27
ATOM     24  C   UNL     1       5.170  -2.240  -2.914  0.00  0.00    +0.069 C 
ATOM     25  C   UNL     1       4.581  -3.506  -3.542  0.00  0.00    +0.003 C 
ATOM     26  C   UNL     1       5.150  -3.683  -4.952  0.00  0.00    -0.076 C 
ATOM     27  N   UNL     1       6.613  -3.784  -4.882  0.00  0.00    +0.385 N 
ATOM     28  C   UNL     1       7.204  -2.560  -4.326  0.00  0.00    -0.076 C 
ATOM     29  C   UNL     1       6.697  -2.351  -2.897  0.00  0.00    +0.003 C 
ATOM     30  H   UNL     1       6.859  -4.614  -4.203  0.00  0.00    -0.081 HD
BRANCH  24  33
ATOM     31  C   UNL     1       3.490  -1.497  -1.314  0.00  0.00    +0.218 C 
ATOM     32  O   UNL     1       2.834  -1.075  -2.242  0.00  0.00    -0.275 OA
ATOM     33  N   UNL     1       4.674  -2.098  -1.543  0.00  0.00    -0.312 N 
ATOM     34  H   UNL     1       5.269  -2.481  -0.701  0.00  0.00    +0.149 HD
BRANCH  31  35
ATOM     35  C   UNL     1       2.980  -1.351   0.097  0.00  0.00    +0.130 C 
BRANCH  35  39
ATOM     36  C   UNL     1      -0.803   0.634   0.044  0.00  0.00    +0.000 A 
ATOM     37  C   UNL     1       0.363   1.370   0.143  0.00  0.00    +0.000 A 
ATOM     38  C   UNL     1       1.587   0.728   0.160  0.00  0.00    +0.004 A 
ATOM     39  C   UNL     1       1.645  -0.651   0.079  0.00  0.00    -0.039 A 
ATOM     40  C   UNL     1       0.480  -1.387  -0.020  0.00  0.00    +0.004 A 
ATOM     41  C   UNL     1      -0.744  -0.745  -0.037  0.00  0.00    +0.000 A 
ENDBRANCH  35  39
ENDBRANCH  31  35
ENDBRANCH  24  33
ENDBRANCH  23  27
ENDBRANCH   1  23
TORSDOF 8
