REMARK  Name = ZINC38696377
REMARK  5 active torsions:
REMARK  status: ('A' for Active; 'I' for Inactive)
REMARK    1  A    between atoms: C_1  and  C_2
REMARK    2  A    between atoms: C_4  and  C_8
REMARK    3  A    between atoms: C_12  and  S_24
REMARK    4  A    between atoms: N_14  and  N_15
REMARK    5  A    between atoms: C_16  and  C_17
REMARK                            x       y       z     vdW  Elec       q    Type
REMARK                         _______ _______ _______ _____ _____    ______ ____
ROOT
ATOM      1  C   UNL     1      -0.976  -2.937  -1.266  0.00  0.00    +0.263 C 
ATOM      2  N   UNL     1      -0.355  -2.341  -2.450  0.00  0.00    -0.163 NA
ATOM      3  N   UNL     1       0.354  -3.146  -3.049  0.00  0.00    -0.155 NA
ATOM      4  C   UNL     1       0.361  -4.456  -2.396  0.00  0.00    +0.288 C 
ATOM      5  N   UNL     1      -0.514  -4.335  -1.215  0.00  0.00    -0.192 N 
ENDROOT
BRANCH   1   9
ATOM      6  C   UNL     1      -0.018   1.503   0.010  0.00  0.00    +0.067 C 
ATOM      7  C   UNL     1       0.002  -0.004   0.002  0.00  0.00    +0.058 C 
ATOM      8  C   UNL     1      -1.086  -0.777   0.003  0.00  0.00    +0.030 C 
ATOM      9  C   UNL     1      -0.531  -2.190  -0.007  0.00  0.00    +0.198 C 
ATOM     10  N   UNL     1       0.926  -1.973  -0.013  0.00  0.00    -0.176 NA
ATOM     11  N   UNL     1       1.125  -0.756  -0.013  0.00  0.00    -0.159 NA
ENDBRANCH   1   9
BRANCH   5  12
ATOM     12  N   UNL     1      -0.832  -5.317  -0.267  0.00  0.00    -0.187 NA
ATOM     13  C   UNL     1      -0.331  -6.509  -0.376  0.00  0.00    +0.139 C 
BRANCH  13  14
ATOM     14  C   UNL     1      -0.665  -7.543   0.622  0.00  0.00    +0.008 A 
ATOM     15  C   UNL     1      -0.123  -8.826   0.512  0.00  0.00    +0.010 A 
ATOM     16  C   UNL     1      -0.440  -9.788   1.448  0.00  0.00    +0.001 A 
ATOM     17  C   UNL     1      -1.293  -9.485   2.495  0.00  0.00    +0.001 A 
ATOM     18  C   UNL     1      -1.834  -8.217   2.611  0.00  0.00    +0.016 A 
ATOM     19  C   UNL     1      -1.521  -7.242   1.685  0.00  0.00    +0.027 A 
ATOM     20 BR   UNL     1      -2.255  -5.508   1.849  0.00  0.00    -0.050 Br
ENDBRANCH  13  14
ENDBRANCH   5  12
BRANCH   4  21
ATOM     21  S   UNL     1      -0.286  -5.719  -3.525  0.00  0.00    -0.130 S 
ATOM     22  H   UNL     1       0.573  -5.702  -4.560  0.00  0.00    +0.105 HD
ENDBRANCH   4  21
TORSDOF 4
