REMARK  Name = ZINC43741179
REMARK  9 active torsions:
REMARK  status: ('A' for Active; 'I' for Inactive)
REMARK    1  A    between atoms: C_1  and  C_2
REMARK    2  A    between atoms: C_19  and  C_21
REMARK    3  A    between atoms: C_21  and  N_22
REMARK    4  A    between atoms: N_22  and  C_23
REMARK    5  A    between atoms: C_23  and  C_25
REMARK    6  A    between atoms: C_23  and  C_32
REMARK    7  A    between atoms: C_25  and  C_26
REMARK    8  A    between atoms: C_37  and  C_39
REMARK    9  A    between atoms: C_37  and  C_40
REMARK                            x       y       z     vdW  Elec       q    Type
REMARK                         _______ _______ _______ _____ _____    ______ ____
ROOT
ATOM      1  N   UNL     1      -1.317  -6.504   0.881  0.00  0.00    +0.382 N 
ATOM      2  H   UNL     1      -1.456  -6.756  -0.086  0.00  0.00    -0.085 HD
ATOM      3  H   UNL     1      -0.372  -6.729   1.154  0.00  0.00    -0.085 HD
ENDROOT
BRANCH   1   4
ATOM      4  C   UNL     1      -1.546  -5.063   1.049  0.00  0.00    -0.067 C 
BRANCH   4  20
ATOM      5  C   UNL     1       0.034   1.148  -1.309  0.00  0.00    +0.012 C 
ATOM      6  C   UNL     1       0.054  -0.363  -1.072  0.00  0.00    -0.022 C 
ATOM      7  C   UNL     1       0.816  -1.042  -2.207  0.00  0.00    +0.007 C 
ATOM      8  C   UNL     1       2.210  -0.422  -2.331  0.00  0.00    +0.005 C 
ATOM      9  C   UNL     1       3.001  -0.673  -1.044  0.00  0.00    +0.030 C 
ATOM     10  C   UNL     1       2.190  -0.176   0.134  0.00  0.00    -0.073 C 
ATOM     11  C   UNL     1       2.709   0.643   1.015  0.00  0.00    +0.008 C 
ATOM     12  C   UNL     1       0.757  -0.658   0.260  0.00  0.00    +0.021 C 
ATOM     13  C   UNL     1       0.791  -2.171   0.467  0.00  0.00    +0.016 C 
ATOM     14  C   UNL     1      -0.621  -2.753   0.541  0.00  0.00    +0.042 C 
ATOM     15  C   UNL     1      -1.443  -2.338  -0.696  0.00  0.00    +0.181 C 
ATOM     16  C   UNL     1      -1.376  -0.882  -1.012  0.00  0.00    +0.052 C 
ATOM     17  O   UNL     1      -0.905  -3.148  -1.747  0.00  0.00    -0.461 OA
ATOM     18  C   UNL     1      -0.710  -4.387  -1.241  0.00  0.00    +0.309 C 
ATOM     19  O   UNL     1      -0.718  -5.414  -1.878  0.00  0.00    -0.251 OA
ATOM     20  C   UNL     1      -0.478  -4.284   0.279  0.00  0.00    +0.087 C 
ENDBRANCH   4  20
ENDBRANCH   1   4
BRANCH   1  21
ATOM     21  C   UNL     1      -2.261  -7.252   1.722  0.00  0.00    -0.064 C 
BRANCH  21  22
ATOM     22  C   UNL     1      -3.687  -7.018   1.220  0.00  0.00    -0.020 C 
ATOM     23  C   UNL     1      -4.679  -7.740   2.137  0.00  0.00    +0.030 C 
ATOM     24  C   UNL     1      -6.095  -7.566   1.583  0.00  0.00    +0.161 C 
ATOM     25  O   UNL     1      -6.148  -8.073   0.247  0.00  0.00    -0.374 OA
ATOM     26  C   UNL     1      -5.277  -7.404  -0.666  0.00  0.00    +0.064 C 
ATOM     27  C   UNL     1      -3.827  -7.569  -0.203  0.00  0.00    +0.036 C 
ATOM     28  C   UNL     1      -5.629  -5.915  -0.711  0.00  0.00    +0.041 C 
ATOM     29  C   UNL     1      -5.438  -8.009  -2.062  0.00  0.00    +0.041 C 
ENDBRANCH  21  22
BRANCH  21  30
ATOM     30  C   UNL     1      -1.935  -8.745   1.652  0.00  0.00    +0.019 C 
BRANCH  30  31
ATOM     31  C   UNL     1      -0.578  -8.991   2.260  0.00  0.00    -0.049 A 
ATOM     32  C   UNL     1       0.554  -8.937   1.469  0.00  0.00    +0.003 A 
ATOM     33  C   UNL     1       1.799  -9.163   2.026  0.00  0.00    +0.000 A 
ATOM     34  C   UNL     1       1.911  -9.443   3.376  0.00  0.00    +0.000 A 
ATOM     35  C   UNL     1       0.779  -9.496   4.167  0.00  0.00    +0.000 A 
ATOM     36  C   UNL     1      -0.465  -9.265   3.610  0.00  0.00    +0.003 A 
ENDBRANCH  30  31
ENDBRANCH  21  30
ENDBRANCH   1  21
TORSDOF 6
