REMARK  Name = ZINC63440173
REMARK  12 active torsions:
REMARK  status: ('A' for Active; 'I' for Inactive)
REMARK    1  A    between atoms: C_1  and  C_2
REMARK    2  A    between atoms: C_4  and  C_12
REMARK    3  A    between atoms: C_12  and  C_13
REMARK    4  A    between atoms: C_13  and  N_14
REMARK    5  A    between atoms: N_14  and  C_15
REMARK    6  A    between atoms: N_14  and  C_21
REMARK    7  A    between atoms: C_15  and  C_16
REMARK    8  A    between atoms: C_21  and  N_23
REMARK    9  A    between atoms: N_23  and  C_24
REMARK   10  A    between atoms: C_24  and  C_25
REMARK   11  A    between atoms: C_24  and  C_26
REMARK   12  A    between atoms: C_24  and  C_27
REMARK                            x       y       z     vdW  Elec       q    Type
REMARK                         _______ _______ _______ _____ _____    ______ ____
ROOT
ATOM      1  N   UNL     1       0.973  -0.707  -4.973  0.00  0.00    -0.308 N 
ENDROOT
BRANCH   1   2
ATOM      2  C   UNL     1       0.146  -1.563  -5.604  0.00  0.00    +0.134 C 
ATOM      3  S   UNL     1      -0.519  -2.894  -4.757  0.00  0.00    -0.019 S 
BRANCH   2   4
ATOM      4  N   UNL     1      -0.159  -1.371  -6.903  0.00  0.00    -0.322 N 
ATOM      5  H   UNL     1       0.156  -0.577  -7.363  0.00  0.00    +0.148 HD
BRANCH   4   6
ATOM      6  C   UNL     1      -0.966  -2.361  -7.620  0.00  0.00    +0.025 C 
ATOM      7  C   UNL     1      -2.354  -2.447  -6.982  0.00  0.00    +0.031 C 
ATOM      8  C   UNL     1      -1.103  -1.943  -9.086  0.00  0.00    +0.031 C 
ATOM      9  C   UNL     1      -0.283  -3.728  -7.542  0.00  0.00    +0.031 C 
ENDBRANCH   4   6
ENDBRANCH   2   4
ENDBRANCH   1   2
BRANCH   1  10
ATOM     10  C   UNL     1       1.304  -0.915  -3.561  0.00  0.00    +0.111 C 
BRANCH  10  11
ATOM     11  C   UNL     1       0.289  -0.179  -2.685  0.00  0.00    +0.052 C 
BRANCH  11  14
ATOM     12  C   UNL     1      -0.101   1.685  -0.061  0.00  0.00    +0.035 C 
ATOM     13  C   UNL     1      -0.113   0.156  -0.034  0.00  0.00    +0.103 C 
ATOM     14  C   UNL     1       0.629  -0.393  -1.233  0.00  0.00    -0.037 C 
ATOM     15  C   UNL     1       1.660  -1.115  -0.737  0.00  0.00    -0.001 A 
ATOM     16  C   UNL     1       2.731  -1.888  -1.377  0.00  0.00    +0.010 A 
ATOM     17  C   UNL     1       3.640  -2.518  -0.599  0.00  0.00    +0.001 A 
ATOM     18  C   UNL     1       3.585  -2.453   0.800  0.00  0.00    +0.002 A 
ATOM     19  C   UNL     1       2.631  -1.763   1.460  0.00  0.00    +0.026 A 
ATOM     20  C   UNL     1       1.623  -1.062   0.742  0.00  0.00    +0.043 A 
ATOM     21  N   UNL     1       0.608  -0.335   1.146  0.00  0.00    -0.378 N 
ATOM     22  H   UNL     1       0.373  -0.152   2.069  0.00  0.00    +0.160 HD
ENDBRANCH  11  14
ENDBRANCH  10  11
ENDBRANCH   1  10
BRANCH   1  23
ATOM     23  C   UNL     1       1.542   0.432  -5.698  0.00  0.00    +0.149 C 
BRANCH  23  24
ATOM     24  C   UNL     1       2.850   0.025  -6.325  0.00  0.00    +0.007 A 
ATOM     25  C   UNL     1       3.081  -0.499  -7.553  0.00  0.00    +0.013 A 
ATOM     26  C   UNL     1       4.380  -0.798  -7.921  0.00  0.00    +0.008 A 
ATOM     27  C   UNL     1       5.384  -0.558  -7.042  0.00  0.00    +0.045 A 
ATOM     28  S   UNL     1       4.499   0.117  -5.647  0.00  0.00    -0.100 S 
ENDBRANCH  23  24
ENDBRANCH   1  23
TORSDOF 8
