REMARK  Name = ZINC40035475
REMARK  10 active torsions:
REMARK  status: ('A' for Active; 'I' for Inactive)
REMARK    1  A    between atoms: C_1  and  C_2
REMARK    2  A    between atoms: C_2  and  C_3
REMARK    3  A    between atoms: C_3  and  C_38
REMARK    4  A    between atoms: N_15  and  C_31
REMARK    5  A    between atoms: N_18  and  N_19
REMARK    6  A    between atoms: C_20  and  C_21
REMARK    7  A    between atoms: C_24  and  O_27
REMARK    8  A    between atoms: O_27  and  C_28
REMARK    9  A    between atoms: C_28  and  C_29
REMARK   10  A    between atoms: C_34  and  C_37
REMARK                            x       y       z     vdW  Elec       q    Type
REMARK                         _______ _______ _______ _____ _____    ______ ____
ROOT
ATOM      1  C   UNL     1       1.139  -1.159   1.804  0.00  0.00    +0.004 C 
ATOM      2  C   UNL     1       0.982  -2.667   1.983  0.00  0.00    +0.047 C 
ATOM      3  C   UNL     1      -0.473  -3.051   1.983  0.00  0.00    -0.037 A 
ATOM      4  C   UNL     1      -0.881  -4.242   1.419  0.00  0.00    +0.004 A 
ATOM      5  C   UNL     1      -2.220  -4.589   1.427  0.00  0.00    +0.000 A 
ATOM      6  C   UNL     1      -3.159  -3.749   1.999  0.00  0.00    +0.001 A 
ATOM      7  C   UNL     1      -2.763  -2.553   2.565  0.00  0.00    +0.010 A 
ATOM      8  C   UNL     1      -1.417  -2.199   2.557  0.00  0.00    +0.004 A 
ATOM      9  C   UNL     1      -0.964  -0.919   3.148  0.00  0.00    +0.084 A 
ATOM     10  C   UNL     1       0.278  -0.417   2.786  0.00  0.00    +0.050 A 
ATOM     11  C   UNL     1       0.709   0.790   3.352  0.00  0.00    +0.264 A 
ATOM     12  O   UNL     1       1.796   1.262   3.059  0.00  0.00    -0.267 OA
ATOM     13  N   UNL     1      -0.103   1.420   4.228  0.00  0.00    -0.248 N 
ATOM     14  C   UNL     1      -1.318   0.885   4.545  0.00  0.00    +0.223 A 
ATOM     15  N   UNL     1      -1.728  -0.249   4.016  0.00  0.00    -0.214 NA
ATOM     16  N   UNL     1      -2.128   1.543   5.434  0.00  0.00    -0.206 N 
ATOM     17  C   UNL     1       2.603  -0.775   2.026  0.00  0.00    +0.016 C 
ATOM     18  H   UNL     1      -1.813   2.348   5.873  0.00  0.00    +0.177 HD
ENDROOT
BRANCH  13  19
ATOM     19  C   UNL     1       0.302   2.626   4.812  0.00  0.00    +0.053 A 
ATOM     20  C   UNL     1       0.984   2.618   6.022  0.00  0.00    +0.026 A 
ATOM     21  C   UNL     1       1.383   3.809   6.596  0.00  0.00    +0.005 A 
ATOM     22  C   UNL     1       1.105   5.009   5.967  0.00  0.00    -0.050 A 
ATOM     23  C   UNL     1       0.426   5.020   4.762  0.00  0.00    +0.005 A 
ATOM     24  C   UNL     1       0.029   3.832   4.180  0.00  0.00    +0.026 A 
ATOM     25  C   UNL     1       1.542   6.307   6.595  0.00  0.00    +0.044 C 
ENDBRANCH  13  19
BRANCH   1  27
ATOM     26  C   UNL     1       0.910   0.732   0.187  0.00  0.00    +0.005 C 
ATOM     27  C   UNL     1       0.728  -0.774   0.381  0.00  0.00    +0.008 C 
ENDBRANCH   1  27
BRANCH  16  28
ATOM     28  N   UNL     1      -3.412   1.053   5.706  0.00  0.00    -0.188 NA
ATOM     29  C   UNL     1      -4.179   1.676   6.547  0.00  0.00    +0.138 C 
BRANCH  29  30
ATOM     30  C   UNL     1      -5.530   1.160   6.834  0.00  0.00    -0.005 A 
ATOM     31  C   UNL     1      -5.984  -0.003   6.206  0.00  0.00    +0.013 A 
ATOM     32  C   UNL     1      -7.248  -0.481   6.477  0.00  0.00    +0.046 A 
ATOM     33  C   UNL     1      -8.070   0.190   7.373  0.00  0.00    +0.121 A 
ATOM     34  C   UNL     1      -7.622   1.346   8.000  0.00  0.00    +0.046 A 
ATOM     35  C   UNL     1      -6.358   1.829   7.739  0.00  0.00    +0.013 A 
BRANCH  33  36
ATOM     36  O   UNL     1      -9.315  -0.285   7.637  0.00  0.00    -0.488 OA
BRANCH  36  37
ATOM     37  C   UNL     1     -10.107   0.454   8.569  0.00  0.00    +0.256 C 
BRANCH  37  38
ATOM     38  C   UNL     1     -11.446  -0.218   8.734  0.00  0.00    +0.006 C 
ATOM     39  C   UNL     1     -11.952  -0.384   9.931  0.00  0.00    +0.007 C 
ENDBRANCH  37  38
ENDBRANCH  36  37
ENDBRANCH  33  36
ENDBRANCH  29  30
ENDBRANCH  16  28
TORSDOF 7
