REMARK  Name = ZINC40782283
REMARK  5 active torsions:
REMARK  status: ('A' for Active; 'I' for Inactive)
REMARK    1  A    between atoms: C_4  and  O_7
REMARK    2  A    between atoms: O_7  and  C_8
REMARK    3  A    between atoms: C_9  and  N_22
REMARK    4  A    between atoms: C_10  and  N_14
REMARK    5  A    between atoms: N_14  and  C_15
REMARK                            x       y       z     vdW  Elec       q    Type
REMARK                         _______ _______ _______ _____ _____    ______ ____
ROOT
ATOM      1  C   UNL     1       3.541  -1.985   0.351  0.00  0.00    +0.246 A 
ATOM      2  C   UNL     1       4.732  -2.708   0.302  0.00  0.00    +0.128 A 
ATOM      3  C   UNL     1       4.663  -4.100   0.403  0.00  0.00    +0.151 A 
ATOM      4  N   UNL     1       3.473  -4.678   0.541  0.00  0.00    -0.218 NA
ATOM      5  C   UNL     1       2.371  -3.957   0.584  0.00  0.00    +0.227 A 
ATOM      6  N   UNL     1       2.394  -2.642   0.497  0.00  0.00    -0.199 NA
ENDROOT
BRANCH   2   7
ATOM      7  N   UNL     1       5.965  -2.056   0.154  0.00  0.00    -0.351 N 
ATOM      8  H   UNL     1       5.998  -1.089   0.085  0.00  0.00    +0.143 HD
ATOM      9  H   UNL     1       6.786  -2.572   0.121  0.00  0.00    +0.143 HD
ENDBRANCH   2   7
BRANCH   3  10
ATOM     10  N   UNL     1       5.821  -4.869   0.359  0.00  0.00    -0.298 N 
ATOM     11  H   UNL     1       6.689  -4.438   0.333  0.00  0.00    +0.154 HD
BRANCH  10  12
ATOM     12  C   UNL     1       5.733  -6.264   0.351  0.00  0.00    +0.032 A 
ATOM     13  C   UNL     1       6.725  -7.027   0.953  0.00  0.00    +0.024 A 
ATOM     14  C   UNL     1       6.636  -8.405   0.944  0.00  0.00    +0.017 A 
ATOM     15  C   UNL     1       5.559  -9.026   0.336  0.00  0.00    +0.018 A 
ATOM     16  C   UNL     1       4.569  -8.269  -0.265  0.00  0.00    +0.017 A 
ATOM     17  C   UNL     1       4.651  -6.890  -0.254  0.00  0.00    +0.024 A 
ATOM     18 BR   UNL     1       5.441 -10.913   0.325  0.00  0.00    -0.050 Br
ENDBRANCH  10  12
ENDBRANCH   3  10
BRANCH   1  19
ATOM     19  O   UNL     1       3.553  -0.632   0.258  0.00  0.00    -0.436 OA
BRANCH  19  23
ATOM     20  C   UNL     1      -0.012   1.378   0.782  0.00  0.00    +0.000 A 
ATOM     21  C   UNL     1       0.621   0.801   1.867  0.00  0.00    +0.004 A 
ATOM     22  C   UNL     1       1.815   0.128   1.694  0.00  0.00    +0.046 A 
ATOM     23  C   UNL     1       2.378   0.030   0.430  0.00  0.00    +0.130 A 
ATOM     24  C   UNL     1       1.740   0.609  -0.658  0.00  0.00    +0.046 A 
ATOM     25  C   UNL     1       0.547   1.282  -0.479  0.00  0.00    +0.004 A 
ENDBRANCH  19  23
ENDBRANCH   1  19
TORSDOF 5
