REMARK  Name = ZINC39666286
REMARK  10 active torsions:
REMARK  status: ('A' for Active; 'I' for Inactive)
REMARK    1  A    between atoms: C_1  and  C_2
REMARK    2  A    between atoms: C_5  and  C_8
REMARK    3  A    between atoms: C_8  and  C_9
REMARK    4  A    between atoms: C_13  and  C_22
REMARK    5  A    between atoms: N_24  and  C_25
REMARK    6  A    between atoms: C_25  and  C_26
REMARK    7  A    between atoms: C_26  and  C_28
REMARK    8  A    between atoms: C_26  and  O_29
REMARK    9  A    between atoms: O_29  and  C_30
REMARK   10  A    between atoms: C_33  and  C_36
REMARK                            x       y       z     vdW  Elec       q    Type
REMARK                         _______ _______ _______ _____ _____    ______ ____
ROOT
ATOM      1  C   UNL     1       1.510  -4.748  -0.038  0.00  0.00    +0.220 C 
ATOM      2  O   UNL     1       2.418  -3.944  -0.046  0.00  0.00    -0.275 OA
ATOM      3  N   UNL     1       1.780  -6.069  -0.048  0.00  0.00    -0.300 N 
ATOM      4  C   UNL     1       0.815  -7.193  -0.047  0.00  0.00    +0.121 C 
ATOM      5  C   UNL     1       1.431  -8.237  -1.005  0.00  0.00    +0.100 C 
ATOM      6  C   UNL     1       2.937  -7.926  -1.009  0.00  0.00    -0.004 C 
ATOM      7  C   UNL     1       3.110  -6.724  -0.069  0.00  0.00    +0.115 C 
ATOM      8  C   UNL     1       3.396  -7.556  -2.417  0.00  0.00    -0.010 C 
ATOM      9  C   UNL     1       4.907  -7.307  -2.406  0.00  0.00    -0.082 C 
ATOM     10  N   UNL     1       5.601  -8.515  -1.944  0.00  0.00    +0.379 N 
ATOM     11  C   UNL     1       5.223  -8.810  -0.557  0.00  0.00    -0.082 C 
ATOM     12  C   UNL     1       3.726  -9.123  -0.489  0.00  0.00    -0.010 C 
ATOM     13  H   UNL     1       5.347  -9.293  -2.534  0.00  0.00    -0.086 HD
ATOM     14  H   UNL     1       6.598  -8.369  -1.996  0.00  0.00    -0.086 HD
ENDROOT
BRANCH   5  15
ATOM     15  C   UNL     1       0.857  -8.082  -2.390  0.00  0.00    +0.218 C 
ATOM     16  O   UNL     1       0.414  -7.010  -2.746  0.00  0.00    -0.275 OA
ATOM     17  N   UNL     1       0.834  -9.134  -3.232  0.00  0.00    -0.312 N 
ATOM     18  H   UNL     1       1.188  -9.991  -2.947  0.00  0.00    +0.149 HD
BRANCH  17  19
ATOM     19  C   UNL     1       0.276  -8.983  -4.578  0.00  0.00    +0.148 C 
BRANCH  19  20
ATOM     20  C   UNL     1       0.372 -10.316  -5.322  0.00  0.00    +0.187 C 
ATOM     21  C   UNL     1      -0.211 -10.159  -6.728  0.00  0.00    +0.053 C 
BRANCH  20  22
ATOM     22  O   UNL     1       1.742 -10.712  -5.416  0.00  0.00    -0.488 OA
BRANCH  22  23
ATOM     23  C   UNL     1       1.992 -12.041  -5.554  0.00  0.00    +0.121 A 
ATOM     24  C   UNL     1       3.298 -12.508  -5.532  0.00  0.00    +0.046 A 
ATOM     25  C   UNL     1       3.550 -13.859  -5.672  0.00  0.00    +0.007 A 
ATOM     26  C   UNL     1       2.501 -14.745  -5.835  0.00  0.00    -0.050 A 
ATOM     27  C   UNL     1       1.198 -14.282  -5.858  0.00  0.00    +0.007 A 
ATOM     28  C   UNL     1       0.941 -12.933  -5.712  0.00  0.00    +0.046 A 
ATOM     29  C   UNL     1       2.778 -16.219  -5.989  0.00  0.00    +0.044 C 
ENDBRANCH  22  23
ENDBRANCH  20  22
ENDBRANCH  19  20
ENDBRANCH  17  19
ENDBRANCH   5  15
BRANCH   1  30
ATOM     30  C   UNL     1       0.081  -4.271  -0.017  0.00  0.00    +0.131 C 
BRANCH  30  35
ATOM     31  C   UNL     1      -0.025   1.506   0.011  0.00  0.00    +0.044 C 
ATOM     32  C   UNL     1       0.003  -0.000   0.004  0.00  0.00    -0.050 A 
ATOM     33  C   UNL     1       0.001  -0.686  -1.196  0.00  0.00    +0.003 A 
ATOM     34  C   UNL     1       0.026  -2.068  -1.203  0.00  0.00    +0.004 A 
ATOM     35  C   UNL     1       0.054  -2.764  -0.010  0.00  0.00    -0.039 A 
ATOM     36  C   UNL     1       0.057  -2.079   1.191  0.00  0.00    +0.004 A 
ATOM     37  C   UNL     1       0.036  -0.697   1.198  0.00  0.00    +0.003 A 
ENDBRANCH  30  35
ENDBRANCH   1  30
TORSDOF 7
