REMARK  Name = ZINC40317923
REMARK  14 active torsions:
REMARK  status: ('A' for Active; 'I' for Inactive)
REMARK    1  A    between atoms: C_1  and  C_2
REMARK    2  A    between atoms: C_2  and  C_3
REMARK    3  A    between atoms: C_2  and  C_4
REMARK    4  A    between atoms: C_2  and  C_5
REMARK    5  A    between atoms: C_8  and  C_11
REMARK    6  A    between atoms: C_11  and  N_12
REMARK    7  A    between atoms: N_12  and  C_13
REMARK    8  A    between atoms: N_12  and  C_19
REMARK    9  A    between atoms: C_13  and  C_14
REMARK   10  A    between atoms: C_19  and  C_20
REMARK   11  A    between atoms: C_20  and  C_22
REMARK   12  A    between atoms: C_20  and  O_32
REMARK   13  A    between atoms: C_22  and  O_23
REMARK   14  A    between atoms: O_23  and  C_24
REMARK                            x       y       z     vdW  Elec       q    Type
REMARK                         _______ _______ _______ _____ _____    ______ ____
ROOT
ATOM      1  N   UNL     1       2.935  -0.747  -5.925  0.00  0.00    +0.389 N 
ATOM      2  H   UNL     1       3.493   0.093  -5.889  0.00  0.00    -0.081 HD
ENDROOT
BRANCH   1   3
ATOM      3  C   UNL     1       2.750  -1.270  -4.565  0.00  0.00    -0.042 C 
BRANCH   3   7
ATOM      4  C   UNL     1       6.557  -1.715  -2.679  0.00  0.00    -0.042 A 
ATOM      5  C   UNL     1       5.901  -0.499  -2.633  0.00  0.00    +0.004 A 
ATOM      6  C   UNL     1       4.669  -0.355  -3.243  0.00  0.00    +0.002 A 
ATOM      7  C   UNL     1       4.093  -1.427  -3.900  0.00  0.00    -0.064 A 
ATOM      8  C   UNL     1       4.750  -2.643  -3.947  0.00  0.00    +0.002 A 
ATOM      9  C   UNL     1       5.984  -2.785  -3.340  0.00  0.00    +0.004 A 
BRANCH   4  11
ATOM     10  C   UNL     1       8.969  -2.130  -3.076  0.00  0.00    +0.015 C 
ATOM     11  C   UNL     1       7.900  -1.872  -2.013  0.00  0.00    -0.013 C 
ATOM     12  C   UNL     1       7.852  -3.053  -1.041  0.00  0.00    +0.015 C 
ATOM     13  C   UNL     1       8.241  -0.593  -1.246  0.00  0.00    +0.015 C 
ENDBRANCH   4  11
ENDBRANCH   3   7
ENDBRANCH   1   3
BRANCH   1  14
ATOM     14  C   UNL     1       1.624  -0.441  -6.514  0.00  0.00    -0.003 C 
BRANCH  14  15
ATOM     15  C   UNL     1       0.911   0.570  -5.653  0.00  0.00    +0.089 A 
ATOM     16  C   UNL     1       0.936   1.905  -5.823  0.00  0.00    +0.042 A 
ATOM     17  C   UNL     1       0.136   2.462  -4.799  0.00  0.00    +0.041 A 
ATOM     18  C   UNL     1      -0.330   1.435  -4.065  0.00  0.00    +0.195 A 
ATOM     19  O   UNL     1       0.139   0.292  -4.591  0.00  0.00    -0.470 OA
ENDBRANCH  14  15
ENDBRANCH   1  14
BRANCH   1  20
ATOM     20  C   UNL     1       3.618  -1.754  -6.748  0.00  0.00    -0.043 C 
BRANCH  20  21
ATOM     21  C   UNL     1       4.002  -1.137  -8.094  0.00  0.00    +0.135 C 
BRANCH  21  22
ATOM     22  O   UNL     1       2.821  -0.878  -8.854  0.00  0.00    -0.390 OA
ATOM     23  H   UNL     1       2.293  -1.667  -9.043  0.00  0.00    +0.210 HD
ENDBRANCH  21  22
BRANCH  21  24
ATOM     24  C   UNL     1       4.901  -2.109  -8.862  0.00  0.00    +0.258 C 
BRANCH  24  25
ATOM     25  O   UNL     1       5.354  -1.487 -10.066  0.00  0.00    -0.488 OA
BRANCH  25  26
ATOM     26  C   UNL     1       6.169  -2.221 -10.871  0.00  0.00    +0.139 A 
ATOM     27  C   UNL     1       6.519  -3.514 -10.511  0.00  0.00    +0.048 A 
ATOM     28  C   UNL     1       7.346  -4.258 -11.330  0.00  0.00    +0.023 A 
ATOM     29  C   UNL     1       7.827  -3.714 -12.508  0.00  0.00    +0.043 A 
ATOM     30  C   UNL     1       7.479  -2.425 -12.869  0.00  0.00    +0.043 A 
ATOM     31  C   UNL     1       6.647  -1.679 -12.056  0.00  0.00    +0.084 A 
ATOM     32 CL   UNL     1       6.205  -0.063 -12.513  0.00  0.00    -0.080 Cl
ATOM     33 CL   UNL     1       8.867  -4.652 -13.534  0.00  0.00    -0.083 Cl
ENDBRANCH  25  26
ENDBRANCH  24  25
ENDBRANCH  21  24
ENDBRANCH  20  21
ENDBRANCH   1  20
TORSDOF 11
