REMARK  Name = ZINC50309445
REMARK  7 active torsions:
REMARK  status: ('A' for Active; 'I' for Inactive)
REMARK    1  A    between atoms: C_1  and  O_2
REMARK    2  A    between atoms: O_2  and  C_3
REMARK    3  A    between atoms: C_5  and  C_11
REMARK    4  A    between atoms: C_7  and  O_9
REMARK    5  A    between atoms: O_9  and  C_10
REMARK    6  A    between atoms: C_12  and  N_21
REMARK    7  A    between atoms: C_14  and  C_16
REMARK                            x       y       z     vdW  Elec       q    Type
REMARK                         _______ _______ _______ _____ _____    ______ ____
ROOT
ATOM      1  C   UNL     1       1.329  -4.085  -2.295  0.00  0.00    +0.100 A 
ATOM      2  C   UNL     1       1.247  -4.722  -3.514  0.00  0.00    +0.091 A 
ATOM      3  S   UNL     1       1.365  -6.430  -2.999  0.00  0.00    -0.057 S 
ATOM      4  C   UNL     1       1.510  -6.125  -1.244  0.00  0.00    +0.084 A 
ATOM      5  N   UNL     1       1.464  -4.814  -1.197  0.00  0.00    -0.242 NA
ENDROOT
BRANCH   1   8
ATOM      6  C   UNL     1       0.606  -0.607  -1.056  0.00  0.00    +0.124 A 
ATOM      7  C   UNL     1       0.655  -1.990  -1.128  0.00  0.00    +0.056 A 
ATOM      8  C   UNL     1       1.274  -2.607  -2.214  0.00  0.00    +0.010 A 
ATOM      9  C   UNL     1       1.843  -1.830  -3.223  0.00  0.00    +0.056 A 
ATOM     10  C   UNL     1       1.790  -0.449  -3.143  0.00  0.00    +0.124 A 
ATOM     11  C   UNL     1       1.167   0.163  -2.064  0.00  0.00    +0.091 A 
BRANCH   6  13
ATOM     12  C   UNL     1      -0.017   1.425   0.010  0.00  0.00    +0.277 C 
ATOM     13  O   UNL     1       0.002  -0.004   0.002  0.00  0.00    -0.495 OA
ENDBRANCH   6  13
BRANCH  10  14
ATOM     14  O   UNL     1       2.344   0.310  -4.126  0.00  0.00    -0.495 OA
ATOM     15  C   UNL     1       2.253   1.728  -3.980  0.00  0.00    +0.277 C 
ENDBRANCH  10  14
ENDBRANCH   1   8
BRANCH   4  16
ATOM     16  C   UNL     1       1.653  -7.113  -0.114  0.00  0.00    +0.045 C 
ATOM     17  C   UNL     1       2.894  -8.001  -0.342  0.00  0.00    +0.010 C 
ATOM     18  C   UNL     1       2.459  -9.398   0.165  0.00  0.00    +0.001 C 
ATOM     19  C   UNL     1       0.982  -9.484  -0.292  0.00  0.00    +0.001 C 
ATOM     20  C   UNL     1       0.437  -8.056  -0.082  0.00  0.00    +0.010 C 
ENDBRANCH   4  16
BRANCH   2  21
ATOM     21  N   UNL     1       1.109  -4.185  -4.790  0.00  0.00    -0.351 N 
ATOM     22  H   UNL     1       1.057  -3.224  -4.909  0.00  0.00    +0.143 HD
ATOM     23  H   UNL     1       1.065  -4.772  -5.561  0.00  0.00    +0.143 HD
ENDBRANCH   2  21
TORSDOF 5
