REMARK  Name = ZINC13498665
REMARK  16 active torsions:
REMARK  status: ('A' for Active; 'I' for Inactive)
REMARK    1  A    between atoms: C_1  and  C_2
REMARK    2  A    between atoms: C_5  and  C_8
REMARK    3  A    between atoms: C_8  and  N_9
REMARK    4  A    between atoms: N_9  and  C_10
REMARK    5  A    between atoms: N_9  and  C_25
REMARK    6  A    between atoms: C_10  and  C_11
REMARK    7  A    between atoms: C_15  and  O_23
REMARK    8  A    between atoms: O_23  and  C_24
REMARK    9  A    between atoms: C_25  and  C_27
REMARK   10  A    between atoms: C_25  and  C_36
REMARK   11  A    between atoms: N_31  and  C_32
REMARK   12  A    between atoms: C_32  and  C_33
REMARK   13  A    between atoms: C_33  and  O_34
REMARK   14  A    between atoms: O_34  and  C_35
REMARK   15  A    between atoms: C_36  and  C_37
REMARK   16  A    between atoms: C_36  and  C_38
REMARK                            x       y       z     vdW  Elec       q    Type
REMARK                         _______ _______ _______ _____ _____    ______ ____
ROOT
ATOM      1  N   UNL     1       1.690  -4.070   0.278  0.00  0.00    -0.284 NA
ENDROOT
BRANCH   1   2
ATOM      2  C   UNL     1       0.265  -3.766   0.467  0.00  0.00    +0.120 C 
BRANCH   2   7
ATOM      3  C   UNL     1      -0.475   1.963   0.651  0.00  0.00    +0.044 C 
ATOM      4  C   UNL     1      -0.282   0.469   0.603  0.00  0.00    -0.050 A 
ATOM      5  C   UNL     1      -0.507  -0.220  -0.574  0.00  0.00    +0.003 A 
ATOM      6  C   UNL     1      -0.330  -1.590  -0.618  0.00  0.00    +0.005 A 
ATOM      7  C   UNL     1       0.073  -2.272   0.515  0.00  0.00    -0.033 A 
ATOM      8  C   UNL     1       0.299  -1.583   1.692  0.00  0.00    +0.005 A 
ATOM      9  C   UNL     1       0.126  -0.212   1.735  0.00  0.00    +0.003 A 
ENDBRANCH   2   7
ENDBRANCH   1   2
BRANCH   1  10
ATOM     10  C   UNL     1       1.992  -5.449   0.686  0.00  0.00    +0.126 C 
BRANCH  10  11
ATOM     11  C   UNL     1       1.789  -5.588   2.173  0.00  0.00    +0.031 A 
ATOM     12  C   UNL     1       0.609  -6.053   2.653  0.00  0.00    +0.020 A 
ATOM     13  C   UNL     1       0.444  -6.178   4.103  0.00  0.00    +0.002 A 
ATOM     14  C   UNL     1      -0.751  -6.652   4.655  0.00  0.00    +0.055 A 
ATOM     15  C   UNL     1      -0.873  -6.757   6.026  0.00  0.00    +0.121 A 
ATOM     16  C   UNL     1       0.185  -6.394   6.856  0.00  0.00    +0.047 A 
ATOM     17  C   UNL     1       1.366  -5.926   6.324  0.00  0.00    +0.030 A 
ATOM     18  C   UNL     1       1.510  -5.812   4.945  0.00  0.00    +0.049 A 
ATOM     19  N   UNL     1       2.686  -5.345   4.392  0.00  0.00    -0.322 N 
ATOM     20  H   UNL     1       3.420  -5.094   4.974  0.00  0.00    +0.169 HD
ATOM     21  C   UNL     1       2.830  -5.240   3.060  0.00  0.00    +0.254 A 
ATOM     22  O   UNL     1       3.884  -4.829   2.607  0.00  0.00    -0.268 OA
BRANCH  15  23
ATOM     23  O   UNL     1      -2.031  -7.217   6.568  0.00  0.00    -0.495 OA
ATOM     24  C   UNL     1      -2.092  -7.301   7.994  0.00  0.00    +0.277 C 
ENDBRANCH  15  23
ENDBRANCH  10  11
ENDBRANCH   1  10
BRANCH   1  25
ATOM     25  C   UNL     1       2.099  -3.831  -1.112  0.00  0.00    +0.130 C 
BRANCH  25  26
ATOM     26  C   UNL     1       2.196  -2.347  -1.359  0.00  0.00    +0.169 A 
ATOM     27  N   UNL     1       2.559  -1.432  -0.493  0.00  0.00    -0.112 NA
ATOM     28  N   UNL     1       2.515  -0.287  -1.083  0.00  0.00    -0.023 NA
ATOM     29  N   UNL     1       2.135  -0.449  -2.302  0.00  0.00    -0.044 NA
ATOM     30  N   UNL     1       1.933  -1.705  -2.512  0.00  0.00    -0.226 N 
BRANCH  30  31
ATOM     31  C   UNL     1       1.497  -2.318  -3.769  0.00  0.00    +0.175 C 
BRANCH  31  32
ATOM     32  C   UNL     1      -0.027  -2.233  -3.876  0.00  0.00    +0.183 C 
BRANCH  32  33
ATOM     33  O   UNL     1      -0.443  -2.712  -5.157  0.00  0.00    -0.381 OA
ATOM     34  C   UNL     1      -1.857  -2.676  -5.360  0.00  0.00    +0.194 C 
ENDBRANCH  32  33
ENDBRANCH  31  32
ENDBRANCH  30  31
ENDBRANCH  25  26
BRANCH  25  35
ATOM     35  C   UNL     1       3.462  -4.479  -1.361  0.00  0.00    +0.008 C 
ATOM     36  C   UNL     1       3.889  -4.230  -2.809  0.00  0.00    +0.009 C 
ATOM     37  C   UNL     1       4.497  -3.871  -0.412  0.00  0.00    +0.009 C 
ENDBRANCH  25  35
ENDBRANCH   1  25
TORSDOF 11
