REMARK  Name = ZINC40899585
REMARK  11 active torsions:
REMARK  status: ('A' for Active; 'I' for Inactive)
REMARK    1  A    between atoms: C_1  and  C_2
REMARK    2  A    between atoms: C_4  and  C_25
REMARK    3  A    between atoms: C_6  and  N_8
REMARK    4  A    between atoms: N_8  and  C_9
REMARK    5  A    between atoms: C_9  and  N_11
REMARK    6  A    between atoms: C_12  and  C_14
REMARK    7  A    between atoms: C_14  and  O_15
REMARK    8  A    between atoms: O_15  and  C_16
REMARK    9  A    between atoms: C_21  and  C_22
REMARK   10  A    between atoms: C_22  and  C_23
REMARK   11  A    between atoms: C_22  and  C_24
REMARK                            x       y       z     vdW  Elec       q    Type
REMARK                         _______ _______ _______ _____ _____    ______ ____
ROOT
ATOM      1  N   UNL     1       0.268  -2.819   4.717  0.00  0.00    -0.265 N 
ATOM      2  C   UNL     1       0.366  -2.156   5.886  0.00  0.00    +0.256 C 
ATOM      3  O   UNL     1       0.350  -0.944   5.899  0.00  0.00    -0.272 OA
ATOM      4  H   UNL     1       0.281  -3.789   4.706  0.00  0.00    +0.157 HD
ENDROOT
BRANCH   1   5
ATOM      5  C   UNL     1       0.151  -2.134   3.562  0.00  0.00    +0.141 C 
ATOM      6  S   UNL     1       0.128  -0.423   3.580  0.00  0.00    -0.018 S 
BRANCH   5   7
ATOM      7  N   UNL     1       0.053  -2.797   2.392  0.00  0.00    -0.297 N 
ATOM      8  H   UNL     1      -0.015  -3.765   2.387  0.00  0.00    +0.154 HD
BRANCH   7  14
ATOM      9  C   UNL     1       1.853   0.833  -0.391  0.00  0.00    +0.044 C 
ATOM     10  C   UNL     1       0.910  -0.325  -0.191  0.00  0.00    -0.048 A 
ATOM     11  C   UNL     1       0.039  -0.690  -1.201  0.00  0.00    +0.006 A 
ATOM     12  C   UNL     1      -0.827  -1.753  -1.021  0.00  0.00    -0.048 A 
ATOM     13  C   UNL     1      -0.825  -2.453   0.169  0.00  0.00    +0.026 A 
ATOM     14  C   UNL     1       0.048  -2.090   1.186  0.00  0.00    +0.033 A 
ATOM     15  C   UNL     1       0.920  -1.025   1.000  0.00  0.00    +0.026 A 
ATOM     16  C   UNL     1      -1.775  -2.147  -2.125  0.00  0.00    +0.044 C 
ENDBRANCH   7  14
ENDBRANCH   5   7
ENDBRANCH   1   5
BRANCH   2  17
ATOM     17  C   UNL     1       0.497  -2.922   7.177  0.00  0.00    +0.325 C 
BRANCH  17  18
ATOM     18  O   UNL     1       0.585  -2.004   8.269  0.00  0.00    -0.482 OA
BRANCH  18  19
ATOM     19  C   UNL     1       0.708  -2.535   9.514  0.00  0.00    +0.125 A 
ATOM     20  C   UNL     1       0.749  -3.912   9.681  0.00  0.00    +0.046 A 
ATOM     21  C   UNL     1       0.874  -4.449  10.947  0.00  0.00    +0.004 A 
ATOM     22  C   UNL     1       0.958  -3.616  12.048  0.00  0.00    +0.001 A 
ATOM     23  C   UNL     1       0.917  -2.244  11.884  0.00  0.00    +0.007 A 
ATOM     24  C   UNL     1       0.798  -1.701  10.619  0.00  0.00    -0.003 A 
BRANCH  24  25
ATOM     25  C   UNL     1       0.759  -0.205  10.440  0.00  0.00    +0.016 C 
ATOM     26  C   UNL     1      -0.433   0.369  11.208  0.00  0.00    +0.012 C 
ATOM     27  C   UNL     1       2.055   0.406  10.978  0.00  0.00    +0.012 C 
ENDBRANCH  24  25
ENDBRANCH  18  19
ENDBRANCH  17  18
ENDBRANCH   2  17
TORSDOF 7
