REMARK  Name = ZINC20466298
REMARK  9 active torsions:
REMARK  status: ('A' for Active; 'I' for Inactive)
REMARK    1  A    between atoms: C_1  and  C_2
REMARK    2  A    between atoms: C_4  and  N_31
REMARK    3  A    between atoms: C_8  and  C_30
REMARK    4  A    between atoms: C_11  and  O_29
REMARK    5  A    between atoms: C_13  and  C_17
REMARK    6  A    between atoms: C_17  and  C_19
REMARK    7  A    between atoms: C_17  and  C_20
REMARK    8  A    between atoms: C_25  and  C_28
REMARK    9  A    between atoms: C_32  and  C_34
REMARK                            x       y       z     vdW  Elec       q    Type
REMARK                         _______ _______ _______ _____ _____    ______ ____
ROOT
ATOM      1  C   UNL     1      -1.638   0.437   1.623  0.00  0.00    +0.010 C 
ATOM      2  C   UNL     1      -1.535  -0.947   2.267  0.00  0.00    +0.012 C 
ATOM      3  C   UNL     1      -2.619  -1.093   3.338  0.00  0.00    +0.076 C 
ATOM      4  C   UNL     1      -2.516  -2.477   3.982  0.00  0.00    +0.023 C 
ATOM      5  C   UNL     1      -1.138  -2.639   4.626  0.00  0.00    +0.009 C 
ATOM      6  C   UNL     1      -0.055  -2.494   3.555  0.00  0.00    -0.027 C 
ATOM      7  C   UNL     1      -0.157  -1.110   2.910  0.00  0.00    +0.028 C 
ATOM      8  C   UNL     1       0.926  -0.965   1.840  0.00  0.00    +0.122 C 
ATOM      9  C   UNL     1       2.305  -1.127   2.483  0.00  0.00    +0.029 C 
ATOM     10  C   UNL     1       2.407  -2.511   3.127  0.00  0.00    +0.007 C 
ATOM     11  C   UNL     1       1.324  -2.656   4.198  0.00  0.00    +0.007 C 
ATOM     12  C   UNL     1      -0.248  -3.570   2.485  0.00  0.00    +0.011 C 
ENDROOT
BRANCH   3  13
ATOM     13  N   UNL     1      -3.938  -0.937   2.722  0.00  0.00    -0.308 N 
ATOM     14  C   UNL     1      -4.985  -0.526   3.465  0.00  0.00    +0.244 C 
ATOM     15  O   UNL     1      -4.833  -0.284   4.647  0.00  0.00    -0.270 OA
ATOM     16  H   UNL     1      -4.059  -1.130   1.779  0.00  0.00    +0.149 HD
BRANCH  14  17
ATOM     17  C   UNL     1      -6.317  -0.369   2.843  0.00  0.00    +0.037 A 
ATOM     18  C   UNL     1      -6.495  -0.651   1.488  0.00  0.00    +0.013 A 
ATOM     19  C   UNL     1      -7.741  -0.503   0.914  0.00  0.00    +0.001 A 
ATOM     20  C   UNL     1      -8.812  -0.075   1.679  0.00  0.00    +0.000 A 
ATOM     21  C   UNL     1      -8.642   0.206   3.022  0.00  0.00    +0.001 A 
ATOM     22  C   UNL     1      -7.403   0.057   3.610  0.00  0.00    +0.013 A 
ENDBRANCH  14  17
ENDBRANCH   3  13
BRANCH   9  23
ATOM     23  C   UNL     1       2.498  -0.051   3.553  0.00  0.00    +0.078 C 
ATOM     24  C   UNL     1       2.486   1.331   2.896  0.00  0.00    +0.017 C 
BRANCH  23  25
ATOM     25  C   UNL     1       3.818  -0.265   4.248  0.00  0.00    +0.219 C 
ATOM     26  O   UNL     1       4.684  -0.927   3.715  0.00  0.00    -0.275 OA
ATOM     27  N   UNL     1       4.037   0.280   5.461  0.00  0.00    -0.301 N 
ATOM     28  C   UNL     1       2.982   1.043   6.141  0.00  0.00    +0.108 C 
ATOM     29  C   UNL     1       3.537   2.418   6.526  0.00  0.00    +0.022 C 
ATOM     30  C   UNL     1       4.812   2.235   7.352  0.00  0.00    -0.011 C 
ATOM     31  C   UNL     1       5.865   1.506   6.515  0.00  0.00    +0.022 C 
ATOM     32  C   UNL     1       5.334   0.116   6.132  0.00  0.00    +0.108 C 
ATOM     33  C   UNL     1       5.351   3.606   7.768  0.00  0.00    +0.007 C 
ENDBRANCH  23  25
ENDBRANCH   9  23
BRANCH   8  34
ATOM     34  O   UNL     1       0.831   0.328   1.238  0.00  0.00    -0.391 OA
ATOM     35  H   UNL     1       1.489   0.490   0.548  0.00  0.00    +0.210 HD
ENDBRANCH   8  34
TORSDOF 5
