REMARK  Name = ZINC09603346
REMARK  5 active torsions:
REMARK  status: ('A' for Active; 'I' for Inactive)
REMARK    1  A    between atoms: C_1  and  C_2
REMARK    2  A    between atoms: C_2  and  C_4
REMARK    3  A    between atoms: C_2  and  S_14
REMARK    4  A    between atoms: N_6  and  C_7
REMARK    5  A    between atoms: S_14  and  C_15
REMARK                            x       y       z     vdW  Elec       q    Type
REMARK                         _______ _______ _______ _____ _____    ______ ____
ROOT
ATOM      1  C   UNL     1       2.223  -4.634  -1.723  0.00  0.00    +0.029 C 
ATOM      2  C   UNL     1       2.421  -4.239  -0.258  0.00  0.00    +0.137 C 
ENDROOT
BRANCH   2   3
ATOM      3  C   UNL     1       2.407  -2.737  -0.137  0.00  0.00    +0.230 C 
ATOM      4  O   UNL     1       3.450  -2.118  -0.144  0.00  0.00    -0.274 OA
ATOM      5  N   UNL     1       1.236  -2.081  -0.021  0.00  0.00    -0.285 N 
ATOM      6  H   UNL     1       0.407  -2.579   0.062  0.00  0.00    +0.155 HD
BRANCH   5   7
ATOM      7  C   UNL     1       1.214  -0.681  -0.019  0.00  0.00    +0.034 A 
ATOM      8  C   UNL     1       2.137   0.029  -0.774  0.00  0.00    +0.026 A 
ATOM      9  C   UNL     1       2.114   1.410  -0.772  0.00  0.00    +0.040 A 
ATOM     10  C   UNL     1       1.170   2.087  -0.017  0.00  0.00    +0.124 A 
ATOM     11  C   UNL     1       0.248   1.380   0.737  0.00  0.00    +0.040 A 
ATOM     12  C   UNL     1       0.269  -0.001   0.737  0.00  0.00    +0.026 A 
ATOM     13  F   UNL     1       1.149   3.437  -0.016  0.00  0.00    -0.205 F 
ENDBRANCH   5   7
ENDBRANCH   2   3
BRANCH   2  14
ATOM     14  S   UNL     1       4.011  -4.876   0.329  0.00  0.00    -0.073 S 
BRANCH  14  15
ATOM     15  C   UNL     1       3.704  -6.608   0.222  0.00  0.00    +0.192 A 
ATOM     16  N   UNL     1       4.657  -7.462   0.576  0.00  0.00    -0.207 NA
ATOM     17  C   UNL     1       4.485  -8.771   0.517  0.00  0.00    +0.129 A 
ATOM     18  C   UNL     1       3.240  -9.291   0.062  0.00  0.00    +0.047 A 
ATOM     19  C   UNL     1       2.812 -10.671  -0.089  0.00  0.00    +0.021 A 
ATOM     20  C   UNL     1       1.576 -10.927  -0.542  0.00  0.00    +0.048 A 
ATOM     21  S   UNL     1       0.884  -9.304  -0.803  0.00  0.00    -0.077 S 
ATOM     22  C   UNL     1       2.274  -8.326  -0.297  0.00  0.00    +0.114 A 
ATOM     23  N   UNL     1       2.523  -7.035  -0.205  0.00  0.00    -0.215 NA
ATOM     24  N   UNL     1       5.503  -9.628   0.896  0.00  0.00    -0.343 N 
ATOM     25  H   UNL     1       6.349  -9.268   1.205  0.00  0.00    +0.144 HD
ATOM     26  H   UNL     1       5.371 -10.588   0.851  0.00  0.00    +0.144 HD
ENDBRANCH  14  15
ENDBRANCH   2  14
TORSDOF 4
