REMARK  Name = ZINC66130857
REMARK  5 active torsions:
REMARK  status: ('A' for Active; 'I' for Inactive)
REMARK    1  A    between atoms: C_4  and  C_7
REMARK    2  A    between atoms: C_7  and  C_8
REMARK    3  A    between atoms: C_8  and  N_9
REMARK    4  A    between atoms: C_10  and  C_21
REMARK    5  A    between atoms: C_25  and  N_27
REMARK                            x       y       z     vdW  Elec       q    Type
REMARK                         _______ _______ _______ _____ _____    ______ ____
ROOT
ATOM      1  N   UNL     1       5.450  -1.678   1.382  0.00  0.00    -0.275 N 
ATOM      2  C   UNL     1       5.454  -3.141   1.369  0.00  0.00    +0.193 C 
ATOM      3  N   UNL     1       6.631  -3.640   0.647  0.00  0.00    -0.321 N 
ATOM      4  C   UNL     1       7.864  -3.049   0.898  0.00  0.00    +0.041 A 
ATOM      5  C   UNL     1       9.051  -3.753   0.785  0.00  0.00    +0.024 A 
ATOM      6  C   UNL     1      10.249  -3.119   1.050  0.00  0.00    +0.002 A 
ATOM      7  C   UNL     1      10.273  -1.785   1.428  0.00  0.00    +0.001 A 
ATOM      8  C   UNL     1       9.099  -1.069   1.544  0.00  0.00    +0.015 A 
ATOM      9  C   UNL     1       7.884  -1.696   1.279  0.00  0.00    +0.058 A 
ATOM     10  C   UNL     1       6.602  -0.976   1.373  0.00  0.00    +0.250 C 
ATOM     11  O   UNL     1       6.582   0.238   1.447  0.00  0.00    -0.270 OA
ATOM     12  H   UNL     1       6.550  -4.366   0.008  0.00  0.00    +0.148 HD
ENDROOT
BRANCH   2  13
ATOM     13  C   UNL     1       5.488  -3.653   2.786  0.00  0.00    -0.007 A 
ATOM     14  C   UNL     1       4.905  -2.917   3.800  0.00  0.00    +0.008 A 
ATOM     15  C   UNL     1       4.936  -3.386   5.100  0.00  0.00    +0.022 A 
ATOM     16  C   UNL     1       5.550  -4.592   5.386  0.00  0.00    +0.071 A 
ATOM     17  C   UNL     1       6.133  -5.328   4.370  0.00  0.00    +0.145 A 
ATOM     18  C   UNL     1       6.097  -4.861   3.069  0.00  0.00    +0.041 A 
ATOM     19 CL   UNL     1       5.589  -5.182   7.018  0.00  0.00    -0.081 Cl
BRANCH  17  20
ATOM     20  N   UNL     1       6.790  -6.619   4.674  0.00  0.00    +0.058 N 
ATOM     21  O   UNL     1       7.300  -7.262   3.787  0.00  0.00    -0.126 OA
ATOM     22  O   UNL     1       6.817  -7.030   5.811  0.00  0.00    -0.126 OA
ENDBRANCH  17  20
ENDBRANCH   2  13
BRANCH   1  23
ATOM     23  C   UNL     1       4.171  -0.963   1.399  0.00  0.00    +0.115 C 
BRANCH  23  24
ATOM     24  C   UNL     1       3.711  -0.707  -0.038  0.00  0.00    +0.054 C 
BRANCH  24  28
ATOM     25  C   UNL     1      -0.017   1.378   0.010  0.00  0.00    +0.000 A 
ATOM     26  C   UNL     1       1.171   2.086   0.002  0.00  0.00    +0.000 A 
ATOM     27  C   UNL     1       2.377   1.411  -0.013  0.00  0.00    +0.004 A 
ATOM     28  C   UNL     1       2.396   0.029  -0.020  0.00  0.00    -0.046 A 
ATOM     29  C   UNL     1       1.208  -0.679  -0.012  0.00  0.00    +0.004 A 
ATOM     30  C   UNL     1       0.002  -0.004   0.002  0.00  0.00    +0.000 A 
ENDBRANCH  24  28
ENDBRANCH  23  24
ENDBRANCH   1  23
TORSDOF 5
