REMARK  Name = ZINC19292812
REMARK  5 active torsions:
REMARK  status: ('A' for Active; 'I' for Inactive)
REMARK    1  A    between atoms: C_6  and  C_7
REMARK    2  A    between atoms: C_7  and  C_9
REMARK    3  A    between atoms: C_7  and  O_28
REMARK    4  A    between atoms: C_9  and  N_10
REMARK    5  A    between atoms: C_17  and  O_27
REMARK                            x       y       z     vdW  Elec       q    Type
REMARK                         _______ _______ _______ _____ _____    ______ ____
ROOT
ATOM      1  N   UNL     1      -0.037   1.201   2.506  0.00  0.00    +0.382 N 
ATOM      2  C   UNL     1       1.397   1.506   2.422  0.00  0.00    -0.075 C 
ATOM      3  C   UNL     1       2.107   0.969   3.668  0.00  0.00    +0.029 C 
ATOM      4  C   UNL     1       1.499   1.614   4.914  0.00  0.00    +0.110 C 
ATOM      5  C   UNL     1      -0.003   1.324   4.954  0.00  0.00    +0.029 C 
ATOM      6  C   UNL     1      -0.652   1.850   3.671  0.00  0.00    -0.075 C 
ATOM      7  C   UNL     1       2.167   1.034   6.165  0.00  0.00    +0.084 C 
ATOM      8  C   UNL     1       3.680   1.241   6.040  0.00  0.00    +0.152 C 
ATOM      9  C   UNL     1       3.963   2.671   5.651  0.00  0.00    +0.025 A 
ATOM     10  C   UNL     1       5.238   3.175   5.851  0.00  0.00    +0.048 A 
ATOM     11  C   UNL     1       5.533   4.481   5.505  0.00  0.00    +0.124 A 
ATOM     12  C   UNL     1       4.551   5.290   4.959  0.00  0.00    +0.042 A 
ATOM     13  C   UNL     1       3.280   4.791   4.758  0.00  0.00    +0.049 A 
ATOM     14  C   UNL     1       2.982   3.476   5.103  0.00  0.00    +0.127 A 
ATOM     15  O   UNL     1       1.718   3.023   4.891  0.00  0.00    -0.485 OA
ATOM     16  F   UNL     1       6.778   4.967   5.701  0.00  0.00    -0.205 F 
ATOM     17  H   UNL     1      -0.141   0.114   2.636  0.00  0.00    -0.082 HD
ENDROOT
BRANCH   8  18
ATOM     18  O   UNL     1       4.304   0.956   7.293  0.00  0.00    -0.387 OA
ATOM     19  H   UNL     1       5.395   1.051   7.398  0.00  0.00    +0.210 HD
ENDBRANCH   8  18
BRANCH   1  20
ATOM     20  C   UNL     1      -0.729   1.579   1.267  0.00  0.00    -0.042 C 
BRANCH  20  21
ATOM     21  C   UNL     1      -2.152   1.017   1.285  0.00  0.00    +0.128 C 
BRANCH  21  27
ATOM     22  C   UNL     1      -2.698   0.611  -1.123  0.00  0.00    +0.007 A 
ATOM     23  C   UNL     1      -3.348   0.951  -2.295  0.00  0.00    +0.022 A 
ATOM     24  C   UNL     1      -4.148   2.078  -2.341  0.00  0.00    +0.059 A 
ATOM     25  C   UNL     1      -4.302   2.863  -1.210  0.00  0.00    +0.060 A 
ATOM     26  C   UNL     1      -3.656   2.518  -0.037  0.00  0.00    +0.027 A 
ATOM     27  C   UNL     1      -2.856   1.391   0.007  0.00  0.00    -0.019 A 
ATOM     28 CL   UNL     1      -5.307   4.278  -1.265  0.00  0.00    -0.082 Cl
ATOM     29 CL   UNL     1      -4.959   2.509  -3.814  0.00  0.00    -0.082 Cl
ENDBRANCH  21  27
BRANCH  21  30
ATOM     30  O   UNL     1      -2.100  -0.406   1.401  0.00  0.00    -0.389 OA
ATOM     31  H   UNL     1      -1.620  -0.870   2.275  0.00  0.00    +0.210 HD
ENDBRANCH  21  30
ENDBRANCH  20  21
ENDBRANCH   1  20
TORSDOF 5
