REMARK  Name = ZINC10042577
REMARK  14 active torsions:
REMARK  status: ('A' for Active; 'I' for Inactive)
REMARK    1  A    between atoms: C_1  and  C_2
REMARK    2  A    between atoms: C_2  and  C_3
REMARK    3  A    between atoms: C_2  and  C_4
REMARK    4  A    between atoms: C_4  and  C_6
REMARK    5  A    between atoms: C_4  and  N_28
REMARK    6  A    between atoms: N_8  and  N_9
REMARK    7  A    between atoms: C_10  and  C_11
REMARK    8  A    between atoms: C_14  and  C_16
REMARK    9  A    between atoms: C_21  and  C_22
REMARK   10  A    between atoms: C_22  and  O_24
REMARK   11  A    between atoms: O_24  and  C_25
REMARK   12  A    between atoms: C_25  and  C_26
REMARK   13  A    between atoms: C_25  and  C_27
REMARK   14  A    between atoms: C_29  and  C_31
REMARK                            x       y       z     vdW  Elec       q    Type
REMARK                         _______ _______ _______ _____ _____    ______ ____
ROOT
ATOM      1  C   UNL     1      -0.930   5.399   3.803  0.00  0.00    +0.253 C 
ATOM      2  O   UNL     1       0.179   5.181   4.244  0.00  0.00    -0.272 OA
ATOM      3  N   UNL     1      -1.258   4.981   2.564  0.00  0.00    -0.205 N 
ATOM      4  H   UNL     1      -0.636   4.437   2.056  0.00  0.00    +0.177 HD
ENDROOT
BRANCH   3   5
ATOM      5  N   UNL     1      -2.495   5.333   2.011  0.00  0.00    -0.185 NA
ATOM      6  C   UNL     1      -2.860   4.837   0.864  0.00  0.00    +0.176 C 
BRANCH   6   7
ATOM      7  C   UNL     1      -2.051   3.796   0.226  0.00  0.00    +0.148 A 
ATOM      8  C   UNL     1      -2.261   3.263  -1.028  0.00  0.00    +0.051 A 
ATOM      9  C   UNL     1      -1.258   2.309  -1.235  0.00  0.00    +0.050 A 
ATOM     10  C   UNL     1      -0.486   2.288  -0.109  0.00  0.00    +0.137 A 
ATOM     11  O   UNL     1      -0.973   3.192   0.763  0.00  0.00    -0.454 OA
BRANCH  10  12
ATOM     12  C   UNL     1       0.688   1.427   0.112  0.00  0.00    +0.031 A 
ATOM     13  C   UNL     1       0.567   0.038   0.026  0.00  0.00    +0.012 A 
ATOM     14  C   UNL     1       1.670  -0.763   0.228  0.00  0.00    +0.001 A 
ATOM     15  C   UNL     1       2.905  -0.201   0.517  0.00  0.00    +0.001 A 
ATOM     16  C   UNL     1       3.047   1.167   0.607  0.00  0.00    +0.016 A 
ATOM     17  C   UNL     1       1.944   1.998   0.406  0.00  0.00    +0.070 A 
BRANCH  17  18
ATOM     18  C   UNL     1       2.090   3.461   0.501  0.00  0.00    +0.340 C 
ATOM     19  O   UNL     1       1.114   4.177   0.388  0.00  0.00    -0.245 OA
BRANCH  18  20
ATOM     20  O   UNL     1       3.305   4.005   0.712  0.00  0.00    -0.458 OA
BRANCH  20  21
ATOM     21  C   UNL     1       3.359   5.443   0.905  0.00  0.00    +0.171 C 
ATOM     22  C   UNL     1       3.102   5.770   2.377  0.00  0.00    +0.052 C 
ATOM     23  C   UNL     1       4.741   5.960   0.501  0.00  0.00    +0.052 C 
ENDBRANCH  20  21
ENDBRANCH  18  20
ENDBRANCH  17  18
ENDBRANCH  10  12
ENDBRANCH   6   7
ENDBRANCH   3   5
BRANCH   1  24
ATOM     24  C   UNL     1      -1.942   6.138   4.641  0.00  0.00    +0.163 C 
BRANCH  24  25
ATOM     25  N   UNL     1      -1.250   6.902   5.682  0.00  0.00    -0.300 N 
ATOM     26  C   UNL     1      -1.831   7.995   6.214  0.00  0.00    +0.245 C 
ATOM     27  O   UNL     1      -2.929   8.347   5.831  0.00  0.00    -0.270 OA
ATOM     28  H   UNL     1      -0.373   6.621   5.987  0.00  0.00    +0.150 HD
BRANCH  26  29
ATOM     29  C   UNL     1      -1.132   8.766   7.264  0.00  0.00    +0.037 A 
ATOM     30  C   UNL     1       0.127   8.361   7.710  0.00  0.00    +0.014 A 
ATOM     31  C   UNL     1       0.777   9.088   8.685  0.00  0.00    +0.021 A 
ATOM     32  C   UNL     1       0.177  10.211   9.231  0.00  0.00    +0.041 A 
ATOM     33  C   UNL     1      -1.075  10.614   8.797  0.00  0.00    +0.021 A 
ATOM     34  C   UNL     1      -1.732   9.899   7.817  0.00  0.00    +0.014 A 
ATOM     35 CL   UNL     1       0.998  11.117  10.464  0.00  0.00    -0.084 Cl
ENDBRANCH  26  29
ENDBRANCH  24  25
BRANCH  24  37
ATOM     36  C   UNL     1      -3.687   4.403   4.208  0.00  0.00    +0.009 C 
ATOM     37  C   UNL     1      -2.894   5.134   5.294  0.00  0.00    +0.012 C 
ATOM     38  C   UNL     1      -2.086   4.119   6.106  0.00  0.00    +0.009 C 
ENDBRANCH  24  37
ENDBRANCH   1  24
TORSDOF 10
