REMARK  Name = ZINC17147731
REMARK  4 active torsions:
REMARK  status: ('A' for Active; 'I' for Inactive)
REMARK    1  A    between atoms: C_4  and  C_7
REMARK    2  A    between atoms: C_8  and  C_9
REMARK    3  A    between atoms: C_16  and  C_21
REMARK    4  A    between atoms: C_22  and  C_23
REMARK                            x       y       z     vdW  Elec       q    Type
REMARK                         _______ _______ _______ _____ _____    ______ ____
ROOT
ATOM      1  C   UNL     1       5.033  -2.743  -0.063  0.00  0.00    +0.205 C 
ATOM      2  N   UNL     1       5.142  -3.632   1.106  0.00  0.00    -0.203 N 
ATOM      3  N   UNL     1       5.262  -4.929   0.587  0.00  0.00    -0.203 N 
ATOM      4  C   UNL     1       5.236  -4.898  -0.753  0.00  0.00    +0.153 C 
ATOM      5  S   UNL     1       5.357  -6.286  -1.747  0.00  0.00    -0.017 S 
ATOM      6  N   UNL     1       5.104  -3.643  -1.223  0.00  0.00    -0.302 N 
ATOM      7  C   UNL     1       5.371  -5.819   1.755  0.00  0.00    +0.205 C 
ATOM      8  N   UNL     1       5.301  -4.916   2.914  0.00  0.00    -0.302 N 
ATOM      9  C   UNL     1       5.168  -3.663   2.445  0.00  0.00    +0.153 C 
ATOM     10  S   UNL     1       5.047  -2.275   3.440  0.00  0.00    -0.017 S 
ATOM     11  H   UNL     1       5.063  -3.380  -2.156  0.00  0.00    +0.150 HD
ATOM     12  H   UNL     1       5.343  -5.177   3.847  0.00  0.00    +0.150 HD
ENDROOT
BRANCH   1  14
ATOM     13  C   UNL     1       3.695  -0.685  -0.038  0.00  0.00    +0.007 C 
ATOM     14  C   UNL     1       3.716  -2.010  -0.045  0.00  0.00    +0.017 C 
BRANCH  13  18
ATOM     15  C   UNL     1      -0.017   1.379   0.010  0.00  0.00    +0.000 A 
ATOM     16  C   UNL     1       1.168   2.093   0.002  0.00  0.00    +0.001 A 
ATOM     17  C   UNL     1       2.377   1.429  -0.013  0.00  0.00    +0.008 A 
ATOM     18  C   UNL     1       2.403   0.034  -0.021  0.00  0.00    -0.025 A 
ATOM     19  C   UNL     1       1.204  -0.681  -0.013  0.00  0.00    +0.008 A 
ATOM     20  C   UNL     1       0.002  -0.004   0.002  0.00  0.00    +0.001 A 
ENDBRANCH  13  18
ENDBRANCH   1  14
BRANCH   7  21
ATOM     21  C   UNL     1       6.687  -6.553   1.736  0.00  0.00    +0.017 C 
ATOM     22  C   UNL     1       6.706  -7.878   1.696  0.00  0.00    +0.007 C 
BRANCH  22  23
ATOM     23  C   UNL     1       7.996  -8.599   1.677  0.00  0.00    -0.025 A 
ATOM     24  C   UNL     1       9.197  -7.887   1.708  0.00  0.00    +0.008 A 
ATOM     25  C   UNL     1      10.398  -8.566   1.691  0.00  0.00    +0.001 A 
ATOM     26  C   UNL     1      10.414  -9.948   1.643  0.00  0.00    +0.000 A 
ATOM     27  C   UNL     1       9.228 -10.659   1.612  0.00  0.00    +0.001 A 
ATOM     28  C   UNL     1       8.020  -9.993   1.634  0.00  0.00    +0.008 A 
ENDBRANCH  22  23
ENDBRANCH   7  21
TORSDOF 4
