REMARK  Name = ZINC08333262
REMARK  10 active torsions:
REMARK  status: ('A' for Active; 'I' for Inactive)
REMARK    1  A    between atoms: C_1  and  C_2
REMARK    2  A    between atoms: C_4  and  C_24
REMARK    3  A    between atoms: C_5  and  C_9
REMARK    4  A    between atoms: C_6  and  C_8
REMARK    5  A    between atoms: N_10  and  N_11
REMARK    6  A    between atoms: C_12  and  C_14
REMARK    7  A    between atoms: C_14  and  S_15
REMARK    8  A    between atoms: S_15  and  C_16
REMARK    9  A    between atoms: C_18  and  C_23
REMARK   10  A    between atoms: C_20  and  C_22
REMARK                            x       y       z     vdW  Elec       q    Type
REMARK                         _______ _______ _______ _____ _____    ______ ____
ROOT
ATOM      1  N   UNL     1      -1.068  -0.775  -0.765  0.00  0.00    -0.206 N 
ATOM      2  C   UNL     1      -1.025  -2.122  -0.786  0.00  0.00    +0.242 C 
ATOM      3  O   UNL     1       0.026  -2.698  -0.595  0.00  0.00    -0.273 OA
ATOM      4  H   UNL     1      -1.908  -0.315  -0.918  0.00  0.00    +0.177 HD
ENDROOT
BRANCH   1   6
ATOM      5  C   UNL     1       0.058   1.256  -0.502  0.00  0.00    +0.138 C 
ATOM      6  N   UNL     1       0.100  -0.040  -0.522  0.00  0.00    -0.188 NA
BRANCH   5  11
ATOM      7  C   UNL     1       4.852   4.274   0.493  0.00  0.00    +0.044 C 
ATOM      8  C   UNL     1       3.596   3.483   0.232  0.00  0.00    -0.050 A 
ATOM      9  C   UNL     1       2.425   4.141  -0.103  0.00  0.00    +0.007 A 
ATOM     10  C   UNL     1       1.272   3.424  -0.343  0.00  0.00    -0.041 A 
ATOM     11  C   UNL     1       1.287   2.030  -0.247  0.00  0.00    +0.000 A 
ATOM     12  C   UNL     1       2.471   1.373   0.097  0.00  0.00    -0.041 A 
ATOM     13  C   UNL     1       3.618   2.103   0.329  0.00  0.00    +0.007 A 
ATOM     14  C   UNL     1       2.496  -0.129   0.209  0.00  0.00    +0.044 C 
ATOM     15  C   UNL     1      -0.002   4.142  -0.708  0.00  0.00    +0.044 C 
ENDBRANCH   5  11
ENDBRANCH   1   6
BRANCH   2  16
ATOM     16  C   UNL     1      -2.281  -2.913  -1.046  0.00  0.00    +0.174 C 
BRANCH  16  17
ATOM     17  S   UNL     1      -1.899  -4.682  -1.011  0.00  0.00    -0.077 S 
BRANCH  17  18
ATOM     18  C   UNL     1      -3.498  -5.347  -1.335  0.00  0.00    +0.189 A 
ATOM     19  N   UNL     1      -4.519  -4.520  -1.510  0.00  0.00    -0.227 NA
ATOM     20  C   UNL     1      -5.731  -4.987  -1.760  0.00  0.00    +0.043 A 
ATOM     21  C   UNL     1      -5.928  -6.357  -1.828  0.00  0.00    +0.046 A 
ATOM     22  C   UNL     1      -4.839  -7.193  -1.635  0.00  0.00    +0.043 A 
ATOM     23  N   UNL     1      -3.652  -6.662  -1.394  0.00  0.00    -0.227 NA
ATOM     24  C   UNL     1      -5.006  -8.690  -1.701  0.00  0.00    +0.066 C 
ATOM     25  C   UNL     1      -6.886  -4.040  -1.963  0.00  0.00    +0.066 C 
ENDBRANCH  17  18
ENDBRANCH  16  17
ENDBRANCH   2  16
TORSDOF 5
