REMARK  Name = ZINC02221491
REMARK  7 active torsions:
REMARK  status: ('A' for Active; 'I' for Inactive)
REMARK    1  A    between atoms: C_1  and  C_2
REMARK    2  A    between atoms: C_5  and  N_8
REMARK    3  A    between atoms: C_9  and  C_11
REMARK    4  A    between atoms: C_11  and  S_12
REMARK    5  A    between atoms: S_12  and  C_13
REMARK    6  A    between atoms: C_20  and  S_22
REMARK    7  A    between atoms: S_22  and  C_23
REMARK                            x       y       z     vdW  Elec       q    Type
REMARK                         _______ _______ _______ _____ _____    ______ ____
ROOT
ATOM      1  C   UNL     1       3.864  -6.549  -0.522  0.00  0.00    +0.110 A 
ATOM      2  C   UNL     1       4.964  -7.442  -0.660  0.00  0.00    +0.043 A 
ATOM      3  C   UNL     1       6.394  -7.130  -0.707  0.00  0.00    -0.025 A 
ATOM      4  C   UNL     1       7.243  -8.169  -0.836  0.00  0.00    -0.004 A 
ATOM      5  S   UNL     1       6.208  -9.607  -0.896  0.00  0.00    -0.073 S 
ATOM      6  C   UNL     1       4.631  -8.808  -0.746  0.00  0.00    +0.114 A 
ATOM      7  N   UNL     1       3.378  -9.217  -0.710  0.00  0.00    -0.215 NA
ATOM      8  C   UNL     1       2.391  -8.340  -0.586  0.00  0.00    +0.190 A 
ATOM      9  N   UNL     1       2.635  -7.038  -0.494  0.00  0.00    -0.215 NA
ATOM     10  C   UNL     1       8.739  -8.116  -0.913  0.00  0.00    +0.043 C 
ATOM     11  C   UNL     1       9.158  -6.666  -1.194  0.00  0.00    +0.005 C 
ATOM     12  C   UNL     1       8.400  -5.741  -0.238  0.00  0.00    +0.005 C 
ATOM     13  C   UNL     1       6.920  -5.700  -0.619  0.00  0.00    +0.037 C 
ENDROOT
BRANCH   8  14
ATOM     14  S   UNL     1       0.725  -8.913  -0.541  0.00  0.00    -0.089 S 
ATOM     15  C   UNL     1      -0.145  -7.335  -0.366  0.00  0.00    +0.093 C 
ENDBRANCH   8  14
BRANCH   1  16
ATOM     16  S   UNL     1       4.135  -4.812  -0.398  0.00  0.00    -0.096 S 
BRANCH  16  17
ATOM     17  C   UNL     1       2.425  -4.236  -0.258  0.00  0.00    +0.171 C 
BRANCH  17  19
ATOM     18  N   UNL     1       1.237  -2.079  -0.020  0.00  0.00    -0.285 N 
ATOM     19  C   UNL     1       2.410  -2.734  -0.137  0.00  0.00    +0.227 C 
ATOM     20  O   UNL     1       3.452  -2.114  -0.144  0.00  0.00    -0.275 OA
ATOM     21  H   UNL     1       0.409  -2.578   0.062  0.00  0.00    +0.155 HD
BRANCH  18  26
ATOM     22  C   UNL     1       1.143   3.593  -0.015  0.00  0.00    +0.044 C 
ATOM     23  C   UNL     1       1.168   2.086  -0.017  0.00  0.00    -0.050 A 
ATOM     24  C   UNL     1       2.111   1.412  -0.771  0.00  0.00    +0.005 A 
ATOM     25  C   UNL     1       2.137   0.031  -0.774  0.00  0.00    +0.023 A 
ATOM     26  C   UNL     1       1.214  -0.680  -0.019  0.00  0.00    +0.033 A 
ATOM     27  C   UNL     1       0.268  -0.001   0.737  0.00  0.00    +0.023 A 
ATOM     28  C   UNL     1       0.248   1.380   0.736  0.00  0.00    +0.005 A 
ENDBRANCH  18  26
ENDBRANCH  17  19
ENDBRANCH  16  17
ENDBRANCH   1  16
TORSDOF 5
