REMARK  Name = ZINC08958860
REMARK  6 active torsions:
REMARK  status: ('A' for Active; 'I' for Inactive)
REMARK    1  A    between atoms: C_1  and  C_2
REMARK    2  A    between atoms: C_2  and  O_3
REMARK    3  A    between atoms: O_3  and  C_4
REMARK    4  A    between atoms: C_7  and  C_11
REMARK    5  A    between atoms: N_17  and  C_18
REMARK    6  A    between atoms: C_21  and  C_24
REMARK                            x       y       z     vdW  Elec       q    Type
REMARK                         _______ _______ _______ _____ _____    ______ ____
ROOT
ATOM      1  C   UNL     1      -1.996  -6.059  -0.011  0.00  0.00    +0.028 C 
ATOM      2  C   UNL     1      -3.238  -6.596   0.095  0.00  0.00    +0.078 C 
ATOM      3  C   UNL     1      -3.639  -8.011   0.216  0.00  0.00    +0.256 C 
ATOM      4  O   UNL     1      -2.815  -8.906   0.233  0.00  0.00    -0.269 OA
ATOM      5  N   UNL     1      -4.934  -8.261   0.305  0.00  0.00    -0.260 N 
ATOM      6  C   UNL     1      -5.852  -7.234   0.283  0.00  0.00    +0.166 C 
ATOM      7  N   UNL     1      -7.162  -7.306   0.361  0.00  0.00    -0.226 NA
ATOM      8  S   UNL     1      -4.827  -5.779   0.134  0.00  0.00    -0.049 S 
ATOM      9  H   UNL     1      -5.241  -9.178   0.386  0.00  0.00    +0.157 HD
ENDROOT
BRANCH   1  13
ATOM     10  C   UNL     1      -1.482  -1.853   0.177  0.00  0.00    +0.134 A 
ATOM     11  C   UNL     1      -2.663  -2.428   0.633  0.00  0.00    +0.047 A 
ATOM     12  C   UNL     1      -2.835  -3.792   0.574  0.00  0.00    +0.011 A 
ATOM     13  C   UNL     1      -1.818  -4.602   0.053  0.00  0.00    -0.023 A 
ATOM     14  C   UNL     1      -0.631  -4.019  -0.405  0.00  0.00    +0.026 A 
ATOM     15  C   UNL     1      -0.471  -2.652  -0.346  0.00  0.00    +0.056 A 
ATOM     16  I   UNL     1       1.301  -1.775  -1.038  0.00  0.00    -0.040 I 
BRANCH  10  17
ATOM     17  O   UNL     1      -1.318  -0.507   0.237  0.00  0.00    -0.491 OA
BRANCH  17  19
ATOM     18  C   UNL     1      -2.030   1.740   0.771  0.00  0.00    +0.048 C 
ATOM     19  C   UNL     1      -2.395   0.255   0.786  0.00  0.00    +0.226 C 
ENDBRANCH  17  19
ENDBRANCH  10  17
ENDBRANCH   1  13
BRANCH   7  20
ATOM     20  C   UNL     1      -7.774  -8.524   0.479  0.00  0.00    +0.067 A 
ATOM     21  C   UNL     1      -7.368  -9.595  -0.321  0.00  0.00    +0.028 A 
ATOM     22  C   UNL     1      -7.989 -10.820  -0.196  0.00  0.00    +0.005 A 
ATOM     23  C   UNL     1      -9.013 -10.990   0.720  0.00  0.00    -0.050 A 
ATOM     24  C   UNL     1      -9.420  -9.934   1.516  0.00  0.00    +0.005 A 
ATOM     25  C   UNL     1      -8.803  -8.705   1.406  0.00  0.00    +0.028 A 
ATOM     26  C   UNL     1      -9.688 -12.331   0.850  0.00  0.00    +0.044 C 
ENDBRANCH   7  20
TORSDOF 4
