REMARK  Name = ZINC54732458
REMARK  8 active torsions:
REMARK  status: ('A' for Active; 'I' for Inactive)
REMARK    1  A    between atoms: C_1  and  C_2
REMARK    2  A    between atoms: C_5  and  C_7
REMARK    3  A    between atoms: C_7  and  C_9
REMARK    4  A    between atoms: C_7  and  N_10
REMARK    5  A    between atoms: N_13  and  N_14
REMARK    6  A    between atoms: C_15  and  C_17
REMARK    7  A    between atoms: C_17  and  C_18
REMARK    8  A    between atoms: N_26  and  C_27
REMARK                            x       y       z     vdW  Elec       q    Type
REMARK                         _______ _______ _______ _____ _____    ______ ____
ROOT
ATOM      1  N   UNL     1       4.385  -4.261   2.488  0.00  0.00    -0.233 N 
ATOM      2  C   UNL     1       5.458  -4.340   3.299  0.00  0.00    +0.236 C 
ATOM      3  O   UNL     1       5.767  -5.403   3.795  0.00  0.00    -0.274 OA
ATOM      4  H   UNL     1       4.138  -3.411   2.091  0.00  0.00    +0.173 HD
ENDROOT
BRANCH   1   8
ATOM      5  N   UNL     1       2.210  -4.147   0.855  0.00  0.00    -0.291 N 
ATOM      6  C   UNL     1       2.553  -5.328   1.406  0.00  0.00    +0.316 C 
ATOM      7  O   UNL     1       1.894  -6.323   1.171  0.00  0.00    -0.251 OA
ATOM      8  N   UNL     1       3.626  -5.407   2.217  0.00  0.00    -0.218 N 
ATOM      9  H   UNL     1       2.735  -3.354   1.042  0.00  0.00    +0.151 HD
ATOM     10  H   UNL     1       3.873  -6.257   2.614  0.00  0.00    +0.174 HD
BRANCH   5  11
ATOM     11  C   UNL     1       1.043  -4.062  -0.027  0.00  0.00    +0.108 C 
ATOM     12  C   UNL     1       1.452  -4.441  -1.452  0.00  0.00    +0.033 C 
BRANCH  11  17
ATOM     13  C   UNL     1      -0.018   1.503   0.010  0.00  0.00    +0.051 C 
ATOM     14  C   UNL     1       0.002  -0.004   0.002  0.00  0.00    -0.013 A 
ATOM     15  C   UNL     1      -1.039  -0.872   0.002  0.00  0.00    +0.011 A 
ATOM     16  C   UNL     1      -0.780  -2.230  -0.007  0.00  0.00    +0.013 A 
ATOM     17  C   UNL     1       0.507  -2.653  -0.016  0.00  0.00    +0.010 A 
ATOM     18  S   UNL     1       1.404  -1.109  -0.018  0.00  0.00    -0.097 S 
ENDBRANCH  11  17
ENDBRANCH   5  11
ENDBRANCH   1   8
BRANCH   2  19
ATOM     19  C   UNL     1       6.275  -3.107   3.590  0.00  0.00    +0.171 C 
BRANCH  19  20
ATOM     20  C   UNL     1       7.409  -3.463   4.517  0.00  0.00    +0.119 A 
ATOM     21  N   UNL     1       7.348  -3.432   5.816  0.00  0.00    -0.232 NA
ATOM     22  C   UNL     1       8.543  -3.811   6.338  0.00  0.00    +0.089 A 
ATOM     23  C   UNL     1       9.023  -3.953   7.643  0.00  0.00    +0.030 A 
ATOM     24  C   UNL     1      10.309  -4.364   7.854  0.00  0.00    +0.002 A 
ATOM     25  C   UNL     1      11.148  -4.642   6.784  0.00  0.00    +0.002 A 
ATOM     26  C   UNL     1      10.696  -4.508   5.489  0.00  0.00    +0.028 A 
ATOM     27  C   UNL     1       9.392  -4.093   5.255  0.00  0.00    +0.069 A 
ATOM     28  N   UNL     1       8.644  -3.869   4.116  0.00  0.00    -0.330 N 
ATOM     29  C   UNL     1       9.098  -4.035   2.733  0.00  0.00    +0.150 C 
ENDBRANCH  19  20
ENDBRANCH   2  19
TORSDOF 5
