REMARK  Name = ZINC63362351
REMARK  13 active torsions:
REMARK  status: ('A' for Active; 'I' for Inactive)
REMARK    1  A    between atoms: C_1  and  C_2
REMARK    2  A    between atoms: C_2  and  C_4
REMARK    3  A    between atoms: C_2  and  N_10
REMARK    4  A    between atoms: C_4  and  C_5
REMARK    5  A    between atoms: C_5  and  C_6
REMARK    6  A    between atoms: C_6  and  C_7
REMARK    7  A    between atoms: C_7  and  C_8
REMARK    8  A    between atoms: C_7  and  C_9
REMARK    9  A    between atoms: C_11  and  C_13
REMARK   10  A    between atoms: C_16  and  N_19
REMARK   11  A    between atoms: C_22  and  C_40
REMARK   12  A    between atoms: C_28  and  O_33
REMARK   13  A    between atoms: O_33  and  C_34
REMARK                            x       y       z     vdW  Elec       q    Type
REMARK                         _______ _______ _______ _____ _____    ______ ____
ROOT
ATOM      1  N   UNL     1       4.784  -2.471   5.747  0.00  0.00    -0.192 N 
ATOM      2  C   UNL     1       6.113  -2.696   5.796  0.00  0.00    +0.253 C 
ATOM      3  O   UNL     1       6.911  -2.566   4.893  0.00  0.00    -0.272 OA
ATOM      4  C   UNL     1       6.402  -3.143   7.213  0.00  0.00    +0.137 C 
ATOM      5  C   UNL     1       6.968  -4.568   7.210  0.00  0.00    +0.139 C 
ATOM      6  C   UNL     1       6.721  -5.132   8.604  0.00  0.00    -0.034 C 
ATOM      7  C   UNL     1       7.910  -5.484   9.082  0.00  0.00    +0.003 A 
ATOM      8  C   UNL     1       8.308  -6.134  10.340  0.00  0.00    +0.055 A 
ATOM      9  C   UNL     1       9.641  -6.344  10.523  0.00  0.00    +0.121 A 
ATOM     10  C   UNL     1      10.627  -5.980   9.595  0.00  0.00    +0.047 A 
ATOM     11  C   UNL     1      10.371  -5.382   8.403  0.00  0.00    +0.029 A 
ATOM     12  C   UNL     1       8.962  -5.106   8.089  0.00  0.00    +0.043 A 
ATOM     13  N   UNL     1       8.422  -4.563   7.025  0.00  0.00    -0.375 N 
ATOM     14  C   UNL     1       5.357  -5.173   9.250  0.00  0.00    +0.052 C 
ATOM     15  C   UNL     1       4.767  -3.752   9.159  0.00  0.00    +0.115 C 
ATOM     16  N   UNL     1       5.055  -3.219   7.824  0.00  0.00    -0.268 N 
ATOM     17  C   UNL     1       4.192  -2.742   6.918  0.00  0.00    +0.316 C 
ATOM     18  O   UNL     1       3.008  -2.576   7.132  0.00  0.00    -0.252 OA
ATOM     19  C   UNL     1       7.312  -2.158   7.949  0.00  0.00    +0.044 C 
ATOM     20  H   UNL     1       8.894  -4.217   6.252  0.00  0.00    +0.160 HD
ENDROOT
BRANCH   1  24
ATOM     21  C   UNL     1       2.768  -1.089   2.370  0.00  0.00    +0.037 A 
ATOM     22  C   UNL     1       2.051  -1.467   3.508  0.00  0.00    +0.015 A 
ATOM     23  C   UNL     1       2.720  -1.923   4.622  0.00  0.00    +0.025 A 
ATOM     24  C   UNL     1       4.108  -2.008   4.614  0.00  0.00    +0.045 A 
ATOM     25  C   UNL     1       4.825  -1.632   3.484  0.00  0.00    +0.025 A 
ATOM     26  C   UNL     1       4.162  -1.181   2.364  0.00  0.00    +0.015 A 
BRANCH  21  28
ATOM     27  N   UNL     1       0.709  -0.512   1.181  0.00  0.00    -0.309 N 
ATOM     28  C   UNL     1       2.054  -0.600   1.174  0.00  0.00    +0.244 C 
ATOM     29  O   UNL     1       2.679  -0.276   0.182  0.00  0.00    -0.270 OA
ATOM     30  H   UNL     1       0.210  -0.770   1.972  0.00  0.00    +0.149 HD
BRANCH  27  32
ATOM     31  C   UNL     1      -0.046   1.502   0.017  0.00  0.00    +0.028 C 
ATOM     32  C   UNL     1       0.000  -0.027  -0.006  0.00  0.00    +0.070 C 
BRANCH  32  33
ATOM     33  C   UNL     1      -1.426  -0.580  -0.011  0.00  0.00    +0.022 C 
BRANCH  33  34
ATOM     34  C   UNL     1      -1.382  -2.102  -0.160  0.00  0.00    +0.002 C 
BRANCH  34  35
ATOM     35  C   UNL     1      -2.808  -2.656  -0.164  0.00  0.00    +0.003 C 
BRANCH  35  36
ATOM     36  C   UNL     1      -2.764  -4.178  -0.313  0.00  0.00    -0.017 C 
ATOM     37  C   UNL     1      -2.095  -4.792   0.918  0.00  0.00    +0.007 C 
ATOM     38  C   UNL     1      -4.189  -4.719  -0.443  0.00  0.00    +0.007 C 
ENDBRANCH  35  36
ENDBRANCH  34  35
ENDBRANCH  33  34
ENDBRANCH  32  33
ENDBRANCH  27  32
ENDBRANCH  21  28
ENDBRANCH   1  24
BRANCH   9  39
ATOM     39  O   UNL     1      10.040  -6.942  11.677  0.00  0.00    -0.495 OA
ATOM     40  C   UNL     1      11.443  -7.152  11.847  0.00  0.00    +0.277 C 
ENDBRANCH   9  39
TORSDOF 8
