REMARK  Name = ZINC16576152
REMARK  8 active torsions:
REMARK  status: ('A' for Active; 'I' for Inactive)
REMARK    1  A    between atoms: C_1  and  C_2
REMARK    2  A    between atoms: C_2  and  C_4
REMARK    3  A    between atoms: C_2  and  N_60
REMARK    4  A    between atoms: C_14  and  C_15
REMARK    5  A    between atoms: C_14  and  N_60
REMARK    6  A    between atoms: C_20  and  O_21
REMARK    7  A    between atoms: O_21  and  C_22
REMARK    8  A    between atoms: C_22  and  C_23
REMARK                            x       y       z     vdW  Elec       q    Type
REMARK                         _______ _______ _______ _____ _____    ______ ____
ROOT
ATOM      1  C   UNL     1      -1.292  -0.776   0.011  0.00  0.00    -0.043 C 
ENDROOT
BRANCH   1   2
ATOM      2  C   UNL     1       0.002  -0.004   0.002  0.00  0.00    -0.022 A 
ATOM      3  C   UNL     1      -0.017   1.377   0.010  0.00  0.00    +0.020 A 
ATOM      4  C   UNL     1       1.171   2.086   0.002  0.00  0.00    +0.018 A 
ATOM      5  C   UNL     1       2.380   1.414  -0.013  0.00  0.00    +0.019 A 
ATOM      6  C   UNL     1       2.403   0.033  -0.021  0.00  0.00    +0.047 A 
ATOM      7  C   UNL     1       1.213  -0.680  -0.013  0.00  0.00    +0.122 A 
ATOM      8 BR   UNL     1       1.143   3.977   0.013  0.00  0.00    -0.050 Br
BRANCH   7   9
ATOM      9  O   UNL     1       1.234  -2.039  -0.021  0.00  0.00    -0.487 OA
BRANCH   9  10
ATOM     10  C   UNL     1       2.517  -2.668  -0.037  0.00  0.00    +0.266 C 
BRANCH  10  11
ATOM     11  C   UNL     1       2.342  -4.165  -0.044  0.00  0.00    +0.008 A 
ATOM     12  C   UNL     1       1.073  -4.713  -0.029  0.00  0.00    +0.008 A 
ATOM     13  C   UNL     1       0.912  -6.086  -0.040  0.00  0.00    +0.000 A 
ATOM     14  C   UNL     1       2.021  -6.912  -0.055  0.00  0.00    +0.001 A 
ATOM     15  C   UNL     1       3.290  -6.366  -0.065  0.00  0.00    +0.020 A 
ATOM     16  C   UNL     1       3.451  -4.991  -0.059  0.00  0.00    +0.047 A 
ATOM     17 CL   UNL     1       5.045  -4.304  -0.070  0.00  0.00    -0.083 Cl
ENDBRANCH  10  11
ENDBRANCH   9  10
ENDBRANCH   7   9
ENDBRANCH   1   2
BRANCH   1  18
ATOM     18  N   UNL     1      -1.570  -1.238   1.384  0.00  0.00    +0.384 N 
ATOM     19  H   UNL     1      -0.802  -1.842   1.699  0.00  0.00    -0.085 HD
ATOM     20  H   UNL     1      -1.644  -0.426   2.006  0.00  0.00    -0.085 HD
BRANCH  18  22
ATOM     21  C   UNL     1      -4.008  -1.030   1.578  0.00  0.00    -0.013 C 
ATOM     22  C   UNL     1      -2.834  -1.998   1.422  0.00  0.00    -0.068 C 
BRANCH  22  23
ATOM     23  C   UNL     1      -2.805  -2.961   2.611  0.00  0.00    -0.041 C 
ATOM     24  C   UNL     1      -2.640  -2.165   3.908  0.00  0.00    +0.009 C 
ATOM     25  C   UNL     1      -2.611  -3.127   5.097  0.00  0.00    -0.010 C 
ATOM     26  C   UNL     1      -3.921  -3.916   5.146  0.00  0.00    +0.007 C 
ATOM     27  C   UNL     1      -4.086  -4.712   3.850  0.00  0.00    -0.010 C 
ATOM     28  C   UNL     1      -4.114  -3.750   2.660  0.00  0.00    +0.009 C 
ATOM     29  C   UNL     1      -2.912  -5.681   3.694  0.00  0.00    +0.007 C 
ATOM     30  C   UNL     1      -1.602  -4.892   3.644  0.00  0.00    -0.010 C 
ATOM     31  C   UNL     1      -1.438  -4.096   4.941  0.00  0.00    +0.007 C 
ATOM     32  C   UNL     1      -1.631  -3.929   2.455  0.00  0.00    +0.009 C 
ENDBRANCH  22  23
ENDBRANCH  18  22
ENDBRANCH   1  18
TORSDOF 7
