REMARK  Name = ZINC40247253
REMARK  5 active torsions:
REMARK  status: ('A' for Active; 'I' for Inactive)
REMARK    1  A    between atoms: C_1  and  C_2
REMARK    2  A    between atoms: C_2  and  C_3
REMARK    3  A    between atoms: C_6  and  C_9
REMARK    4  A    between atoms: C_9  and  C_11
REMARK    5  A    between atoms: C_9  and  O_21
REMARK                            x       y       z     vdW  Elec       q    Type
REMARK                         _______ _______ _______ _____ _____    ______ ____
ROOT
ATOM      1  C   UNL     1       2.707  -1.868  -4.752  0.00  0.00    +0.175 C 
ENDROOT
BRANCH   1   2
ATOM      2  C   UNL     1       2.830  -3.369  -4.703  0.00  0.00    -0.011 A 
ATOM      3  C   UNL     1       3.825  -3.955  -3.942  0.00  0.00    +0.010 A 
ATOM      4  C   UNL     1       3.942  -5.331  -3.895  0.00  0.00    +0.050 A 
ATOM      5  C   UNL     1       3.062  -6.129  -4.612  0.00  0.00    +0.162 A 
ATOM      6  C   UNL     1       2.061  -5.540  -5.375  0.00  0.00    +0.162 A 
ATOM      7  C   UNL     1       1.946  -4.158  -5.414  0.00  0.00    +0.056 A 
ATOM      8  O   UNL     1       1.182  -6.303  -6.080  0.00  0.00    -0.485 OA
ATOM      9  C   UNL     1       1.554  -7.667  -6.309  0.00  0.00    +0.270 C 
ATOM     10  C   UNL     1       2.065  -8.255  -4.987  0.00  0.00    +0.270 C 
ATOM     11  O   UNL     1       3.192  -7.482  -4.559  0.00  0.00    -0.485 OA
ENDBRANCH   1   2
BRANCH   1  15
ATOM     12  C   UNL     1       0.707  -0.490  -1.238  0.00  0.00    -0.048 A 
ATOM     13  C   UNL     1      -0.011  -0.719  -2.397  0.00  0.00    +0.004 A 
ATOM     14  C   UNL     1       0.636  -1.164  -3.534  0.00  0.00    +0.007 A 
ATOM     15  C   UNL     1       2.002  -1.381  -3.513  0.00  0.00    -0.015 A 
ATOM     16  C   UNL     1       2.720  -1.152  -2.354  0.00  0.00    +0.007 A 
ATOM     17  C   UNL     1       2.073  -0.702  -1.218  0.00  0.00    +0.004 A 
BRANCH  12  19
ATOM     18  C   UNL     1      -0.019   1.526   0.010  0.00  0.00    +0.009 C 
ATOM     19  C   UNL     1       0.002  -0.004   0.002  0.00  0.00    +0.032 C 
ENDBRANCH  12  19
ENDBRANCH   1  15
BRANCH   1  20
ATOM     20  O   UNL     1       4.010  -1.285  -4.819  0.00  0.00    -0.383 OA
ATOM     21  H   UNL     1       4.576  -1.500  -4.066  0.00  0.00    +0.211 HD
ENDBRANCH   1  20
TORSDOF 4
