REMARK  Name = ZINC39710376
REMARK  9 active torsions:
REMARK  status: ('A' for Active; 'I' for Inactive)
REMARK    1  A    between atoms: C_1  and  C_2
REMARK    2  A    between atoms: C_2  and  C_3
REMARK    3  A    between atoms: C_10  and  C_15
REMARK    4  A    between atoms: C_15  and  C_17
REMARK    5  A    between atoms: C_15  and  N_27
REMARK    6  A    between atoms: N_22  and  C_23
REMARK    7  A    between atoms: C_23  and  C_24
REMARK    8  A    between atoms: C_23  and  C_25
REMARK    9  A    between atoms: C_23  and  C_26
REMARK                            x       y       z     vdW  Elec       q    Type
REMARK                         _______ _______ _______ _____ _____    ______ ____
ROOT
ATOM      1  C   UNL     1       5.375  -3.216  -3.436  0.00  0.00    -0.009 C 
ENDROOT
BRANCH   1   9
ATOM      2  C   UNL     1       1.294  -0.209  -0.545  0.00  0.00    -0.047 A 
ATOM      3  C   UNL     1       0.490  -0.115  -1.682  0.00  0.00    +0.005 A 
ATOM      4  C   UNL     1       0.938  -0.432  -2.925  0.00  0.00    +0.024 A 
ATOM      5  C   UNL     1       2.259  -0.877  -3.116  0.00  0.00    +0.040 A 
ATOM      6  N   UNL     1       2.687  -1.185  -4.340  0.00  0.00    -0.285 N 
ATOM      7  C   UNL     1       3.915  -1.609  -4.590  0.00  0.00    +0.223 C 
ATOM      8  O   UNL     1       4.249  -1.875  -5.729  0.00  0.00    -0.275 OA
ATOM      9  C   UNL     1       4.902  -1.761  -3.455  0.00  0.00    +0.088 C 
ATOM     10  C   UNL     1       4.420  -1.411  -2.061  0.00  0.00    -0.006 C 
ATOM     11  C   UNL     1       3.131  -0.986  -1.933  0.00  0.00    -0.007 A 
ATOM     12  C   UNL     1       2.586  -0.623  -0.625  0.00  0.00    +0.013 A 
ATOM     13  H   UNL     1       2.070  -1.094  -5.082  0.00  0.00    +0.155 HD
BRANCH   2  15
ATOM     14  C   UNL     1       0.951   1.653   1.056  0.00  0.00    +0.009 C 
ATOM     15  C   UNL     1       0.720   0.163   0.797  0.00  0.00    +0.032 C 
ENDBRANCH   2  15
ENDBRANCH   1   9
BRANCH   1  16
ATOM     16  N   UNL     1       6.124  -3.503  -4.667  0.00  0.00    +0.388 N 
ATOM     17  C   UNL     1       6.705  -4.852  -4.586  0.00  0.00    -0.073 C 
ATOM     18  C   UNL     1       7.209  -5.250  -5.974  0.00  0.00    +0.017 C 
ATOM     19  C   UNL     1       8.088  -4.158  -6.529  0.00  0.00    -0.048 A 
ATOM     20  C   UNL     1       8.915  -4.452  -7.602  0.00  0.00    +0.004 A 
ATOM     21  C   UNL     1       9.732  -3.476  -8.139  0.00  0.00    +0.000 A 
ATOM     22  C   UNL     1       9.723  -2.201  -7.605  0.00  0.00    +0.000 A 
ATOM     23  C   UNL     1       8.900  -1.909  -6.536  0.00  0.00    +0.002 A 
ATOM     24  C   UNL     1       8.081  -2.888  -5.994  0.00  0.00    -0.061 A 
ATOM     25  C   UNL     1       7.205  -2.526  -4.823  0.00  0.00    -0.042 C 
ATOM     26  H   UNL     1       5.502  -3.449  -5.460  0.00  0.00    -0.081 HD
ENDBRANCH   1  16
BRANCH   1  27
ATOM     27  C   UNL     1       4.163  -4.145  -3.347  0.00  0.00    +0.205 C 
ATOM     28  N   UNL     1       3.251  -3.907  -4.474  0.00  0.00    -0.152 NA
ATOM     29  N   UNL     1       2.160  -3.538  -4.033  0.00  0.00    -0.070 NA
ATOM     30  N   UNL     1       2.135  -3.464  -2.641  0.00  0.00    -0.179 N 
ATOM     31  N   UNL     1       3.361  -3.834  -2.145  0.00  0.00    -0.183 NA
ATOM     32  H   UNL     1       1.372  -3.195  -2.106  0.00  0.00    +0.191 HD
BRANCH  31  33
ATOM     33  C   UNL     1       3.246  -5.008  -1.271  0.00  0.00    +0.035 C 
ATOM     34  C   UNL     1       4.641  -5.453  -0.828  0.00  0.00    +0.029 C 
ATOM     35  C   UNL     1       2.411  -4.648  -0.040  0.00  0.00    +0.029 C 
ATOM     36  C   UNL     1       2.565  -6.147  -2.033  0.00  0.00    +0.029 C 
ENDBRANCH  31  33
ENDBRANCH   1  27
TORSDOF 5
