REMARK  Name = ZINC04101568
REMARK  11 active torsions:
REMARK  status: ('A' for Active; 'I' for Inactive)
REMARK    1  A    between atoms: C_1  and  O_2
REMARK    2  A    between atoms: O_2  and  C_3
REMARK    3  A    between atoms: C_6  and  C_11
REMARK    4  A    between atoms: C_8  and  O_9
REMARK    5  A    between atoms: O_9  and  C_10
REMARK    6  A    between atoms: C_11  and  C_12
REMARK    7  A    between atoms: C_12  and  N_13
REMARK    8  A    between atoms: C_14  and  C_16
REMARK    9  A    between atoms: C_16  and  N_17
REMARK   10  A    between atoms: N_26  and  C_29
REMARK   11  A    between atoms: C_29  and  C_30
REMARK                            x       y       z     vdW  Elec       q    Type
REMARK                         _______ _______ _______ _____ _____    ______ ____
ROOT
ATOM      1  N   UNL     1       8.044  -4.532  -6.035  0.00  0.00    -0.284 N 
ATOM      2  C   UNL     1       8.966  -3.546  -6.354  0.00  0.00    +0.061 A 
ATOM      3  C   UNL     1       8.581  -2.358  -6.956  0.00  0.00    +0.046 A 
ATOM      4  C   UNL     1       9.532  -1.402  -7.257  0.00  0.00    +0.043 A 
ATOM      5  C   UNL     1      10.871  -1.620  -6.964  0.00  0.00    +0.021 A 
ATOM      6  C   UNL     1      11.272  -2.795  -6.367  0.00  0.00    +0.017 A 
ATOM      7  C   UNL     1      10.323  -3.767  -6.057  0.00  0.00    +0.063 A 
ATOM      8  C   UNL     1      10.698  -5.040  -5.418  0.00  0.00    +0.265 A 
ATOM      9  O   UNL     1      11.857  -5.281  -5.139  0.00  0.00    -0.267 OA
ATOM     10  N   UNL     1       9.721  -5.934  -5.149  0.00  0.00    -0.253 N 
ATOM     11  C   UNL     1       8.438  -5.675  -5.448  0.00  0.00    +0.333 A 
ATOM     12  O   UNL     1       7.598  -6.511  -5.180  0.00  0.00    -0.246 OA
ATOM     13 CL   UNL     1       9.048   0.085  -8.011  0.00  0.00    -0.083 Cl
ENDROOT
BRANCH   1  14
ATOM     14  C   UNL     1       6.625  -4.323  -6.337  0.00  0.00    +0.222 C 
BRANCH  14  16
ATOM     15  N   UNL     1       4.640  -3.366  -5.213  0.00  0.00    -0.314 N 
ATOM     16  C   UNL     1       5.955  -3.658  -5.162  0.00  0.00    +0.233 C 
ATOM     17  O   UNL     1       6.599  -3.385  -4.171  0.00  0.00    -0.274 OA
ATOM     18  H   UNL     1       4.126  -3.584  -6.006  0.00  0.00    +0.149 HD
BRANCH  15  19
ATOM     19  C   UNL     1       3.989  -2.719  -4.072  0.00  0.00    +0.109 C 
BRANCH  19  20
ATOM     20  C   UNL     1       2.507  -2.501  -4.386  0.00  0.00    +0.054 C 
BRANCH  20  24
ATOM     21  C   UNL     1       0.606  -0.608  -1.056  0.00  0.00    +0.161 A 
ATOM     22  C   UNL     1       1.173   0.159  -2.062  0.00  0.00    +0.049 A 
ATOM     23  C   UNL     1       1.787  -0.456  -3.137  0.00  0.00    +0.007 A 
ATOM     24  C   UNL     1       1.837  -1.836  -3.212  0.00  0.00    -0.042 A 
ATOM     25  C   UNL     1       1.273  -2.606  -2.212  0.00  0.00    +0.053 A 
ATOM     26  C   UNL     1       0.662  -1.996  -1.129  0.00  0.00    +0.162 A 
BRANCH  21  28
ATOM     27  C   UNL     1      -0.017   1.425   0.010  0.00  0.00    +0.277 C 
ATOM     28  O   UNL     1       0.002  -0.004   0.002  0.00  0.00    -0.491 OA
ENDBRANCH  21  28
BRANCH  26  29
ATOM     29  O   UNL     1       0.112  -2.753  -0.142  0.00  0.00    -0.491 OA
ATOM     30  C   UNL     1       0.206  -4.171  -0.283  0.00  0.00    +0.277 C 
ENDBRANCH  26  29
ENDBRANCH  20  24
ENDBRANCH  19  20
ENDBRANCH  15  19
ENDBRANCH  14  16
ENDBRANCH   1  14
BRANCH  10  31
ATOM     31  C   UNL     1      10.067  -7.208  -4.515  0.00  0.00    +0.204 C 
BRANCH  31  32
ATOM     32  C   UNL     1      10.001  -7.058  -3.017  0.00  0.00    +0.125 A 
ATOM     33  C   UNL     1       8.917  -7.279  -2.251  0.00  0.00    +0.046 A 
ATOM     34  C   UNL     1       9.300  -7.019  -0.915  0.00  0.00    +0.041 A 
ATOM     35  C   UNL     1      10.595  -6.656  -0.944  0.00  0.00    +0.195 A 
ATOM     36  O   UNL     1      11.016  -6.686  -2.219  0.00  0.00    -0.466 OA
ENDBRANCH  31  32
ENDBRANCH  10  31
TORSDOF 9
