REMARK  Name = ZINC13045872
REMARK  11 active torsions:
REMARK  status: ('A' for Active; 'I' for Inactive)
REMARK    1  A    between atoms: C_1  and  C_2
REMARK    2  A    between atoms: C_2  and  C_4
REMARK    3  A    between atoms: C_2  and  S_15
REMARK    4  A    between atoms: N_6  and  C_7
REMARK    5  A    between atoms: C_12  and  S_13
REMARK    6  A    between atoms: S_13  and  C_14
REMARK    7  A    between atoms: S_15  and  C_16
REMARK    8  A    between atoms: C_20  and  C_30
REMARK    9  A    between atoms: N_26  and  C_27
REMARK   10  A    between atoms: C_27  and  C_28
REMARK   11  A    between atoms: C_28  and  O_29
REMARK                            x       y       z     vdW  Elec       q    Type
REMARK                         _______ _______ _______ _____ _____    ______ ____
ROOT
ATOM      1  C   UNL     1      -1.204   3.382  -0.005  0.00  0.00    +0.173 A 
ATOM      2  N   UNL     1      -1.187   2.072  -0.008  0.00  0.00    -0.223 NA
ATOM      3  C   UNL     1      -0.025   1.378  -0.038  0.00  0.00    +0.080 A 
ATOM      4  C   UNL     1      -0.010  -0.020  -0.047  0.00  0.00    +0.043 A 
ATOM      5  C   UNL     1       1.207  -0.689  -0.072  0.00  0.00    +0.065 A 
ATOM      6  C   UNL     1       2.412   0.027  -0.088  0.00  0.00    +0.016 A 
ATOM      7  C   UNL     1       2.409   1.392  -0.079  0.00  0.00    +0.016 A 
ATOM      8  C   UNL     1       1.199   2.084  -0.054  0.00  0.00    +0.065 A 
ATOM      9  C   UNL     1       1.150   3.555  -0.044  0.00  0.00    +0.262 A 
ATOM     10  O   UNL     1       2.169   4.220  -0.057  0.00  0.00    -0.267 OA
ATOM     11  N   UNL     1      -0.069   4.141  -0.020  0.00  0.00    -0.285 N 
ENDROOT
BRANCH   5  12
ATOM     12  C   UNL     1       1.232  -2.168  -0.083  0.00  0.00    +0.387 C 
ATOM     13  O   UNL     1       0.191  -2.793  -0.069  0.00  0.00    -0.241 OA
ATOM     14  O   UNL     1       2.409  -2.822  -0.107  0.00  0.00    -0.241 OA
ENDBRANCH   5  12
BRANCH   1  15
ATOM     15  S   UNL     1      -2.763   4.202   0.028  0.00  0.00    -0.075 S 
BRANCH  15  17
ATOM     16  C   UNL     1      -3.724   2.003  -1.277  0.00  0.00    +0.029 C 
ATOM     17  C   UNL     1      -3.871   2.771   0.038  0.00  0.00    +0.137 C 
BRANCH  17  18
ATOM     18  C   UNL     1      -5.295   3.239   0.190  0.00  0.00    +0.230 C 
ATOM     19  O   UNL     1      -5.607   4.357  -0.162  0.00  0.00    -0.274 OA
ATOM     20  N   UNL     1      -6.223   2.415   0.718  0.00  0.00    -0.284 N 
ATOM     21  H   UNL     1      -5.989   1.500   0.939  0.00  0.00    +0.155 HD
BRANCH  20  22
ATOM     22  C   UNL     1      -7.525   2.881   0.946  0.00  0.00    +0.047 A 
ATOM     23  C   UNL     1      -8.097   3.799   0.079  0.00  0.00    +0.024 A 
ATOM     24  C   UNL     1      -9.383   4.253   0.303  0.00  0.00    +0.002 A 
ATOM     25  C   UNL     1     -10.099   3.803   1.397  0.00  0.00    +0.001 A 
ATOM     26  C   UNL     1      -9.536   2.891   2.270  0.00  0.00    +0.016 A 
ATOM     27  C   UNL     1      -8.247   2.425   2.049  0.00  0.00    +0.029 A 
BRANCH  27  28
ATOM     28  S   UNL     1      -7.525   1.264   3.160  0.00  0.00    -0.127 S 
ATOM     29  C   UNL     1      -8.817   0.984   4.403  0.00  0.00    +0.090 C 
ENDBRANCH  27  28
ENDBRANCH  20  22
ENDBRANCH  17  18
ENDBRANCH  15  17
ENDBRANCH   1  15
BRANCH  11  30
ATOM     30  C   UNL     1      -0.173   5.603  -0.009  0.00  0.00    +0.155 C 
BRANCH  30  31
ATOM     31  C   UNL     1      -0.234   6.120  -1.447  0.00  0.00    +0.177 C 
BRANCH  31  32
ATOM     32  O   UNL     1      -1.435   5.661  -2.069  0.00  0.00    -0.393 OA
ATOM     33  H   UNL     1      -1.541   5.952  -2.985  0.00  0.00    +0.209 HD
ENDBRANCH  31  32
ENDBRANCH  30  31
ENDBRANCH  11  30
TORSDOF 9
