REMARK  Name = ZINC04140709
REMARK  7 active torsions:
REMARK  status: ('A' for Active; 'I' for Inactive)
REMARK    1  A    between atoms: C_1  and  C_2
REMARK    2  A    between atoms: C_9  and  C_13
REMARK    3  A    between atoms: C_9  and  O_17
REMARK    4  A    between atoms: C_18  and  C_20
REMARK    5  A    between atoms: C_23  and  N_26
REMARK    6  A    between atoms: N_26  and  C_27
REMARK    7  A    between atoms: N_26  and  C_28
REMARK                            x       y       z     vdW  Elec       q    Type
REMARK                         _______ _______ _______ _____ _____    ______ ____
ROOT
ATOM      1  C   UNL     1      -0.847   1.376  -1.135  0.00  0.00    +0.007 C 
ATOM      2  C   UNL     1      -0.092   0.932   0.120  0.00  0.00    -0.013 C 
ATOM      3  C   UNL     1       1.347   1.437   0.044  0.00  0.00    +0.009 C 
ATOM      4  C   UNL     1       1.366   2.966  -0.116  0.00  0.00    +0.053 C 
ATOM      5  C   UNL     1       0.490   3.525   0.985  0.00  0.00    +0.045 C 
ATOM      6  N   UNL     1       0.752   4.418   1.837  0.00  0.00    -0.183 NA
ATOM      7  N   UNL     1      -0.250   4.621   2.787  0.00  0.00    -0.148 N 
ATOM      8  C   UNL     1      -1.350   3.674   2.522  0.00  0.00    +0.259 C 
ATOM      9  C   UNL     1      -0.922   3.002   1.211  0.00  0.00    +0.096 C 
ATOM     10  C   UNL     1      -0.809   1.484   1.357  0.00  0.00    +0.017 C 
ATOM     11  C   UNL     1      -0.218   5.530   3.781  0.00  0.00    +0.269 C 
ATOM     12  O   UNL     1      -1.190   5.685   4.495  0.00  0.00    -0.268 OA
ENDROOT
BRANCH  11  13
ATOM     13  C   UNL     1       0.995   6.338   4.003  0.00  0.00    +0.039 A 
ATOM     14  C   UNL     1       2.068   6.251   3.110  0.00  0.00    +0.015 A 
ATOM     15  C   UNL     1       3.197   7.010   3.317  0.00  0.00    +0.024 A 
ATOM     16  C   UNL     1       3.276   7.856   4.420  0.00  0.00    +0.029 A 
ATOM     17  C   UNL     1       2.212   7.941   5.313  0.00  0.00    +0.024 A 
ATOM     18  C   UNL     1       1.079   7.189   5.109  0.00  0.00    +0.015 A 
BRANCH  16  19
ATOM     19  N   UNL     1       4.421   8.617   4.629  0.00  0.00    -0.336 N 
ATOM     20  C   UNL     1       4.507   9.507   5.789  0.00  0.00    +0.129 C 
ATOM     21  C   UNL     1       5.542   8.528   3.689  0.00  0.00    +0.129 C 
ENDBRANCH  16  19
ENDBRANCH  11  13
BRANCH   8  22
ATOM     22  C   UNL     1      -1.458   2.643   3.647  0.00  0.00    +0.438 C 
ATOM     23  F   UNL     1      -1.856   3.280   4.827  0.00  0.00    -0.166 F 
ATOM     24  F   UNL     1      -2.403   1.671   3.300  0.00  0.00    -0.166 F 
ATOM     25  F   UNL     1      -0.214   2.034   3.843  0.00  0.00    -0.166 F 
ENDBRANCH   8  22
BRANCH   8  26
ATOM     26  O   UNL     1      -2.587   4.370   2.357  0.00  0.00    -0.363 OA
ATOM     27  H   UNL     1      -2.863   4.871   3.136  0.00  0.00    +0.212 HD
ENDBRANCH   8  26
TORSDOF 4
