REMARK  Name = ZINC38805136
REMARK  9 active torsions:
REMARK  status: ('A' for Active; 'I' for Inactive)
REMARK    1  A    between atoms: C_1  and  C_2
REMARK    2  A    between atoms: C_2  and  O_3
REMARK    3  A    between atoms: O_3  and  C_4
REMARK    4  A    between atoms: C_12  and  N_18
REMARK    5  A    between atoms: C_13  and  C_14
REMARK    6  A    between atoms: C_14  and  O_16
REMARK    7  A    between atoms: O_16  and  C_17
REMARK    8  A    between atoms: C_19  and  C_21
REMARK    9  A    between atoms: C_21  and  C_26
REMARK                            x       y       z     vdW  Elec       q    Type
REMARK                         _______ _______ _______ _____ _____    ______ ____
ROOT
ATOM      1  C   UNL     1      -0.937  -2.467   1.543  0.00  0.00    +0.403 C 
ATOM      2  O   UNL     1       0.033  -3.121   1.873  0.00  0.00    -0.226 OA
ATOM      3  N   UNL     1      -2.155  -3.042   1.502  0.00  0.00    -0.262 N 
ATOM      4  C   UNL     1      -2.342  -4.457   1.858  0.00  0.00    +0.116 C 
ATOM      5  C   UNL     1      -3.221  -4.560   3.106  0.00  0.00    +0.056 C 
ATOM      6  C   UNL     1      -4.439  -3.665   2.935  0.00  0.00    -0.018 A 
ATOM      7  C   UNL     1      -4.456  -2.658   2.035  0.00  0.00    +0.013 A 
ATOM      8  S   UNL     1      -6.053  -1.921   2.212  0.00  0.00    -0.076 S 
ATOM      9  C   UNL     1      -6.687  -2.897   3.423  0.00  0.00    +0.086 A 
ATOM     10  C   UNL     1      -5.668  -3.797   3.699  0.00  0.00    +0.091 A 
ATOM     11  C   UNL     1      -3.351  -2.273   1.105  0.00  0.00    +0.153 C 
ENDROOT
BRANCH   9  12
ATOM     12  N   UNL     1      -7.939  -2.820   4.011  0.00  0.00    -0.279 N 
ATOM     13  C   UNL     1      -8.813  -1.873   3.616  0.00  0.00    +0.228 C 
ATOM     14  O   UNL     1      -8.472  -1.031   2.813  0.00  0.00    -0.274 OA
ATOM     15  H   UNL     1      -8.187  -3.449   4.708  0.00  0.00    +0.155 HD
BRANCH  13  16
ATOM     16  C   UNL     1     -10.213  -1.860   4.173  0.00  0.00    +0.072 C 
ATOM     17  C   UNL     1     -10.169  -1.781   5.713  0.00  0.00    +0.021 C 
ATOM     18  C   UNL     1     -10.323  -0.271   6.020  0.00  0.00    +0.001 C 
ATOM     19  C   UNL     1     -11.345   0.193   4.953  0.00  0.00    +0.001 C 
ATOM     20  C   UNL     1     -10.961  -0.605   3.690  0.00  0.00    +0.021 C 
BRANCH  16  21
ATOM     21  C   UNL     1     -10.952  -3.100   3.740  0.00  0.00    -0.032 A 
ATOM     22  C   UNL     1     -12.219  -3.356   4.230  0.00  0.00    +0.006 A 
ATOM     23  C   UNL     1     -12.897  -4.493   3.833  0.00  0.00    +0.020 A 
ATOM     24  C   UNL     1     -12.307  -5.376   2.946  0.00  0.00    +0.041 A 
ATOM     25  C   UNL     1     -11.039  -5.120   2.456  0.00  0.00    +0.020 A 
ATOM     26  C   UNL     1     -10.364  -3.979   2.849  0.00  0.00    +0.006 A 
ATOM     27 CL   UNL     1     -13.158  -6.805   2.448  0.00  0.00    -0.084 Cl
ENDBRANCH  16  21
ENDBRANCH  13  16
ENDBRANCH   9  12
BRANCH  10  28
ATOM     28  C   UNL     1      -5.825  -4.838   4.717  0.00  0.00    +0.342 C 
ATOM     29  O   UNL     1      -5.508  -4.614   5.870  0.00  0.00    -0.245 OA
BRANCH  28  30
ATOM     30  O   UNL     1      -6.322  -6.045   4.377  0.00  0.00    -0.464 OA
ATOM     31  C   UNL     1      -6.448  -7.012   5.421  0.00  0.00    +0.280 C 
ENDBRANCH  28  30
ENDBRANCH  10  28
BRANCH   1  32
ATOM     32  O   UNL     1      -0.794  -1.168   1.218  0.00  0.00    -0.451 OA
BRANCH  32  34
ATOM     33  C   UNL     1       0.489   0.852   0.882  0.00  0.00    +0.048 C 
ATOM     34  C   UNL     1       0.526  -0.624   1.283  0.00  0.00    +0.230 C 
ENDBRANCH  32  34
ENDBRANCH   1  32
TORSDOF 7
