REMARK  Name = ZINC06803779
REMARK  8 active torsions:
REMARK  status: ('A' for Active; 'I' for Inactive)
REMARK    1  A    between atoms: C_1  and  C_2
REMARK    2  A    between atoms: C_7  and  N_12
REMARK    3  A    between atoms: C_9  and  C_11
REMARK    4  A    between atoms: N_12  and  C_13
REMARK    5  A    between atoms: C_13  and  C_14
REMARK    6  A    between atoms: N_21  and  C_26
REMARK    7  A    between atoms: C_22  and  C_23
REMARK    8  A    between atoms: C_26  and  C_27
REMARK                            x       y       z     vdW  Elec       q    Type
REMARK                         _______ _______ _______ _____ _____    ______ ____
ROOT
ATOM      1  C   UNL     1       0.850  -0.432   6.117  0.00  0.00    -0.025 A 
ATOM      2  C   UNL     1       0.546  -1.604   6.849  0.00  0.00    +0.002 A 
ATOM      3  C   UNL     1      -0.432  -2.599   6.710  0.00  0.00    +0.010 A 
ATOM      4  C   UNL     1      -0.476  -3.635   7.596  0.00  0.00    +0.001 A 
ATOM      5  C   UNL     1       0.440  -3.715   8.638  0.00  0.00    +0.002 A 
ATOM      6  C   UNL     1       1.409  -2.750   8.797  0.00  0.00    +0.026 A 
ATOM      7  C   UNL     1       1.476  -1.683   7.905  0.00  0.00    +0.050 A 
ATOM      8  N   UNL     1       2.306  -0.593   7.804  0.00  0.00    -0.330 N 
ATOM      9  C   UNL     1       1.922   0.160   6.710  0.00  0.00    +0.134 A 
ENDROOT
BRANCH   9  10
ATOM     10  C   UNL     1       2.564   1.399   6.262  0.00  0.00    +0.403 C 
ATOM     11  O   UNL     1       3.527   1.845   6.873  0.00  0.00    -0.239 OA
ATOM     12  O   UNL     1       2.138   1.989   5.278  0.00  0.00    -0.239 OA
ENDBRANCH   9  10
BRANCH   1  13
ATOM     13  C   UNL     1       0.121   0.067   4.896  0.00  0.00    -0.043 C 
BRANCH  13  14
ATOM     14  N   UNL     1       0.736  -0.504   3.691  0.00  0.00    +0.384 N 
ATOM     15  H   UNL     1       0.679  -1.511   3.728  0.00  0.00    -0.085 HD
ATOM     16  H   UNL     1       1.704  -0.224   3.642  0.00  0.00    -0.085 HD
BRANCH  14  22
ATOM     17  C   UNL     1      -0.019   1.526   0.010  0.00  0.00    +0.008 C 
ATOM     18  C   UNL     1       0.002  -0.004   0.002  0.00  0.00    -0.013 C 
ATOM     19  C   UNL     1      -1.433  -0.534   0.013  0.00  0.00    +0.003 C 
ATOM     20  C   UNL     1      -2.149  -0.040   1.272  0.00  0.00    -0.001 C 
ATOM     21  C   UNL     1      -1.409  -0.547   2.511  0.00  0.00    -0.015 C 
ATOM     22  C   UNL     1       0.026  -0.018   2.500  0.00  0.00    -0.068 C 
ATOM     23  C   UNL     1       0.742  -0.511   1.242  0.00  0.00    -0.025 C 
ATOM     24  C   UNL     1       2.178   0.019   1.231  0.00  0.00    +0.006 C 
ENDBRANCH  14  22
ENDBRANCH  13  14
ENDBRANCH   1  13
BRANCH   8  25
ATOM     25  C   UNL     1       3.420  -0.283   8.704  0.00  0.00    +0.157 C 
BRANCH  25  26
ATOM     26  C   UNL     1       4.681  -0.923   8.183  0.00  0.00    -0.028 A 
ATOM     27  C   UNL     1       5.017  -2.206   8.575  0.00  0.00    +0.007 A 
ATOM     28  C   UNL     1       6.173  -2.793   8.097  0.00  0.00    +0.020 A 
ATOM     29  C   UNL     1       6.994  -2.098   7.227  0.00  0.00    +0.041 A 
ATOM     30  C   UNL     1       6.656  -0.815   6.835  0.00  0.00    +0.020 A 
ATOM     31  C   UNL     1       5.497  -0.230   7.309  0.00  0.00    +0.007 A 
ATOM     32 CL   UNL     1       8.446  -2.835   6.627  0.00  0.00    -0.084 Cl
ENDBRANCH  25  26
ENDBRANCH   8  25
TORSDOF 6
