REMARK  Name = ZINC49181588
REMARK  13 active torsions:
REMARK  status: ('A' for Active; 'I' for Inactive)
REMARK    1  A    between atoms: C_1  and  C_2
REMARK    2  A    between atoms: C_8  and  C_37
REMARK    3  A    between atoms: C_9  and  O_36
REMARK    4  A    between atoms: C_16  and  C_35
REMARK    5  A    between atoms: C_21  and  C_23
REMARK    6  A    between atoms: C_23  and  C_25
REMARK    7  A    between atoms: C_23  and  C_26
REMARK    8  A    between atoms: C_26  and  C_28
REMARK    9  A    between atoms: C_29  and  C_30
REMARK   10  A    between atoms: C_29  and  C_31
REMARK   11  A    between atoms: C_31  and  C_32
REMARK   12  A    between atoms: C_31  and  C_33
REMARK   13  A    between atoms: C_31  and  O_34
REMARK                            x       y       z     vdW  Elec       q    Type
REMARK                         _______ _______ _______ _____ _____    ______ ____
ROOT
ATOM      1  C   UNL     1       3.819   2.371  -0.854  0.00  0.00    +0.018 C 
ATOM      2  C   UNL     1       3.555   0.869  -0.975  0.00  0.00    +0.085 C 
ATOM      3  C   UNL     1       2.172   0.643  -1.543  0.00  0.00    +0.139 C 
ATOM      4  O   UNL     1       1.522   1.560  -1.984  0.00  0.00    -0.297 OA
ATOM      5  C   UNL     1       1.630  -0.770  -1.542  0.00  0.00    +0.075 C 
ATOM      6  C   UNL     1       1.742  -1.324  -0.119  0.00  0.00    +0.021 C 
ATOM      7  C   UNL     1       3.194  -1.232   0.364  0.00  0.00    +0.019 C 
ATOM      8  C   UNL     1       3.645   0.223   0.403  0.00  0.00    +0.085 C 
ATOM      9  C   UNL     1       2.748   0.957   1.404  0.00  0.00    +0.040 C 
ATOM     10  C   UNL     1       3.105   0.439   2.794  0.00  0.00    +0.034 C 
ATOM     11  C   UNL     1       3.215  -1.065   2.825  0.00  0.00    -0.066 C 
ATOM     12  C   UNL     1       3.248  -1.827   1.764  0.00  0.00    -0.061 C 
ATOM     13  C   UNL     1       3.317  -3.337   1.797  0.00  0.00    +0.032 C 
ATOM     14  C   UNL     1       3.439  -3.929   3.202  0.00  0.00    +0.012 C 
ATOM     15  C   UNL     1       2.577  -3.068   4.108  0.00  0.00    -0.022 C 
ATOM     16  C   UNL     1       3.318  -1.704   4.178  0.00  0.00    +0.021 C 
ATOM     17  C   UNL     1       2.575  -1.011   5.322  0.00  0.00    +0.009 C 
ATOM     18  C   UNL     1       2.415  -2.152   6.365  0.00  0.00    +0.005 C 
ATOM     19  C   UNL     1       2.482  -3.481   5.572  0.00  0.00    +0.006 C 
ATOM     20  C   UNL     1       1.178  -2.905   3.510  0.00  0.00    +0.012 C 
ATOM     21  C   UNL     1       4.099  -2.036  -0.572  0.00  0.00    +0.019 C 
ENDROOT
BRANCH  19  22
ATOM     22  C   UNL     1       3.724  -4.275   5.981  0.00  0.00    +0.060 C 
ATOM     23  C   UNL     1       3.679  -4.553   7.485  0.00  0.00    +0.016 C 
BRANCH  22  24
ATOM     24  C   UNL     1       3.756  -5.580   5.229  0.00  0.00    +0.159 C 
ATOM     25  O   UNL     1       2.719  -6.137   4.935  0.00  0.00    -0.292 OA
BRANCH  24  26
ATOM     26  C   UNL     1       5.038  -6.176   4.853  0.00  0.00    +0.048 C 
ATOM     27  C   UNL     1       5.072  -7.387   4.293  0.00  0.00    -0.039 C 
ATOM     28  C   UNL     1       3.812  -8.209   4.198  0.00  0.00    +0.042 C 
BRANCH  27  29
ATOM     29  C   UNL     1       6.370  -7.933   3.755  0.00  0.00    +0.082 C 
ATOM     30  C   UNL     1       6.719  -9.231   4.486  0.00  0.00    +0.046 C 
ATOM     31  C   UNL     1       6.224  -8.214   2.258  0.00  0.00    +0.046 C 
BRANCH  29  32
ATOM     32  O   UNL     1       7.410  -6.975   3.961  0.00  0.00    -0.385 OA
ATOM     33  H   UNL     1       8.276  -7.260   3.638  0.00  0.00    +0.211 HD
ENDBRANCH  29  32
ENDBRANCH  27  29
ENDBRANCH  24  26
ENDBRANCH  22  24
ENDBRANCH  19  22
BRANCH   8  34
ATOM     34  O   UNL     1       4.995   0.286   0.867  0.00  0.00    -0.387 OA
ATOM     35  H   UNL     1       5.341   1.186   0.948  0.00  0.00    +0.210 HD
ENDBRANCH   8  34
TORSDOF 6
