REMARK  Name = ZINC12806423
REMARK  5 active torsions:
REMARK  status: ('A' for Active; 'I' for Inactive)
REMARK    1  A    between atoms: C_1  and  C_2
REMARK    2  A    between atoms: C_2  and  O_3
REMARK    3  A    between atoms: O_3  and  C_4
REMARK    4  A    between atoms: C_7  and  C_10
REMARK    5  A    between atoms: C_13  and  C_14
REMARK                            x       y       z     vdW  Elec       q    Type
REMARK                         _______ _______ _______ _____ _____    ______ ____
ROOT
ATOM      1  C   UNL     1       4.484   8.310  -1.056  0.00  0.00    +0.232 C 
ATOM      2  N   UNL     1       3.575   7.384  -0.908  0.00  0.00    -0.205 NA
ATOM      3  C   UNL     1       2.397   7.970  -0.556  0.00  0.00    +0.152 C 
ATOM      4  C   UNL     1       1.186   7.338  -0.307  0.00  0.00    +0.042 C 
ATOM      5  C   UNL     1       2.678   9.412  -0.487  0.00  0.00    +0.364 C 
ATOM      6  O   UNL     1       1.900  10.303  -0.201  0.00  0.00    -0.243 OA
ATOM      7  O   UNL     1       3.984   9.536  -0.809  0.00  0.00    -0.402 OA
ENDROOT
BRANCH   4   8
ATOM      8  C   UNL     1       1.117   5.938  -0.288  0.00  0.00    -0.008 C 
ATOM      9  C   UNL     1      -0.090   5.311  -0.164  0.00  0.00    +0.018 C 
ATOM     10  C   UNL     1      -0.098   3.844  -0.129  0.00  0.00    +0.017 A 
ATOM     11  C   UNL     1      -1.272   3.116  -0.338  0.00  0.00    +0.011 A 
ATOM     12  C   UNL     1      -1.232   1.738  -0.301  0.00  0.00    +0.001 A 
ATOM     13  C   UNL     1      -0.040   1.078  -0.049  0.00  0.00    +0.004 A 
ATOM     14  C   UNL     1       1.129   1.788   0.160  0.00  0.00    +0.046 A 
ATOM     15  C   UNL     1       1.112   3.170   0.123  0.00  0.00    +0.128 A 
ATOM     16  O   UNL     1       2.240   3.894   0.324  0.00  0.00    -0.487 OA
ATOM     17  C   UNL     1       2.374   5.116  -0.403  0.00  0.00    +0.264 C 
ENDBRANCH   4   8
BRANCH   1  21
ATOM     18  C   UNL     1       8.513   7.549  -2.162  0.00  0.00    +0.121 A 
ATOM     19  C   UNL     1       8.093   8.853  -1.927  0.00  0.00    +0.046 A 
ATOM     20  C   UNL     1       6.787   9.104  -1.569  0.00  0.00    +0.017 A 
ATOM     21  C   UNL     1       5.884   8.046  -1.441  0.00  0.00    +0.037 A 
ATOM     22  C   UNL     1       6.311   6.735  -1.673  0.00  0.00    +0.017 A 
ATOM     23  C   UNL     1       7.618   6.494  -2.036  0.00  0.00    +0.046 A 
BRANCH  18  24
ATOM     24  O   UNL     1       9.801   7.306  -2.516  0.00  0.00    -0.492 OA
BRANCH  24  26
ATOM     25  C   UNL     1      11.644   5.867  -3.128  0.00  0.00    +0.048 C 
ATOM     26  C   UNL     1      10.165   5.943  -2.742  0.00  0.00    +0.225 C 
ENDBRANCH  24  26
ENDBRANCH  18  24
ENDBRANCH   1  21
TORSDOF 4
