REMARK  Name = ZINC50362500
REMARK  7 active torsions:
REMARK  status: ('A' for Active; 'I' for Inactive)
REMARK    1  A    between atoms: C_1  and  C_2
REMARK    2  A    between atoms: C_6  and  N_8
REMARK    3  A    between atoms: N_8  and  C_9
REMARK    4  A    between atoms: N_8  and  C_10
REMARK    5  A    between atoms: C_10  and  C_12
REMARK    6  A    between atoms: C_10  and  C_14
REMARK    7  A    between atoms: C_12  and  N_13
REMARK                            x       y       z     vdW  Elec       q    Type
REMARK                         _______ _______ _______ _____ _____    ______ ____
ROOT
ATOM      1  C   UNL     1      -0.040  -4.259   2.382  0.00  0.00    +0.122 C 
ENDROOT
BRANCH   1   2
ATOM      2  C   UNL     1      -1.326  -4.685   3.042  0.00  0.00    +0.126 A 
ATOM      3  C   UNL     1      -2.123  -5.689   2.635  0.00  0.00    +0.063 A 
ATOM      4  C   UNL     1      -3.211  -5.740   3.538  0.00  0.00    +0.070 A 
ATOM      5  C   UNL     1      -3.013  -4.763   4.443  0.00  0.00    +0.184 A 
ATOM      6  O   UNL     1      -1.866  -4.131   4.141  0.00  0.00    -0.450 OA
ATOM      7 BR   UNL     1      -4.151  -4.355   5.897  0.00  0.00    -0.007 Br
ATOM      8 BR   UNL     1      -4.665  -6.948   3.483  0.00  0.00    -0.046 Br
ENDBRANCH   1   2
BRANCH   1   9
ATOM      9  N   UNL     1       0.051  -2.796   2.390  0.00  0.00    -0.325 N 
ATOM     10  C   UNL     1       0.158  -2.076   3.661  0.00  0.00    +0.130 C 
BRANCH   9  16
ATOM     11  C   UNL     1       0.061  -2.812  -2.524  0.00  0.00    +0.044 C 
ATOM     12  C   UNL     1       0.041  -2.071  -1.212  0.00  0.00    -0.049 A 
ATOM     13  C   UNL     1       0.008  -0.688  -1.200  0.00  0.00    +0.003 A 
ATOM     14  C   UNL     1      -0.011  -0.005   0.002  0.00  0.00    +0.002 A 
ATOM     15  C   UNL     1       0.004  -0.701   1.194  0.00  0.00    +0.023 A 
ATOM     16  C   UNL     1       0.037  -2.089   1.186  0.00  0.00    +0.030 A 
ATOM     17  C   UNL     1       0.050  -2.773  -0.023  0.00  0.00    +0.026 A 
ENDBRANCH   9  16
ENDBRANCH   1   9
BRANCH   1  18
ATOM     18  C   UNL     1       1.146  -4.848   3.148  0.00  0.00    -0.056 C 
BRANCH  18  19
ATOM     19  N   UNL     1       2.400  -4.336   2.578  0.00  0.00    +0.380 N 
ATOM     20  H   UNL     1       3.182  -4.725   3.083  0.00  0.00    -0.090 HD
ATOM     21  H   UNL     1       2.461  -4.602   1.607  0.00  0.00    -0.090 HD
ATOM     22  H   UNL     1       2.417  -3.330   2.653  0.00  0.00    -0.090 HD
ENDBRANCH  18  19
ENDBRANCH   1  18
TORSDOF 5
