REMARK  Name = ZINC40371451
REMARK  10 active torsions:
REMARK  status: ('A' for Active; 'I' for Inactive)
REMARK    1  A    between atoms: C_4  and  C_7
REMARK    2  A    between atoms: C_7  and  C_8
REMARK    3  A    between atoms: N_13  and  C_14
REMARK    4  A    between atoms: N_13  and  C_32
REMARK    5  A    between atoms: C_14  and  C_15
REMARK    6  A    between atoms: C_15  and  C_16
REMARK    7  A    between atoms: N_18  and  C_19
REMARK    8  A    between atoms: N_22  and  C_25
REMARK    9  A    between atoms: C_25  and  C_26
REMARK   10  A    between atoms: C_32  and  C_33
REMARK                            x       y       z     vdW  Elec       q    Type
REMARK                         _______ _______ _______ _____ _____    ______ ____
ROOT
ATOM      1  C   UNL     1       4.164  -0.959   1.377  0.00  0.00    +0.145 A 
ATOM      2  N   UNL     1       4.914  -0.085   2.012  0.00  0.00    -0.208 NA
ATOM      3  C   UNL     1       5.275  -0.372   3.252  0.00  0.00    +0.181 A 
ATOM      4  S   UNL     1       4.553  -1.868   3.504  0.00  0.00    +0.049 S 
ATOM      5  N   UNL     1       3.817  -2.053   2.009  0.00  0.00    -0.192 NA
ATOM      6  N   UNL     1       6.052   0.373   4.121  0.00  0.00    -0.304 N 
ENDROOT
BRANCH   1   7
ATOM      7  C   UNL     1       3.711  -0.707  -0.038  0.00  0.00    +0.112 C 
BRANCH   7  11
ATOM      8  C   UNL     1      -0.017   1.378   0.010  0.00  0.00    +0.000 A 
ATOM      9  C   UNL     1       1.171   2.086   0.002  0.00  0.00    +0.000 A 
ATOM     10  C   UNL     1       2.377   1.411  -0.013  0.00  0.00    +0.004 A 
ATOM     11  C   UNL     1       2.396   0.029  -0.020  0.00  0.00    -0.040 A 
ATOM     12  C   UNL     1       1.208  -0.679  -0.012  0.00  0.00    +0.004 A 
ATOM     13  C   UNL     1       0.002  -0.004   0.002  0.00  0.00    +0.000 A 
ENDBRANCH   7  11
ENDBRANCH   1   7
BRANCH   6  14
ATOM     14  C   UNL     1       6.336  -0.133   5.466  0.00  0.00    +0.116 C 
BRANCH  14  15
ATOM     15  C   UNL     1       7.619  -0.966   5.438  0.00  0.00    +0.114 C 
BRANCH  15  16
ATOM     16  C   UNL     1       7.911  -1.486   6.822  0.00  0.00    +0.215 C 
ATOM     17  O   UNL     1       7.166  -1.218   7.740  0.00  0.00    -0.276 OA
ATOM     18  N   UNL     1       9.000  -2.250   7.039  0.00  0.00    -0.313 N 
ATOM     19  H   UNL     1       9.596  -2.465   6.304  0.00  0.00    +0.149 HD
BRANCH  18  20
ATOM     20  C   UNL     1       9.284  -2.756   8.384  0.00  0.00    +0.069 C 
ATOM     21  C   UNL     1       8.515  -4.061   8.613  0.00  0.00    +0.003 C 
ATOM     22  C   UNL     1       8.877  -4.625   9.988  0.00  0.00    -0.077 C 
ATOM     23  N   UNL     1      10.320  -4.888  10.049  0.00  0.00    +0.382 N 
ATOM     24  C   UNL     1      11.062  -3.630   9.902  0.00  0.00    -0.077 C 
ATOM     25  C   UNL     1      10.784  -3.028   8.523  0.00  0.00    +0.003 C 
ATOM     26  H   UNL     1      10.578  -5.518   9.305  0.00  0.00    -0.081 HD
BRANCH  23  27
ATOM     27  C   UNL     1      10.651  -5.502  11.342  0.00  0.00    -0.043 C 
BRANCH  27  28
ATOM     28  C   UNL     1      12.108  -5.884  11.359  0.00  0.00    -0.064 A 
ATOM     29  C   UNL     1      12.500  -7.136  10.921  0.00  0.00    +0.002 A 
ATOM     30  C   UNL     1      13.837  -7.487  10.936  0.00  0.00    +0.000 A 
ATOM     31  C   UNL     1      14.783  -6.586  11.389  0.00  0.00    +0.000 A 
ATOM     32  C   UNL     1      14.391  -5.334  11.826  0.00  0.00    +0.000 A 
ATOM     33  C   UNL     1      13.055  -4.982  11.807  0.00  0.00    +0.002 A 
ENDBRANCH  27  28
ENDBRANCH  23  27
ENDBRANCH  18  20
ENDBRANCH  15  16
ENDBRANCH  14  15
ENDBRANCH   6  14
BRANCH   6  34
ATOM     34  C   UNL     1       6.591   1.667   3.697  0.00  0.00    +0.142 C 
BRANCH  34  35
ATOM     35  C   UNL     1       5.609   2.757   4.040  0.00  0.00    -0.030 A 
ATOM     36  C   UNL     1       4.634   3.120   3.131  0.00  0.00    +0.005 A 
ATOM     37  C   UNL     1       3.733   4.120   3.446  0.00  0.00    +0.000 A 
ATOM     38  C   UNL     1       3.808   4.757   4.671  0.00  0.00    +0.000 A 
ATOM     39  C   UNL     1       4.783   4.394   5.581  0.00  0.00    +0.000 A 
ATOM     40  C   UNL     1       5.681   3.390   5.267  0.00  0.00    +0.005 A 
ENDBRANCH  34  35
ENDBRANCH   6  34
TORSDOF 10
