REMARK  Name = ZINC67389449
REMARK  10 active torsions:
REMARK  status: ('A' for Active; 'I' for Inactive)
REMARK    1  A    between atoms: C_1  and  C_2
REMARK    2  A    between atoms: C_2  and  C_3
REMARK    3  A    between atoms: C_2  and  C_4
REMARK    4  A    between atoms: C_4  and  C_5
REMARK    5  A    between atoms: C_5  and  C_6
REMARK    6  A    between atoms: N_8  and  N_9
REMARK    7  A    between atoms: N_12  and  C_13
REMARK    8  A    between atoms: C_13  and  C_14
REMARK    9  A    between atoms: C_14  and  C_16
REMARK   10  A    between atoms: C_14  and  N_23
REMARK                            x       y       z     vdW  Elec       q    Type
REMARK                         _______ _______ _______ _____ _____    ______ ____
ROOT
ATOM      1  N   UNL     1      -5.613  -0.868  -2.305  0.00  0.00    -0.218 N 
ATOM      2  C   UNL     1      -6.468  -0.560  -3.300  0.00  0.00    +0.316 C 
ATOM      3  O   UNL     1      -7.644  -0.852  -3.203  0.00  0.00    -0.251 OA
ATOM      4  N   UNL     1      -6.019   0.071  -4.403  0.00  0.00    -0.299 N 
ATOM      5  H   UNL     1      -5.936  -1.322  -1.511  0.00  0.00    +0.174 HD
ATOM      6  H   UNL     1      -5.081   0.303  -4.481  0.00  0.00    +0.150 HD
ENDROOT
BRANCH   1   9
ATOM      7  C   UNL     1      -3.402  -0.839  -1.422  0.00  0.00    +0.229 C 
ATOM      8  O   UNL     1      -3.806  -1.407  -0.429  0.00  0.00    -0.274 OA
ATOM      9  N   UNL     1      -4.257  -0.532  -2.417  0.00  0.00    -0.233 N 
ATOM     10  H   UNL     1      -3.934  -0.077  -3.211  0.00  0.00    +0.173 HD
BRANCH   7  11
ATOM     11  C   UNL     1      -1.944  -0.477  -1.542  0.00  0.00    +0.097 C 
BRANCH  11  12
ATOM     12  C   UNL     1      -1.200  -0.935  -0.287  0.00  0.00    +0.012 C 
BRANCH  12  14
ATOM     13  C   UNL     1       0.428   0.955  -0.435  0.00  0.00    +0.007 C 
ATOM     14  C   UNL     1       0.281  -0.568  -0.409  0.00  0.00    -0.017 C 
ATOM     15  C   UNL     1       1.047  -1.134   0.788  0.00  0.00    +0.007 C 
ENDBRANCH  12  14
ENDBRANCH  11  12
ENDBRANCH   7  11
ENDBRANCH   1   9
BRANCH   4  16
ATOM     16  C   UNL     1      -6.949   0.405  -5.485  0.00  0.00    +0.095 C 
BRANCH  16  17
ATOM     17  C   UNL     1      -6.212   1.205  -6.562  0.00  0.00    -0.020 C 
BRANCH  17  18
ATOM     18  C   UNL     1      -5.166   0.333  -7.207  0.00  0.00    -0.058 A 
ATOM     19  C   UNL     1      -5.529  -0.573  -8.186  0.00  0.00    +0.002 A 
ATOM     20  C   UNL     1      -4.570  -1.373  -8.778  0.00  0.00    +0.002 A 
ATOM     21  C   UNL     1      -3.247  -1.267  -8.392  0.00  0.00    +0.020 A 
ATOM     22  C   UNL     1      -2.883  -0.360  -7.413  0.00  0.00    +0.041 A 
ATOM     23  C   UNL     1      -3.842   0.445  -6.825  0.00  0.00    +0.022 A 
ATOM     24 CL   UNL     1      -1.221  -0.226  -6.928  0.00  0.00    -0.084 Cl
ENDBRANCH  17  18
BRANCH  17  25
ATOM     25  N   UNL     1      -7.171   1.654  -7.580  0.00  0.00    +0.385 N 
ATOM     26  C   UNL     1      -8.168   2.574  -6.974  0.00  0.00    -0.078 C 
ATOM     27  C   UNL     1      -8.705   3.366  -8.192  0.00  0.00    -0.020 C 
ATOM     28  C   UNL     1      -7.444   3.555  -9.066  0.00  0.00    -0.020 C 
ATOM     29  C   UNL     1      -6.477   2.442  -8.622  0.00  0.00    -0.078 C 
ATOM     30  H   UNL     1      -7.636   0.861  -7.995  0.00  0.00    -0.081 HD
ENDBRANCH  17  25
ENDBRANCH  16  17
ENDBRANCH   4  16
TORSDOF 8
