REMARK  Name = ZINC13032384
REMARK  14 active torsions:
REMARK  status: ('A' for Active; 'I' for Inactive)
REMARK    1  A    between atoms: C_1  and  C_2
REMARK    2  A    between atoms: C_2  and  C_3
REMARK    3  A    between atoms: C_8  and  N_9
REMARK    4  A    between atoms: N_9  and  C_10
REMARK    5  A    between atoms: C_10  and  C_12
REMARK    6  A    between atoms: C_10  and  C_19
REMARK    7  A    between atoms: C_15  and  O_18
REMARK    8  A    between atoms: N_21  and  C_22
REMARK    9  A    between atoms: C_22  and  C_23
REMARK   10  A    between atoms: C_22  and  C_24
REMARK   11  A    between atoms: C_22  and  C_25
REMARK   12  A    between atoms: C_25  and  C_26
REMARK   13  A    between atoms: C_27  and  C_29
REMARK   14  A    between atoms: C_29  and  N_30
REMARK                            x       y       z     vdW  Elec       q    Type
REMARK                         _______ _______ _______ _____ _____    ______ ____
ROOT
ATOM      1  N   UNL     1      -5.026   2.987  -1.312  0.00  0.00    -0.254 N 
ATOM      2  C   UNL     1      -3.874   3.675  -1.183  0.00  0.00    +0.242 C 
ATOM      3  O   UNL     1      -3.685   4.672  -1.848  0.00  0.00    -0.273 OA
ENDROOT
BRANCH   1   9
ATOM      4  C   UNL     1      -5.012   0.591  -1.008  0.00  0.00    -0.026 A 
ATOM      5  C   UNL     1      -5.243  -0.515  -0.214  0.00  0.00    +0.005 A 
ATOM      6  C   UNL     1      -5.733  -0.357   1.069  0.00  0.00    +0.000 A 
ATOM      7  C   UNL     1      -5.989   0.908   1.564  0.00  0.00    +0.002 A 
ATOM      8  C   UNL     1      -5.756   2.019   0.777  0.00  0.00    +0.024 A 
ATOM      9  C   UNL     1      -5.263   1.864  -0.513  0.00  0.00    +0.041 A 
BRANCH   4  11
ATOM     10  C   UNL     1      -2.976   0.674  -2.421  0.00  0.00    +0.009 C 
ATOM     11  C   UNL     1      -4.484   0.418  -2.409  0.00  0.00    +0.033 C 
ENDBRANCH   4  11
ENDBRANCH   1   9
BRANCH   1  12
ATOM     12  C   UNL     1      -6.029   3.415  -2.291  0.00  0.00    +0.197 C 
BRANCH  12  13
ATOM     13  C   UNL     1      -6.451   4.830  -1.991  0.00  0.00    -0.018 A 
ATOM     14  C   UNL     1      -6.740   5.203  -0.691  0.00  0.00    +0.009 A 
ATOM     15  C   UNL     1      -7.122   6.501  -0.413  0.00  0.00    +0.046 A 
ATOM     16  C   UNL     1      -7.228   7.427  -1.441  0.00  0.00    +0.117 A 
ATOM     17  C   UNL     1      -6.943   7.049  -2.744  0.00  0.00    +0.046 A 
ATOM     18  C   UNL     1      -6.555   5.751  -3.017  0.00  0.00    +0.009 A 
BRANCH  16  19
ATOM     19  O   UNL     1      -7.610   8.703  -1.170  0.00  0.00    -0.507 OA
ATOM     20  H   UNL     1      -8.566   8.844  -1.210  0.00  0.00    +0.292 HD
ENDBRANCH  16  19
ENDBRANCH  12  13
BRANCH  12  21
ATOM     21  C   UNL     1      -7.227   2.505  -2.212  0.00  0.00    +0.239 C 
ATOM     22  O   UNL     1      -7.643   2.142  -1.132  0.00  0.00    -0.273 OA
ATOM     23  N   UNL     1      -7.838   2.095  -3.342  0.00  0.00    -0.308 N 
ATOM     24  H   UNL     1      -7.505   2.385  -4.205  0.00  0.00    +0.149 HD
BRANCH  23  25
ATOM     25  C   UNL     1      -9.003   1.210  -3.265  0.00  0.00    +0.029 C 
ATOM     26  C   UNL     1      -8.610  -0.091  -2.563  0.00  0.00    +0.031 C 
ATOM     27  C   UNL     1     -10.116   1.900  -2.474  0.00  0.00    +0.031 C 
BRANCH  25  28
ATOM     28  C   UNL     1      -9.500   0.898  -4.678  0.00  0.00    +0.022 C 
ATOM     29  C   UNL     1     -10.717  -0.026  -4.598  0.00  0.00    +0.006 C 
ENDBRANCH  25  28
ENDBRANCH  23  25
ENDBRANCH  12  21
ENDBRANCH   1  12
BRANCH   2  30
ATOM     30  C   UNL     1      -2.821   3.207  -0.212  0.00  0.00    +0.242 C 
BRANCH  30  31
ATOM     31  N   UNL     1      -1.754   4.207  -0.129  0.00  0.00    -0.235 N 
ATOM     32  C   UNL     1      -0.620   4.266  -0.903  0.00  0.00    +0.090 A 
ATOM     33  C   UNL     1      -0.119   3.490  -1.943  0.00  0.00    +0.029 A 
ATOM     34  C   UNL     1       1.075   3.820  -2.522  0.00  0.00    +0.002 A 
ATOM     35  C   UNL     1       1.789   4.929  -2.087  0.00  0.00    +0.002 A 
ATOM     36  C   UNL     1       1.316   5.708  -1.072  0.00  0.00    +0.032 A 
ATOM     37  C   UNL     1       0.097   5.390  -0.458  0.00  0.00    +0.113 A 
ATOM     38  N   UNL     1      -0.607   5.956   0.542  0.00  0.00    -0.129 NA
ATOM     39  N   UNL     1      -1.688   5.292   0.757  0.00  0.00    -0.064 NA
ENDBRANCH  30  31
ENDBRANCH   2  30
TORSDOF 10
