REMARK  Name = ZINC40281511
REMARK  6 active torsions:
REMARK  status: ('A' for Active; 'I' for Inactive)
REMARK    1  A    between atoms: C_1  and  C_2
REMARK    2  A    between atoms: C_2  and  C_4
REMARK    3  A    between atoms: C_2  and  N_26
REMARK    4  A    between atoms: N_12  and  C_13
REMARK    5  A    between atoms: C_13  and  C_14
REMARK    6  A    between atoms: C_27  and  C_29
REMARK                            x       y       z     vdW  Elec       q    Type
REMARK                         _______ _______ _______ _____ _____    ______ ____
ROOT
ATOM      1  C   UNL     1       0.684  -0.500  -1.223  0.00  0.00    +0.131 A 
ATOM      2  N   UNL     1       0.187  -0.476  -2.426  0.00  0.00    -0.230 NA
ATOM      3  C   UNL     1       1.102  -0.957  -3.307  0.00  0.00    +0.089 A 
ATOM      4  C   UNL     1       1.098  -1.150  -4.691  0.00  0.00    +0.030 A 
ATOM      5  C   UNL     1       2.200  -1.668  -5.309  0.00  0.00    +0.002 A 
ATOM      6  C   UNL     1       3.329  -2.006  -4.576  0.00  0.00    +0.002 A 
ATOM      7  C   UNL     1       3.356  -1.824  -3.210  0.00  0.00    +0.028 A 
ATOM      8  C   UNL     1       2.245  -1.298  -2.564  0.00  0.00    +0.069 A 
ATOM      9  N   UNL     1       1.952  -0.993  -1.251  0.00  0.00    -0.317 N 
ENDROOT
BRANCH   1  11
ATOM     10  C   UNL     1      -0.086   1.485   0.048  0.00  0.00    +0.036 C 
ATOM     11  C   UNL     1      -0.038  -0.044   0.018  0.00  0.00    +0.136 C 
BRANCH  11  12
ATOM     12  N   UNL     1      -1.404  -0.575   0.012  0.00  0.00    -0.302 N 
ATOM     13  C   UNL     1      -2.066  -0.746   1.174  0.00  0.00    +0.245 C 
ATOM     14  O   UNL     1      -1.529  -0.460   2.227  0.00  0.00    -0.270 OA
ATOM     15  H   UNL     1      -1.832  -0.803  -0.828  0.00  0.00    +0.150 HD
BRANCH  13  16
ATOM     16  C   UNL     1      -3.443  -1.282   1.167  0.00  0.00    +0.037 A 
ATOM     17  C   UNL     1      -4.059  -1.617  -0.040  0.00  0.00    +0.014 A 
ATOM     18  C   UNL     1      -5.345  -2.116  -0.039  0.00  0.00    +0.016 A 
ATOM     19  C   UNL     1      -6.024  -2.286   1.156  0.00  0.00    +0.018 A 
ATOM     20  C   UNL     1      -5.418  -1.956   2.356  0.00  0.00    +0.016 A 
ATOM     21  C   UNL     1      -4.131  -1.461   2.369  0.00  0.00    +0.014 A 
ATOM     22 BR   UNL     1      -7.787  -2.970   1.148  0.00  0.00    -0.050 Br
ENDBRANCH  13  16
ENDBRANCH  11  12
ENDBRANCH   1  11
BRANCH   9  23
ATOM     23  C   UNL     1       2.840  -1.169  -0.099  0.00  0.00    +0.219 C 
BRANCH  23  24
ATOM     24  C   UNL     1       2.638  -2.543   0.485  0.00  0.00    +0.240 C 
ATOM     25  O   UNL     1       1.770  -3.267   0.046  0.00  0.00    -0.273 OA
ATOM     26  N   UNL     1       3.423  -2.968   1.496  0.00  0.00    -0.270 N 
ATOM     27  C   UNL     1       4.420  -2.070   2.094  0.00  0.00    +0.114 C 
ATOM     28  C   UNL     1       5.723  -2.864   2.262  0.00  0.00    +0.024 C 
ATOM     29  C   UNL     1       5.479  -4.013   3.240  0.00  0.00    +0.038 C 
ATOM     30  C   UNL     1       4.268  -4.807   2.829  0.00  0.00    -0.026 A 
ATOM     31  C   UNL     1       3.296  -4.271   1.997  0.00  0.00    +0.039 A 
ATOM     32  C   UNL     1       2.185  -5.027   1.644  0.00  0.00    +0.024 A 
ATOM     33  C   UNL     1       2.043  -6.313   2.125  0.00  0.00    +0.002 A 
ATOM     34  C   UNL     1       3.009  -6.848   2.957  0.00  0.00    +0.000 A 
ATOM     35  C   UNL     1       4.123  -6.101   3.302  0.00  0.00    +0.005 A 
ENDBRANCH  23  24
ENDBRANCH   9  23
TORSDOF 5
