REMARK  Name = ZINC03454361
REMARK  5 active torsions:
REMARK  status: ('A' for Active; 'I' for Inactive)
REMARK    1  A    between atoms: C_3  and  O_24
REMARK    2  A    between atoms: C_4  and  C_8
REMARK    3  A    between atoms: C_9  and  C_10
REMARK    4  A    between atoms: C_15  and  C_18
REMARK    5  A    between atoms: O_24  and  C_25
REMARK                            x       y       z     vdW  Elec       q    Type
REMARK                         _______ _______ _______ _____ _____    ______ ____
ROOT
ATOM      1  C   UNL     1       0.358  10.422   0.054  0.00  0.00    +0.243 C 
ATOM      2  O   UNL     1       1.575  10.469   0.042  0.00  0.00    -0.270 OA
ATOM      3  N   UNL     1      -0.270   9.230   0.053  0.00  0.00    -0.261 N 
ATOM      4  C   UNL     1       0.469   8.056   0.040  0.00  0.00    +0.165 A 
ATOM      5  N   UNL     1       0.048   6.805   0.032  0.00  0.00    -0.224 NA
ATOM      6  C   UNL     1       0.907   5.789   0.024  0.00  0.00    +0.087 A 
ATOM      7  C   UNL     1       2.251   6.050   0.012  0.00  0.00    +0.077 A 
ATOM      8  S   UNL     1       2.243   7.838   0.021  0.00  0.00    -0.060 S 
ATOM      9  H   UNL     1      -1.240   9.193   0.063  0.00  0.00    +0.157 HD
ENDROOT
BRANCH   6  10
ATOM     10  C   UNL     1       0.417   4.394   0.021  0.00  0.00    +0.040 A 
ATOM     11  C   UNL     1      -0.872   3.933   0.031  0.00  0.00    +0.019 A 
ATOM     12  C   UNL     1      -1.089   2.571   0.020  0.00  0.00    +0.028 A 
ATOM     13  C   UNL     1      -0.021   1.732   0.012  0.00  0.00    +0.079 A 
ATOM     14  S   UNL     1       1.351   2.873   0.005  0.00  0.00    -0.075 S 
ATOM     15 CL   UNL     1       0.002  -0.004   0.002  0.00  0.00    -0.076 Cl
ENDBRANCH   6  10
BRANCH   1  17
ATOM     16  C   UNL     1       0.209  12.854   0.068  0.00  0.00    +0.016 C 
ATOM     17  C   UNL     1      -0.420  11.659   0.068  0.00  0.00    +0.068 C 
BRANCH  16  21
ATOM     18  C   UNL     1      -2.052  16.445   0.109  0.00  0.00    +0.019 A 
ATOM     19  C   UNL     1      -0.671  16.507   0.096  0.00  0.00    +0.047 A 
ATOM     20  C   UNL     1       0.077  15.341   0.083  0.00  0.00    +0.134 A 
ATOM     21  C   UNL     1      -0.573  14.097   0.083  0.00  0.00    +0.018 A 
ATOM     22  C   UNL     1      -1.971  14.048   0.091  0.00  0.00    +0.026 A 
ATOM     23  C   UNL     1      -2.699  15.219   0.109  0.00  0.00    +0.019 A 
ATOM     24 BR   UNL     1      -4.589  15.153   0.126  0.00  0.00    -0.050 Br
BRANCH  20  25
ATOM     25  O   UNL     1       1.433  15.402   0.071  0.00  0.00    -0.434 OA
BRANCH  25  26
ATOM     26  C   UNL     1       2.024  16.703   0.072  0.00  0.00    +0.541 C 
ATOM     27  F   UNL     1       1.606  17.406  -1.063  0.00  0.00    -0.166 F 
ATOM     28  F   UNL     1       1.627  17.395   1.221  0.00  0.00    -0.166 F 
ENDBRANCH  25  26
ENDBRANCH  20  25
ENDBRANCH  16  21
ENDBRANCH   1  17
TORSDOF 5
