REMARK  Name = ZINC39676789
REMARK  12 active torsions:
REMARK  status: ('A' for Active; 'I' for Inactive)
REMARK    1  A    between atoms: C_1  and  C_2
REMARK    2  A    between atoms: C_2  and  C_3
REMARK    3  A    between atoms: C_3  and  C_4
REMARK    4  A    between atoms: C_4  and  C_5
REMARK    5  A    between atoms: C_5  and  C_7
REMARK    6  A    between atoms: C_5  and  C_8
REMARK    7  A    between atoms: C_12  and  C_21
REMARK    8  A    between atoms: N_23  and  C_24
REMARK    9  A    between atoms: C_24  and  C_26
REMARK   10  A    between atoms: C_24  and  C_27
REMARK   11  A    between atoms: C_31  and  O_33
REMARK   12  A    between atoms: O_33  and  C_34
REMARK                            x       y       z     vdW  Elec       q    Type
REMARK                         _______ _______ _______ _____ _____    ______ ____
ROOT
ATOM      1  C   UNL     1       1.419  -4.198   2.489  0.00  0.00    +0.218 C 
ATOM      2  O   UNL     1       0.789  -4.825   1.664  0.00  0.00    -0.275 OA
ATOM      3  N   UNL     1       1.986  -4.837   3.532  0.00  0.00    -0.300 N 
ATOM      4  C   UNL     1       2.781  -4.248   4.635  0.00  0.00    +0.121 C 
ATOM      5  C   UNL     1       2.333  -5.022   5.896  0.00  0.00    +0.100 C 
ATOM      6  C   UNL     1       1.794  -6.360   5.363  0.00  0.00    -0.004 C 
ATOM      7  C   UNL     1       1.950  -6.288   3.837  0.00  0.00    +0.115 C 
ATOM      8  C   UNL     1       0.322  -6.521   5.730  0.00  0.00    -0.010 C 
ATOM      9  C   UNL     1      -0.176  -7.883   5.240  0.00  0.00    -0.082 C 
ATOM     10  N   UNL     1       0.622  -8.949   5.859  0.00  0.00    +0.379 N 
ATOM     11  C   UNL     1       2.021  -8.842   5.427  0.00  0.00    -0.082 C 
ATOM     12  C   UNL     1       2.612  -7.520   5.924  0.00  0.00    -0.010 C 
ATOM     13  H   UNL     1       0.574  -8.863   6.863  0.00  0.00    -0.086 HD
ATOM     14  H   UNL     1       0.254  -9.847   5.582  0.00  0.00    -0.086 HD
ENDROOT
BRANCH   5  15
ATOM     15  C   UNL     1       3.506  -5.253   6.814  0.00  0.00    +0.219 C 
ATOM     16  O   UNL     1       4.620  -5.383   6.353  0.00  0.00    -0.275 OA
ATOM     17  N   UNL     1       3.316  -5.315   8.146  0.00  0.00    -0.308 N 
ATOM     18  H   UNL     1       2.425  -5.211   8.515  0.00  0.00    +0.149 HD
BRANCH  17  19
ATOM     19  C   UNL     1       4.456  -5.540   9.039  0.00  0.00    +0.100 C 
ATOM     20  C   UNL     1       4.724  -7.042   9.155  0.00  0.00    +0.033 C 
BRANCH  19  21
ATOM     21  C   UNL     1       4.145  -4.978  10.402  0.00  0.00    -0.024 A 
ATOM     22  C   UNL     1       2.881  -5.133  10.941  0.00  0.00    +0.005 A 
ATOM     23  C   UNL     1       2.592  -4.619  12.192  0.00  0.00    +0.004 A 
ATOM     24  C   UNL     1       3.567  -3.949  12.906  0.00  0.00    +0.045 A 
ATOM     25  C   UNL     1       4.835  -3.792  12.367  0.00  0.00    +0.120 A 
ATOM     26  C   UNL     1       5.124  -4.314  11.115  0.00  0.00    +0.051 A 
BRANCH  25  27
ATOM     27  O   UNL     1       5.795  -3.133  13.068  0.00  0.00    -0.495 OA
ATOM     28  C   UNL     1       5.429  -2.627  14.353  0.00  0.00    +0.277 C 
ENDBRANCH  25  27
ENDBRANCH  19  21
ENDBRANCH  17  19
ENDBRANCH   5  15
BRANCH   1  29
ATOM     29  C   UNL     1       1.568  -2.705   2.349  0.00  0.00    +0.072 C 
ATOM     30  C   UNL     1       3.052  -2.349   2.239  0.00  0.00    +0.017 C 
BRANCH  29  31
ATOM     31  C   UNL     1       0.836  -2.236   1.091  0.00  0.00    +0.012 C 
BRANCH  31  32
ATOM     32  C   UNL     1       0.881  -0.708   1.015  0.00  0.00    +0.000 C 
BRANCH  32  34
ATOM     33  C   UNL     1       0.193   1.289  -0.320  0.00  0.00    +0.004 C 
ATOM     34  C   UNL     1       0.148  -0.238  -0.244  0.00  0.00    -0.003 C 
ENDBRANCH  32  34
ENDBRANCH  31  32
ENDBRANCH  29  31
ENDBRANCH   1  29
TORSDOF 8
