REMARK  Name = ZINC39666810
REMARK  9 active torsions:
REMARK  status: ('A' for Active; 'I' for Inactive)
REMARK    1  A    between atoms: C_1  and  C_2
REMARK    2  A    between atoms: C_2  and  C_3
REMARK    3  A    between atoms: C_3  and  C_4
REMARK    4  A    between atoms: C_3  and  C_6
REMARK    5  A    between atoms: C_4  and  C_5
REMARK    6  A    between atoms: C_6  and  N_7
REMARK    7  A    between atoms: C_8  and  C_10
REMARK    8  A    between atoms: C_21  and  C_23
REMARK    9  A    between atoms: N_27  and  C_28
REMARK                            x       y       z     vdW  Elec       q    Type
REMARK                         _______ _______ _______ _____ _____    ______ ____
ROOT
ATOM      1  C   UNL     1      -4.974  -3.497   0.057  0.00  0.00    +0.100 C 
ATOM      2  C   UNL     1      -5.285  -3.376  -1.452  0.00  0.00    +0.121 C 
ATOM      3  N   UNL     1      -4.874  -4.679  -2.024  0.00  0.00    -0.295 N 
ATOM      4  C   UNL     1      -5.296  -5.676  -1.012  0.00  0.00    +0.115 C 
ATOM      5  C   UNL     1      -4.986  -5.008   0.343  0.00  0.00    -0.004 C 
ATOM      6  C   UNL     1      -6.072  -5.345   1.359  0.00  0.00    -0.010 C 
ATOM      7  C   UNL     1      -6.026  -6.843   1.671  0.00  0.00    -0.082 C 
ATOM      8  N   UNL     1      -4.704  -7.194   2.204  0.00  0.00    +0.379 N 
ATOM      9  C   UNL     1      -3.674  -6.954   1.185  0.00  0.00    -0.082 C 
ATOM     10  C   UNL     1      -3.621  -5.460   0.853  0.00  0.00    -0.010 C 
ATOM     11  C   UNL     1      -4.256  -4.907  -3.201  0.00  0.00    +0.263 C 
ATOM     12  O   UNL     1      -4.142  -6.045  -3.618  0.00  0.00    -0.268 OA
ATOM     13  H   UNL     1      -4.510  -6.628   3.017  0.00  0.00    -0.086 HD
ATOM     14  H   UNL     1      -4.696  -8.168   2.465  0.00  0.00    -0.086 HD
ENDROOT
BRANCH  11  15
ATOM     15  C   UNL     1      -3.722  -3.784  -3.978  0.00  0.00    +0.104 A 
ATOM     16  C   UNL     1      -3.454  -2.518  -3.502  0.00  0.00    +0.032 A 
ATOM     17  C   UNL     1      -2.961  -1.771  -4.577  0.00  0.00    +0.020 A 
ATOM     18  C   UNL     1      -2.936  -2.576  -5.666  0.00  0.00    +0.086 A 
ATOM     19  N   UNL     1      -3.391  -3.804  -5.314  0.00  0.00    -0.346 N 
ATOM     20  C   UNL     1      -3.513  -4.958  -6.207  0.00  0.00    +0.149 C 
ENDBRANCH  11  15
BRANCH   1  22
ATOM     21  N   UNL     1      -3.319  -2.521   1.615  0.00  0.00    -0.315 N 
ATOM     22  C   UNL     1      -3.617  -2.916   0.361  0.00  0.00    +0.218 C 
ATOM     23  O   UNL     1      -2.793  -2.804  -0.521  0.00  0.00    -0.275 OA
ATOM     24  H   UNL     1      -3.950  -2.676   2.336  0.00  0.00    +0.149 HD
BRANCH  21  25
ATOM     25  C   UNL     1      -2.043  -1.856   1.890  0.00  0.00    +0.107 C 
BRANCH  25  26
ATOM     26  C   UNL     1      -2.007  -1.404   3.351  0.00  0.00    +0.006 C 
BRANCH  26  28
ATOM     27  C   UNL     1      -2.057  -2.185   5.724  0.00  0.00    +0.004 C 
ATOM     28  C   UNL     1      -1.967  -2.632   4.264  0.00  0.00    +0.002 C 
ENDBRANCH  26  28
BRANCH  26  29
ATOM     29  C   UNL     1      -0.760  -0.550   3.591  0.00  0.00    +0.002 C 
ATOM     30  C   UNL     1      -0.849   0.728   2.754  0.00  0.00    +0.004 C 
ENDBRANCH  26  29
ENDBRANCH  25  26
ENDBRANCH  21  25
ENDBRANCH   1  22
TORSDOF 6
