REMARK  Name = ZINC20879780
REMARK  9 active torsions:
REMARK  status: ('A' for Active; 'I' for Inactive)
REMARK    1  A    between atoms: C_1  and  C_2
REMARK    2  A    between atoms: C_2  and  O_3
REMARK    3  A    between atoms: O_3  and  C_4
REMARK    4  A    between atoms: C_6  and  C_20
REMARK    5  A    between atoms: C_9  and  O_10
REMARK    6  A    between atoms: O_10  and  C_11
REMARK    7  A    between atoms: C_11  and  C_12
REMARK    8  A    between atoms: C_20  and  N_21
REMARK    9  A    between atoms: N_21  and  C_22
REMARK                            x       y       z     vdW  Elec       q    Type
REMARK                         _______ _______ _______ _____ _____    ______ ____
ROOT
ATOM      1  C   UNL     1       1.218  -0.680  -0.013  0.00  0.00    +0.164 A 
ATOM      2  C   UNL     1       2.405   0.035  -0.021  0.00  0.00    +0.054 A 
ATOM      3  C   UNL     1       2.380   1.417  -0.013  0.00  0.00    -0.025 A 
ATOM      4  C   UNL     1       1.172   2.090   0.002  0.00  0.00    +0.029 A 
ATOM      5  C   UNL     1      -0.017   1.382   0.010  0.00  0.00    +0.086 A 
ATOM      6  C   UNL     1       0.002  -0.004   0.002  0.00  0.00    +0.181 A 
ATOM      7 CL   UNL     1      -1.532   2.230   0.021  0.00  0.00    -0.080 Cl
ENDROOT
BRANCH   1   8
ATOM      8  O   UNL     1       1.242  -2.040  -0.021  0.00  0.00    -0.489 OA
BRANCH   8  10
ATOM      9  C   UNL     1       2.352  -4.186  -0.044  0.00  0.00    +0.048 C 
ATOM     10  C   UNL     1       2.526  -2.666  -0.037  0.00  0.00    +0.226 C 
ENDBRANCH   8  10
ENDBRANCH   1   8
BRANCH   6  11
ATOM     11  O   UNL     1      -1.166  -0.702   0.009  0.00  0.00    -0.482 OA
BRANCH  11  12
ATOM     12  C   UNL     1      -1.734  -1.028  -1.261  0.00  0.00    +0.264 C 
BRANCH  12  13
ATOM     13  C   UNL     1      -3.015  -1.795  -1.056  0.00  0.00    -0.010 A 
ATOM     14  C   UNL     1      -2.989  -3.175  -0.979  0.00  0.00    +0.008 A 
ATOM     15  C   UNL     1      -4.162  -3.879  -0.785  0.00  0.00    +0.020 A 
ATOM     16  C   UNL     1      -5.365  -3.203  -0.679  0.00  0.00    +0.041 A 
ATOM     17  C   UNL     1      -5.391  -1.822  -0.762  0.00  0.00    +0.020 A 
ATOM     18  C   UNL     1      -4.216  -1.119  -0.951  0.00  0.00    +0.008 A 
ATOM     19 CL   UNL     1      -6.840  -4.087  -0.443  0.00  0.00    -0.084 Cl
ENDBRANCH  12  13
ENDBRANCH  11  12
ENDBRANCH   6  11
BRANCH   3  20
ATOM     20  C   UNL     1       3.672   2.193  -0.020  0.00  0.00    +0.137 C 
BRANCH  20  21
ATOM     21  N   UNL     1       4.078   2.452  -1.403  0.00  0.00    -0.340 N 
ATOM     22  H   UNL     1       3.458   2.089  -2.236  0.00  0.00    +0.146 HD
BRANCH  21  23
ATOM     23  C   UNL     1       5.255   3.161  -1.665  0.00  0.00    +0.029 A 
ATOM     24  C   UNL     1       6.036   3.624  -0.612  0.00  0.00    +0.025 A 
ATOM     25  C   UNL     1       7.201   4.320  -0.864  0.00  0.00    +0.029 A 
ATOM     26  C   UNL     1       7.590   4.568  -2.172  0.00  0.00    +0.067 A 
ATOM     27  C   UNL     1       6.806   4.109  -3.232  0.00  0.00    +0.069 A 
ATOM     28  C   UNL     1       5.639   3.406  -2.976  0.00  0.00    +0.050 A 
ATOM     29  N   UNL     1       7.444   4.504  -4.405  0.00  0.00    -0.306 N 
ATOM     30  H   UNL     1       7.005   4.252  -5.382  0.00  0.00    +0.170 HD
ATOM     31  C   UNL     1       8.565   5.173  -4.076  0.00  0.00    +0.325 A 
ATOM     32  O   UNL     1       9.353   5.654  -4.869  0.00  0.00    -0.247 OA
ATOM     33  N   UNL     1       8.682   5.229  -2.736  0.00  0.00    -0.306 N 
ATOM     34  H   UNL     1       9.447   5.680  -2.087  0.00  0.00    +0.170 HD
ENDBRANCH  21  23
ENDBRANCH  20  21
ENDBRANCH   3  20
TORSDOF 8
