REMARK  Name = ZINC12543749
REMARK  6 active torsions:
REMARK  status: ('A' for Active; 'I' for Inactive)
REMARK    1  A    between atoms: C_4  and  N_7
REMARK    2  A    between atoms: C_11  and  S_12
REMARK    3  A    between atoms: S_12  and  C_13
REMARK    4  A    between atoms: C_13  and  C_14
REMARK    5  A    between atoms: N_16  and  C_17
REMARK    6  A    between atoms: C_18  and  C_26
REMARK                            x       y       z     vdW  Elec       q    Type
REMARK                         _______ _______ _______ _____ _____    ______ ____
ROOT
ATOM      1  C   UNL     1       7.699   4.551   1.103  0.00  0.00    +0.173 C 
ENDROOT
BRANCH   1   2
ATOM      2  C   UNL     1       8.592   5.754   0.939  0.00  0.00    +0.228 C 
ATOM      3  O   UNL     1       8.105   6.851   0.769  0.00  0.00    -0.275 OA
ATOM      4  N   UNL     1       9.931   5.610   0.980  0.00  0.00    -0.279 N 
ATOM      5  H   UNL     1      10.320   4.731   1.115  0.00  0.00    +0.155 HD
BRANCH   4   6
ATOM      6  C   UNL     1      10.752   6.716   0.828  0.00  0.00    +0.084 A 
ATOM      7  C   UNL     1      12.139   6.770   0.847  0.00  0.00    +0.068 A 
ATOM      8  C   UNL     1      12.763   8.069   0.659  0.00  0.00    -0.023 A 
ATOM      9  C   UNL     1      11.907   9.100   0.495  0.00  0.00    -0.004 A 
ATOM     10  S   UNL     1      10.297   8.369   0.578  0.00  0.00    -0.077 S 
ATOM     11  C   UNL     1      12.258  10.542   0.289  0.00  0.00    +0.043 C 
ATOM     12  C   UNL     1      13.733  10.739   0.665  0.00  0.00    +0.005 C 
ATOM     13  C   UNL     1      14.564   9.642  -0.007  0.00  0.00    +0.005 C 
ATOM     14  C   UNL     1      14.271   8.291   0.649  0.00  0.00    +0.037 C 
BRANCH   7  15
ATOM     15  C   UNL     1      12.944   5.561   1.044  0.00  0.00    +0.244 C 
ATOM     16  O   UNL     1      13.299   4.903   0.083  0.00  0.00    -0.270 OA
ATOM     17  N   UNL     1      13.292   5.178   2.288  0.00  0.00    -0.325 N 
ATOM     18  H   UNL     1      13.009   5.703   3.054  0.00  0.00    +0.145 HD
ATOM     19  H   UNL     1      13.825   4.378   2.419  0.00  0.00    +0.145 HD
ENDBRANCH   7  15
ENDBRANCH   4   6
ENDBRANCH   1   2
BRANCH   1  20
ATOM     20  S   UNL     1       5.963   5.067   1.001  0.00  0.00    -0.076 S 
BRANCH  20  25
ATOM     21  N   UNL     1       3.696   3.444   1.207  0.00  0.00    -0.259 N 
ATOM     22  C   UNL     1       3.394   2.123   1.398  0.00  0.00    +0.225 A 
ATOM     23  N   UNL     1       4.520   1.464   1.518  0.00  0.00    -0.112 NA
ATOM     24  N   UNL     1       5.574   2.377   1.393  0.00  0.00    -0.120 NA
ATOM     25  C   UNL     1       5.059   3.569   1.209  0.00  0.00    +0.198 A 
ATOM     26  N   UNL     1       2.118   1.578   1.459  0.00  0.00    -0.299 N 
ATOM     27  C   UNL     1       1.921   0.579   0.402  0.00  0.00    +0.108 C 
ATOM     28  C   UNL     1       0.465   0.107   0.408  0.00  0.00    +0.019 C 
ATOM     29  C   UNL     1       0.136  -0.498   1.776  0.00  0.00    +0.003 C 
ATOM     30  C   UNL     1       0.395   0.548   2.864  0.00  0.00    +0.019 C 
ATOM     31  C   UNL     1       1.853   1.007   2.786  0.00  0.00    +0.108 C 
BRANCH  21  35
ATOM     32  C   UNL     1       0.950   6.542   0.710  0.00  0.00    +0.000 A 
ATOM     33  C   UNL     1       1.746   6.500   1.840  0.00  0.00    +0.002 A 
ATOM     34  C   UNL     1       2.656   5.475   2.008  0.00  0.00    +0.026 A 
ATOM     35  C   UNL     1       2.772   4.486   1.040  0.00  0.00    +0.052 A 
ATOM     36  C   UNL     1       1.976   4.534  -0.096  0.00  0.00    +0.026 A 
ATOM     37  C   UNL     1       1.063   5.559  -0.256  0.00  0.00    +0.002 A 
ENDBRANCH  21  35
ENDBRANCH  20  25
ENDBRANCH   1  20
TORSDOF 6
