REMARK  Name = ZINC09329086
REMARK  13 active torsions:
REMARK  status: ('A' for Active; 'I' for Inactive)
REMARK    1  A    between atoms: C_1  and  C_2
REMARK    2  A    between atoms: C_2  and  C_33
REMARK    3  A    between atoms: C_6  and  C_20
REMARK    4  A    between atoms: C_8  and  C_18
REMARK    5  A    between atoms: C_9  and  S_13
REMARK    6  A    between atoms: S_13  and  C_14
REMARK    7  A    between atoms: C_14  and  C_15
REMARK    8  A    between atoms: C_22  and  O_30
REMARK    9  A    between atoms: C_23  and  O_28
REMARK   10  A    between atoms: C_24  and  O_26
REMARK   11  A    between atoms: O_26  and  C_27
REMARK   12  A    between atoms: O_28  and  C_29
REMARK   13  A    between atoms: O_30  and  C_31
REMARK                            x       y       z     vdW  Elec       q    Type
REMARK                         _______ _______ _______ _____ _____    ______ ____
ROOT
ATOM      1  C   UNL     1      -0.019   1.526   0.010  0.00  0.00    +0.011 C 
ATOM      2  C   UNL     1       0.002  -0.004   0.002  0.00  0.00    -0.023 C 
ATOM      3  C   UNL     1      -1.433  -0.538   0.038  0.00  0.00    +0.086 C 
ATOM      4  C   UNL     1      -1.404  -2.039   0.103  0.00  0.00    +0.162 C 
ATOM      5  C   UNL     1      -0.385  -2.709   0.686  0.00  0.00    +0.029 C 
ATOM      6  C   UNL     1      -0.447  -4.216   0.700  0.00  0.00    +0.097 C 
ATOM      7  C   UNL     1       0.758  -4.799   1.376  0.00  0.00    +0.073 C 
ATOM      8  C   UNL     1       1.751  -4.002   1.894  0.00  0.00    +0.112 C 
ATOM      9  N   UNL     1       1.694  -2.668   1.823  0.00  0.00    -0.244 NA
ATOM     10  C   UNL     1       0.698  -2.026   1.259  0.00  0.00    +0.050 C 
ATOM     11  C   UNL     1       0.742  -0.515   1.241  0.00  0.00    +0.062 C 
ATOM     12  O   UNL     1      -2.424  -2.737  -0.434  0.00  0.00    -0.292 OA
ATOM     13  C   UNL     1       0.709  -0.502  -1.260  0.00  0.00    +0.011 C 
ENDROOT
BRANCH   6  14
ATOM     14  C   UNL     1      -1.686  -4.653   1.437  0.00  0.00    -0.028 A 
ATOM     15  C   UNL     1      -1.867  -4.288   2.758  0.00  0.00    +0.054 A 
ATOM     16  C   UNL     1      -3.006  -4.689   3.440  0.00  0.00    +0.165 A 
ATOM     17  C   UNL     1      -3.966  -5.457   2.794  0.00  0.00    +0.204 A 
ATOM     18  C   UNL     1      -3.781  -5.821   1.465  0.00  0.00    +0.165 A 
ATOM     19  C   UNL     1      -2.642  -5.412   0.789  0.00  0.00    +0.054 A 
BRANCH  18  20
ATOM     20  O   UNL     1      -4.718  -6.573   0.828  0.00  0.00    -0.491 OA
ATOM     21  C   UNL     1      -4.462  -6.910  -0.537  0.00  0.00    +0.277 C 
ENDBRANCH  18  20
BRANCH  17  22
ATOM     22  O   UNL     1      -5.086  -5.853   3.460  0.00  0.00    -0.488 OA
ATOM     23  C   UNL     1      -6.216  -4.981   3.403  0.00  0.00    +0.277 C 
ENDBRANCH  17  22
BRANCH  16  24
ATOM     24  O   UNL     1      -3.183  -4.330   4.740  0.00  0.00    -0.491 OA
ATOM     25  C   UNL     1      -2.154  -3.540   5.341  0.00  0.00    +0.277 C 
ENDBRANCH  16  24
ENDBRANCH   6  14
BRANCH   7  26
ATOM     26  C   UNL     1       0.877  -6.222   1.485  0.00  0.00    +0.098 C 
ATOM     27  N   UNL     1       0.971  -7.351   1.571  0.00  0.00    -0.191 NA
ENDBRANCH   7  26
BRANCH   8  28
ATOM     28  S   UNL     1       3.137  -4.759   2.675  0.00  0.00    -0.096 S 
BRANCH  28  29
ATOM     29  C   UNL     1       4.167  -3.359   3.195  0.00  0.00    +0.171 C 
BRANCH  29  30
ATOM     30  C   UNL     1       5.403  -3.874   3.886  0.00  0.00    +0.221 C 
ATOM     31  O   UNL     1       5.573  -5.068   4.015  0.00  0.00    -0.275 OA
ATOM     32  N   UNL     1       6.320  -3.008   4.361  0.00  0.00    -0.329 N 
ATOM     33  H   UNL     1       6.185  -2.053   4.258  0.00  0.00    +0.145 HD
ATOM     34  H   UNL     1       7.116  -3.340   4.806  0.00  0.00    +0.145 HD
ENDBRANCH  29  30
ENDBRANCH  28  29
ENDBRANCH   8  28
TORSDOF 8
