REMARK  Name = ZINC35664493
REMARK  13 active torsions:
REMARK  status: ('A' for Active; 'I' for Inactive)
REMARK    1  A    between atoms: C_1  and  C_2
REMARK    2  A    between atoms: C_2  and  N_3
REMARK    3  A    between atoms: C_4  and  C_24
REMARK    4  A    between atoms: C_5  and  C_19
REMARK    5  A    between atoms: C_6  and  C_11
REMARK    6  A    between atoms: C_13  and  C_18
REMARK    7  A    between atoms: C_16  and  C_17
REMARK    8  A    between atoms: C_19  and  O_21
REMARK    9  A    between atoms: O_21  and  C_22
REMARK   10  A    between atoms: C_22  and  C_23
REMARK   11  A    between atoms: C_24  and  N_25
REMARK   12  A    between atoms: C_29  and  C_32
REMARK   13  A    between atoms: C_33  and  C_35
REMARK                            x       y       z     vdW  Elec       q    Type
REMARK                         _______ _______ _______ _____ _____    ______ ____
ROOT
ATOM      1  N   UNL     1      -2.921  -0.122   2.059  0.00  0.00    -0.258 N 
ATOM      2  C   UNL     1      -3.080  -0.389   3.389  0.00  0.00    +0.041 C 
ATOM      3  C   UNL     1      -4.254  -0.847   3.873  0.00  0.00    +0.080 C 
ATOM      4  C   UNL     1      -5.389  -1.054   2.890  0.00  0.00    +0.144 C 
ATOM      5  N   UNL     1      -5.116  -0.736   1.479  0.00  0.00    -0.288 N 
ATOM      6  C   UNL     1      -3.891  -0.282   1.149  0.00  0.00    +0.307 C 
ATOM      7  O   UNL     1      -3.656  -0.013  -0.013  0.00  0.00    -0.252 OA
ATOM      8  H   UNL     1      -5.803  -0.848   0.803  0.00  0.00    +0.151 HD
ENDROOT
BRANCH   4   9
ATOM      9  C   UNL     1      -5.813  -2.498   2.967  0.00  0.00    -0.019 A 
ATOM     10  C   UNL     1      -5.217  -3.438   2.147  0.00  0.00    +0.009 A 
ATOM     11  C   UNL     1      -5.606  -4.762   2.217  0.00  0.00    -0.050 A 
ATOM     12  C   UNL     1      -6.589  -5.148   3.109  0.00  0.00    +0.003 A 
ATOM     13  C   UNL     1      -7.184  -4.208   3.930  0.00  0.00    +0.004 A 
ATOM     14  C   UNL     1      -6.793  -2.884   3.863  0.00  0.00    -0.045 A 
ATOM     15  C   UNL     1      -7.437  -1.861   4.762  0.00  0.00    +0.044 C 
ATOM     16  C   UNL     1      -4.957  -5.786   1.322  0.00  0.00    +0.044 C 
ENDBRANCH   4   9
BRANCH   1  18
ATOM     17  C   UNL     1      -1.603   1.901   1.670  0.00  0.00    +0.025 C 
ATOM     18  C   UNL     1      -1.620   0.372   1.603  0.00  0.00    +0.111 C 
ENDBRANCH   1  18
BRANCH   3  19
ATOM     19  C   UNL     1      -4.419  -1.124   5.250  0.00  0.00    +0.339 C 
ATOM     20  O   UNL     1      -4.303  -2.264   5.659  0.00  0.00    -0.245 OA
BRANCH  19  21
ATOM     21  O   UNL     1      -4.706  -0.125   6.110  0.00  0.00    -0.462 OA
BRANCH  21  22
ATOM     22  C   UNL     1      -4.748  -0.456   7.499  0.00  0.00    +0.229 C 
ATOM     23  C   UNL     1      -5.203   0.764   8.302  0.00  0.00    +0.048 C 
ENDBRANCH  21  22
ENDBRANCH  19  21
ENDBRANCH   3  19
BRANCH   2  24
ATOM     24  C   UNL     1      -1.925  -0.169   4.331  0.00  0.00    +0.136 C 
BRANCH  24  25
ATOM     25  N   UNL     1      -0.846  -1.114   4.013  0.00  0.00    -0.294 NA
ATOM     26  C   UNL     1      -1.263  -2.497   4.277  0.00  0.00    +0.104 C 
ATOM     27  C   UNL     1      -0.185  -3.459   3.765  0.00  0.00    +0.124 C 
ATOM     28  N   UNL     1       1.104  -3.074   4.359  0.00  0.00    -0.292 N 
ATOM     29  C   UNL     1       1.527  -1.669   4.254  0.00  0.00    +0.087 C 
ATOM     30  C   UNL     1       0.381  -0.778   4.747  0.00  0.00    +0.107 C 
ATOM     31  C   UNL     1       2.769  -1.440   5.118  0.00  0.00    +0.029 C 
ATOM     32  C   UNL     1       1.878  -3.984   4.982  0.00  0.00    +0.247 C 
ATOM     33  O   UNL     1       2.885  -3.630   5.564  0.00  0.00    -0.270 OA
BRANCH  32  34
ATOM     34  C   UNL     1       1.502  -5.414   4.958  0.00  0.00    +0.037 A 
ATOM     35  C   UNL     1       0.747  -5.923   3.901  0.00  0.00    +0.013 A 
ATOM     36  C   UNL     1       0.400  -7.258   3.884  0.00  0.00    +0.001 A 
ATOM     37  C   UNL     1       0.799  -8.092   4.914  0.00  0.00    +0.000 A 
ATOM     38  C   UNL     1       1.547  -7.594   5.966  0.00  0.00    +0.001 A 
ATOM     39  C   UNL     1       1.906  -6.262   5.991  0.00  0.00    +0.013 A 
ENDBRANCH  32  34
ENDBRANCH  24  25
ENDBRANCH   2  24
TORSDOF 8
