REMARK  Name = ZINC40923833
REMARK  6 active torsions:
REMARK  status: ('A' for Active; 'I' for Inactive)
REMARK    1  A    between atoms: C_1  and  C_2
REMARK    2  A    between atoms: C_3  and  C_29
REMARK    3  A    between atoms: C_4  and  C_12
REMARK    4  A    between atoms: C_17  and  O_18
REMARK    5  A    between atoms: O_18  and  C_19
REMARK    6  A    between atoms: C_19  and  C_20
REMARK                            x       y       z     vdW  Elec       q    Type
REMARK                         _______ _______ _______ _____ _____    ______ ____
ROOT
ATOM      1  C   UNL     1      -1.723  -2.641   1.362  0.00  0.00    +0.024 A 
ATOM      2  C   UNL     1      -0.984  -2.344   2.491  0.00  0.00    +0.025 A 
ATOM      3  C   UNL     1      -1.414  -2.776   3.733  0.00  0.00    +0.018 A 
ATOM      4  C   UNL     1      -2.583  -3.506   3.847  0.00  0.00    +0.019 A 
ATOM      5  C   UNL     1      -3.325  -3.805   2.721  0.00  0.00    +0.047 A 
ATOM      6  C   UNL     1      -2.899  -3.368   1.475  0.00  0.00    +0.127 A 
ATOM      7 BR   UNL     1      -0.400  -2.368   5.276  0.00  0.00    -0.050 Br
ENDROOT
BRANCH   1  11
ATOM      8  C   UNL     1      -0.018   1.503   0.010  0.00  0.00    +0.061 C 
ATOM      9  C   UNL     1       0.002  -0.004   0.002  0.00  0.00    +0.018 C 
ATOM     10  C   UNL     1      -1.163  -0.667   0.004  0.00  0.00    +0.060 C 
ATOM     11  C   UNL     1      -1.255  -2.170   0.009  0.00  0.00    +0.182 C 
ATOM     12  N   UNL     1       0.059  -2.736  -0.276  0.00  0.00    -0.201 N 
ATOM     13  C   UNL     1       1.208  -2.012  -0.274  0.00  0.00    +0.240 A 
ATOM     14  N   UNL     1       2.180  -2.830  -0.559  0.00  0.00    -0.092 NA
ATOM     15  N   UNL     1       1.722  -4.021  -0.745  0.00  0.00    -0.021 NA
ATOM     16  N   UNL     1       0.438  -4.040  -0.590  0.00  0.00    -0.042 NA
ATOM     17  N   UNL     1       1.214  -0.651  -0.013  0.00  0.00    -0.286 N 
ATOM     18  H   UNL     1       2.042  -0.174   0.156  0.00  0.00    +0.155 HD
BRANCH  10  19
ATOM     19  C   UNL     1      -2.364   0.081   0.002  0.00  0.00    +0.241 C 
ATOM     20  O   UNL     1      -2.324   1.298  -0.001  0.00  0.00    -0.271 OA
ATOM     21  N   UNL     1      -3.554  -0.553   0.004  0.00  0.00    -0.325 N 
ATOM     22  H   UNL     1      -3.586  -1.522   0.007  0.00  0.00    +0.145 HD
ATOM     23  H   UNL     1      -4.377  -0.040   0.003  0.00  0.00    +0.145 HD
ENDBRANCH  10  19
ENDBRANCH   1  11
BRANCH   6  24
ATOM     24  O   UNL     1      -3.630  -3.657   0.366  0.00  0.00    -0.487 OA
BRANCH  24  25
ATOM     25  C   UNL     1      -4.829  -4.410   0.557  0.00  0.00    +0.266 C 
BRANCH  25  26
ATOM     26  C   UNL     1      -5.500  -4.632  -0.773  0.00  0.00    +0.008 A 
ATOM     27  C   UNL     1      -4.928  -4.133  -1.928  0.00  0.00    +0.010 A 
ATOM     28  C   UNL     1      -5.543  -4.336  -3.149  0.00  0.00    +0.020 A 
ATOM     29  C   UNL     1      -6.732  -5.040  -3.216  0.00  0.00    +0.042 A 
ATOM     30  C   UNL     1      -7.305  -5.541  -2.061  0.00  0.00    +0.040 A 
ATOM     31  C   UNL     1      -6.687  -5.341  -0.840  0.00  0.00    +0.049 A 
ATOM     32 CL   UNL     1      -7.402  -5.973   0.610  0.00  0.00    -0.083 Cl
ATOM     33 CL   UNL     1      -7.505  -5.295  -4.750  0.00  0.00    -0.083 Cl
ENDBRANCH  25  26
ENDBRANCH  24  25
ENDBRANCH   6  24
TORSDOF 5
