REMARK  Name = ZINC13750197
REMARK  7 active torsions:
REMARK  status: ('A' for Active; 'I' for Inactive)
REMARK    1  A    between atoms: C_1  and  C_2
REMARK    2  A    between atoms: C_7  and  C_8
REMARK    3  A    between atoms: C_11  and  C_13
REMARK    4  A    between atoms: N_14  and  C_15
REMARK    5  A    between atoms: C_16  and  C_28
REMARK    6  A    between atoms: N_17  and  C_27
REMARK    7  A    between atoms: N_18  and  C_21
REMARK                            x       y       z     vdW  Elec       q    Type
REMARK                         _______ _______ _______ _____ _____    ______ ____
ROOT
ATOM      1  C   UNL     1       1.820   2.050   5.001  0.00  0.00    +0.157 C 
ATOM      2  N   UNL     1       2.502   2.926   4.310  0.00  0.00    -0.245 NA
ENDROOT
BRANCH   2   3
ATOM      3  C   UNL     1       2.962   4.063   4.912  0.00  0.00    +0.150 A 
ATOM      4  C   UNL     1       3.679   5.064   4.321  0.00  0.00    +0.064 A 
ATOM      5  N   UNL     1       3.944   6.018   5.257  0.00  0.00    -0.282 N 
ATOM      6  N   UNL     1       3.391   5.636   6.483  0.00  0.00    -0.215 N 
ATOM      7  C   UNL     1       2.774   4.447   6.319  0.00  0.00    +0.298 A 
ATOM      8  O   UNL     1       2.180   3.813   7.171  0.00  0.00    -0.264 OA
ATOM      9  C   UNL     1       4.693   7.254   5.016  0.00  0.00    +0.171 C 
ATOM     10  C   UNL     1       4.105   5.105   2.876  0.00  0.00    +0.067 C 
BRANCH   6  11
ATOM     11  C   UNL     1       3.460   6.364   7.675  0.00  0.00    +0.067 A 
ATOM     12  C   UNL     1       3.842   5.736   8.854  0.00  0.00    +0.028 A 
ATOM     13  C   UNL     1       3.909   6.459  10.029  0.00  0.00    +0.002 A 
ATOM     14  C   UNL     1       3.597   7.806  10.033  0.00  0.00    +0.000 A 
ATOM     15  C   UNL     1       3.216   8.434   8.862  0.00  0.00    +0.002 A 
ATOM     16  C   UNL     1       3.152   7.719   7.682  0.00  0.00    +0.028 A 
ENDBRANCH   6  11
ENDBRANCH   2   3
BRANCH   1  20
ATOM     17  C   UNL     1       0.932  -0.656   2.848  0.00  0.00    +0.136 A 
ATOM     18  C   UNL     1       0.358  -1.096   4.005  0.00  0.00    +0.050 A 
ATOM     19  C   UNL     1       0.615  -0.131   4.986  0.00  0.00    +0.051 A 
ATOM     20  C   UNL     1       1.343   0.870   4.377  0.00  0.00    +0.147 A 
ATOM     21  O   UNL     1       1.528   0.527   3.085  0.00  0.00    -0.454 OA
BRANCH  17  28
ATOM     22  C   UNL     1       0.140   0.767   0.457  0.00  0.00    +0.044 C 
ATOM     23  C   UNL     1       0.527  -0.687   0.391  0.00  0.00    -0.040 A 
ATOM     24  C   UNL     1       0.513  -1.353  -0.817  0.00  0.00    +0.004 A 
ATOM     25  C   UNL     1       0.869  -2.689  -0.879  0.00  0.00    +0.000 A 
ATOM     26  C   UNL     1       1.241  -3.366   0.269  0.00  0.00    +0.001 A 
ATOM     27  C   UNL     1       1.260  -2.713   1.484  0.00  0.00    +0.012 A 
ATOM     28  C   UNL     1       0.908  -1.363   1.553  0.00  0.00    +0.020 A 
ENDBRANCH  17  28
ENDBRANCH   1  20
TORSDOF 4
