REMARK  Name = ZINC40947163
REMARK  9 active torsions:
REMARK  status: ('A' for Active; 'I' for Inactive)
REMARK    1  A    between atoms: C_1  and  C_2
REMARK    2  A    between atoms: C_2  and  O_3
REMARK    3  A    between atoms: O_3  and  C_4
REMARK    4  A    between atoms: C_6  and  C_12
REMARK    5  A    between atoms: C_9  and  O_10
REMARK    6  A    between atoms: N_13  and  N_14
REMARK    7  A    between atoms: C_15  and  C_17
REMARK    8  A    between atoms: C_17  and  S_18
REMARK    9  A    between atoms: S_18  and  C_19
REMARK                            x       y       z     vdW  Elec       q    Type
REMARK                         _______ _______ _______ _____ _____    ______ ____
ROOT
ATOM      1  C   UNL     1      -0.174  -4.956  -0.520  0.00  0.00    +0.138 C 
ATOM      2  N   UNL     1      -0.011  -6.239  -0.413  0.00  0.00    -0.188 NA
ENDROOT
BRANCH   1   5
ATOM      3  C   UNL     1       1.306  -1.829   0.941  0.00  0.00    +0.163 A 
ATOM      4  C   UNL     1       0.426  -2.688   0.308  0.00  0.00    +0.059 A 
ATOM      5  C   UNL     1       0.760  -4.036   0.154  0.00  0.00    -0.001 A 
ATOM      6  C   UNL     1       1.981  -4.510   0.640  0.00  0.00    +0.028 A 
ATOM      7  C   UNL     1       2.854  -3.647   1.271  0.00  0.00    +0.063 A 
ATOM      8  C   UNL     1       2.524  -2.307   1.419  0.00  0.00    +0.173 A 
ATOM      9 BR   UNL     1       4.506  -4.290   1.929  0.00  0.00    -0.046 Br
BRANCH   8  10
ATOM     10  O   UNL     1       3.389  -1.459   2.036  0.00  0.00    -0.503 OA
ATOM     11  H   UNL     1       3.264  -1.396   2.992  0.00  0.00    +0.292 HD
ENDBRANCH   8  10
BRANCH   3  12
ATOM     12  O   UNL     1       0.984  -0.516   1.093  0.00  0.00    -0.489 OA
BRANCH  12  14
ATOM     13  C   UNL     1      -0.466   1.401   0.840  0.00  0.00    +0.048 C 
ATOM     14  C   UNL     1      -0.282  -0.095   0.579  0.00  0.00    +0.226 C 
ENDBRANCH  12  14
ENDBRANCH   3  12
ENDBRANCH   1   5
BRANCH   2  15
ATOM     15  N   UNL     1       0.649  -6.771   0.702  0.00  0.00    -0.206 N 
ATOM     16  C   UNL     1       0.936  -8.087   0.750  0.00  0.00    +0.242 C 
ATOM     17  O   UNL     1       0.621  -8.811  -0.171  0.00  0.00    -0.273 OA
ATOM     18  H   UNL     1       0.901  -6.192   1.438  0.00  0.00    +0.177 HD
BRANCH  16  19
ATOM     19  C   UNL     1       1.647  -8.660   1.950  0.00  0.00    +0.173 C 
BRANCH  19  20
ATOM     20  S   UNL     1       1.886 -10.443   1.717  0.00  0.00    -0.088 S 
BRANCH  20  21
ATOM     21  C   UNL     1       2.717 -10.956   3.183  0.00  0.00    +0.160 A 
ATOM     22  N   UNL     1       3.089 -10.242   4.227  0.00  0.00    -0.133 NA
ATOM     23  N   UNL     1       3.734 -10.850   5.279  0.00  0.00    -0.125 NA
ATOM     24  C   UNL     1       3.979 -12.145   5.237  0.00  0.00    +0.180 A 
ATOM     25  S   UNL     1       3.277 -12.586   3.655  0.00  0.00    -0.025 S 
ATOM     26  N   UNL     1       4.610 -12.953   6.176  0.00  0.00    -0.336 N 
ATOM     27  H   UNL     1       4.940 -12.568   7.003  0.00  0.00    +0.144 HD
ATOM     28  H   UNL     1       4.719 -13.901   6.005  0.00  0.00    +0.144 HD
ENDBRANCH  20  21
ENDBRANCH  19  20
ENDBRANCH  16  19
ENDBRANCH   2  15
TORSDOF 8
