REMARK  Name = ZINC26295200
REMARK  8 active torsions:
REMARK  status: ('A' for Active; 'I' for Inactive)
REMARK    1  A    between atoms: C_1  and  N_2
REMARK    2  A    between atoms: N_2  and  C_3
REMARK    3  A    between atoms: N_2  and  C_11
REMARK    4  A    between atoms: C_3  and  C_4
REMARK    5  A    between atoms: C_11  and  C_12
REMARK    6  A    between atoms: N_17  and  C_18
REMARK    7  A    between atoms: C_18  and  C_19
REMARK    8  A    between atoms: C_19  and  C_20
REMARK                            x       y       z     vdW  Elec       q    Type
REMARK                         _______ _______ _______ _____ _____    ______ ____
ROOT
ATOM      1  C   UNL     1      -2.389   4.124   0.036  0.00  0.00    +0.204 C 
ATOM      2  O   UNL     1      -3.430   3.504   0.037  0.00  0.00    -0.277 OA
ATOM      3  N   UNL     1      -1.212   3.466   0.027  0.00  0.00    -0.242 N 
ATOM      4  C   UNL     1      -1.194   2.119   0.019  0.00  0.00    +0.306 C 
ATOM      5  O   UNL     1      -2.238   1.497   0.021  0.00  0.00    -0.252 OA
ATOM      6  N   UNL     1      -0.018   1.461   0.010  0.00  0.00    -0.299 N 
ATOM      7  H   UNL     1      -0.267   4.029   0.025  0.00  0.00    +0.159 HD
ATOM      8  H   UNL     1       0.927   2.024   0.009  0.00  0.00    +0.150 HD
ENDROOT
BRANCH   1   9
ATOM      9  C   UNL     1      -2.409   5.631   0.044  0.00  0.00    +0.019 C 
BRANCH   9  11
ATOM     10  C   UNL     1      -4.472   5.736   1.308  0.00  0.00    -0.095 C 
ATOM     11  N   UNL     1      -3.800   6.102   0.053  0.00  0.00    +0.386 N 
ATOM     12  H   UNL     1      -4.331   5.604  -0.772  0.00  0.00    -0.081 HD
BRANCH  11  13
ATOM     13  C   UNL     1      -3.867   7.551  -0.177  0.00  0.00    -0.043 C 
BRANCH  13  14
ATOM     14  C   UNL     1      -5.300   7.958  -0.405  0.00  0.00    -0.064 A 
ATOM     15  C   UNL     1      -5.820   7.970  -1.686  0.00  0.00    +0.003 A 
ATOM     16  C   UNL     1      -7.135   8.338  -1.896  0.00  0.00    +0.015 A 
ATOM     17  C   UNL     1      -7.929   8.705  -0.824  0.00  0.00    +0.018 A 
ATOM     18  C   UNL     1      -7.408   8.698   0.457  0.00  0.00    +0.015 A 
ATOM     19  C   UNL     1      -6.094   8.325   0.666  0.00  0.00    +0.003 A 
ATOM     20 BR   UNL     1      -9.727   9.216  -1.111  0.00  0.00    -0.050 Br
ENDBRANCH  13  14
ENDBRANCH  11  13
ENDBRANCH   9  11
ENDBRANCH   1   9
BRANCH   6  21
ATOM     21  C   UNL     1       0.002  -0.004   0.002  0.00  0.00    +0.111 C 
BRANCH  21  22
ATOM     22  C   UNL     1       1.451  -0.494  -0.015  0.00  0.00    +0.061 C 
BRANCH  22  23
ATOM     23  C   UNL     1       1.472  -2.001  -0.023  0.00  0.00    -0.009 A 
ATOM     24  C   UNL     1       1.468  -2.849  -1.080  0.00  0.00    +0.011 A 
ATOM     25  C   UNL     1       1.494  -4.211  -0.847  0.00  0.00    +0.008 A 
ATOM     26  C   UNL     1       1.511  -4.659   0.432  0.00  0.00    +0.045 A 
ATOM     27  S   UNL     1       1.500  -3.133   1.358  0.00  0.00    -0.102 S 
ENDBRANCH  22  23
ENDBRANCH  21  22
ENDBRANCH   6  21
TORSDOF 7
