REMARK  Name = ZINC39156524
REMARK  5 active torsions:
REMARK  status: ('A' for Active; 'I' for Inactive)
REMARK    1  A    between atoms: C_4  and  C_7
REMARK    2  A    between atoms: C_7  and  C_8
REMARK    3  A    between atoms: C_8  and  C_10
REMARK    4  A    between atoms: C_8  and  N_13
REMARK    5  A    between atoms: C_17  and  C_18
REMARK                            x       y       z     vdW  Elec       q    Type
REMARK                         _______ _______ _______ _____ _____    ______ ____
ROOT
ATOM      1  N   UNL     1       3.229  -1.870   2.059  0.00  0.00    -0.241 N 
ATOM      2  C   UNL     1       2.589  -1.460   3.142  0.00  0.00    +0.259 C 
ATOM      3  O   UNL     1       2.762  -0.349   3.605  0.00  0.00    -0.269 OA
ATOM      4  C   UNL     1       1.649  -2.428   3.760  0.00  0.00    +0.076 C 
ATOM      5  C   UNL     1       0.876  -2.293   4.844  0.00  0.00    +0.039 C 
ATOM      6  S   UNL     1       1.834  -3.823   2.657  0.00  0.00    -0.061 S 
ATOM      7  C   UNL     1       3.030  -3.100   1.546  0.00  0.00    +0.121 C 
ATOM      8  S   UNL     1       3.753  -3.803   0.162  0.00  0.00    -0.027 S 
ENDROOT
BRANCH   5   9
ATOM      9  C   UNL     1       0.890  -1.004   5.624  0.00  0.00    +0.200 C 
ATOM     10  N   UNL     1       1.245  -1.266   7.025  0.00  0.00    -0.360 N 
ATOM     11  C   UNL     1       0.244  -0.879   7.761  0.00  0.00    +0.060 A 
ATOM     12  C   UNL     1       0.009  -0.884   9.211  0.00  0.00    +0.027 A 
ATOM     13  C   UNL     1      -1.153  -0.406   9.698  0.00  0.00    +0.002 A 
ATOM     14  C   UNL     1      -2.169   0.105   8.871  0.00  0.00    +0.002 A 
ATOM     15  C   UNL     1      -2.057   0.156   7.529  0.00  0.00    +0.027 A 
ATOM     16  C   UNL     1      -0.831  -0.337   6.885  0.00  0.00    +0.060 A 
ATOM     17  N   UNL     1      -0.453  -0.411   5.642  0.00  0.00    -0.360 N 
ATOM     18  H   UNL     1       2.074  -1.657   7.343  0.00  0.00    +0.162 HD
ATOM     19  H   UNL     1      -0.964  -0.126   4.868  0.00  0.00    +0.162 HD
ENDBRANCH   5   9
BRANCH   1  20
ATOM     20  C   UNL     1       4.171  -0.963   1.399  0.00  0.00    +0.200 C 
BRANCH  20  21
ATOM     21  C   UNL     1       5.543  -1.588   1.383  0.00  0.00    +0.377 C 
ATOM     22  O   UNL     1       6.535  -0.881   1.408  0.00  0.00    -0.244 OA
ATOM     23  O   UNL     1       5.659  -2.801   1.346  0.00  0.00    -0.244 OA
ENDBRANCH  20  21
BRANCH  20  24
ATOM     24  C   UNL     1       3.711  -0.707  -0.038  0.00  0.00    +0.069 C 
BRANCH  24  28
ATOM     25  C   UNL     1      -0.017   1.378   0.010  0.00  0.00    +0.000 A 
ATOM     26  C   UNL     1       1.171   2.086   0.002  0.00  0.00    +0.000 A 
ATOM     27  C   UNL     1       2.377   1.411  -0.013  0.00  0.00    +0.004 A 
ATOM     28  C   UNL     1       2.396   0.029  -0.020  0.00  0.00    -0.045 A 
ATOM     29  C   UNL     1       1.208  -0.679  -0.012  0.00  0.00    +0.004 A 
ATOM     30  C   UNL     1       0.002  -0.004   0.002  0.00  0.00    +0.000 A 
ENDBRANCH  24  28
ENDBRANCH  20  24
ENDBRANCH   1  20
TORSDOF 5
