REMARK  Name = ZINC39605938
REMARK  8 active torsions:
REMARK  status: ('A' for Active; 'I' for Inactive)
REMARK    1  A    between atoms: C_1  and  C_2
REMARK    2  A    between atoms: C_2  and  C_3
REMARK    3  A    between atoms: C_3  and  C_5
REMARK    4  A    between atoms: C_3  and  C_6
REMARK    5  A    between atoms: C_6  and  N_7
REMARK    6  A    between atoms: C_8  and  C_10
REMARK    7  A    between atoms: C_21  and  C_23
REMARK    8  A    between atoms: C_25  and  C_30
REMARK                            x       y       z     vdW  Elec       q    Type
REMARK                         _______ _______ _______ _____ _____    ______ ____
ROOT
ATOM      1  C   UNL     1      -5.113  -4.362  -0.484  0.00  0.00    +0.100 C 
ATOM      2  C   UNL     1      -5.492  -3.651  -1.802  0.00  0.00    +0.121 C 
ATOM      3  N   UNL     1      -5.240  -4.660  -2.858  0.00  0.00    -0.296 N 
ATOM      4  C   UNL     1      -5.701  -5.938  -2.264  0.00  0.00    +0.115 C 
ATOM      5  C   UNL     1      -5.255  -5.863  -0.790  0.00  0.00    -0.004 C 
ATOM      6  C   UNL     1      -3.914  -6.568  -0.609  0.00  0.00    -0.010 C 
ATOM      7  C   UNL     1      -4.093  -8.067  -0.864  0.00  0.00    -0.082 C 
ATOM      8  N   UNL     1      -5.084  -8.610   0.073  0.00  0.00    +0.379 N 
ATOM      9  C   UNL     1      -6.393  -7.992  -0.169  0.00  0.00    -0.082 C 
ATOM     10  C   UNL     1      -6.311  -6.489   0.114  0.00  0.00    -0.010 C 
ATOM     11  C   UNL     1      -4.712  -4.461  -4.082  0.00  0.00    +0.247 C 
ATOM     12  O   UNL     1      -4.263  -3.371  -4.380  0.00  0.00    -0.270 OA
ATOM     13  H   UNL     1      -5.155  -9.608  -0.055  0.00  0.00    -0.086 HD
ATOM     14  H   UNL     1      -4.792  -8.415   1.019  0.00  0.00    -0.086 HD
ENDROOT
BRANCH  11  15
ATOM     15  C   UNL     1      -4.678  -5.568  -5.061  0.00  0.00    +0.040 A 
ATOM     16  C   UNL     1      -3.776  -5.534  -6.126  0.00  0.00    +0.025 A 
ATOM     17  C   UNL     1      -3.748  -6.569  -7.037  0.00  0.00    +0.058 A 
ATOM     18  C   UNL     1      -4.612  -7.641  -6.898  0.00  0.00    +0.050 A 
ATOM     19  C   UNL     1      -5.510  -7.682  -5.844  0.00  0.00    +0.125 A 
ATOM     20  C   UNL     1      -5.543  -6.654  -4.921  0.00  0.00    +0.051 A 
ATOM     21  F   UNL     1      -6.351  -8.732  -5.714  0.00  0.00    -0.205 F 
BRANCH  17  22
ATOM     22  C   UNL     1      -2.775  -6.533  -8.187  0.00  0.00    +0.418 C 
ATOM     23  F   UNL     1      -1.578  -7.147  -7.805  0.00  0.00    -0.166 F 
ATOM     24  F   UNL     1      -3.320  -7.214  -9.281  0.00  0.00    -0.166 F 
ATOM     25  F   UNL     1      -2.525  -5.203  -8.544  0.00  0.00    -0.166 F 
ENDBRANCH  17  22
ENDBRANCH  11  15
BRANCH   1  27
ATOM     26  N   UNL     1      -3.303  -4.128   1.186  0.00  0.00    -0.315 N 
ATOM     27  C   UNL     1      -3.692  -4.037  -0.101  0.00  0.00    +0.218 C 
ATOM     28  O   UNL     1      -2.899  -3.692  -0.952  0.00  0.00    -0.275 OA
ATOM     29  H   UNL     1      -3.937  -4.403   1.866  0.00  0.00    +0.149 HD
BRANCH  26  30
ATOM     30  C   UNL     1      -1.921  -3.812   1.557  0.00  0.00    +0.107 C 
BRANCH  30  31
ATOM     31  C   UNL     1      -1.745  -3.994   3.066  0.00  0.00    +0.003 C 
ATOM     32  C   UNL     1      -1.933  -5.469   3.427  0.00  0.00    +0.009 C 
BRANCH  31  34
ATOM     33  C   UNL     1      -0.205  -3.610   4.996  0.00  0.00    +0.004 C 
ATOM     34  C   UNL     1      -0.340  -3.545   3.473  0.00  0.00    +0.001 C 
ENDBRANCH  31  34
ENDBRANCH  30  31
ENDBRANCH  26  30
ENDBRANCH   1  27
TORSDOF 6
