REMARK  Name = ZINC05004335
REMARK  6 active torsions:
REMARK  status: ('A' for Active; 'I' for Inactive)
REMARK    1  A    between atoms: C_1  and  C_2
REMARK    2  A    between atoms: C_2  and  C_3
REMARK    3  A    between atoms: C_8  and  N_9
REMARK    4  A    between atoms: N_9  and  C_10
REMARK    5  A    between atoms: C_11  and  C_13
REMARK    6  A    between atoms: C_13  and  N_14
REMARK                            x       y       z     vdW  Elec       q    Type
REMARK                         _______ _______ _______ _____ _____    ______ ____
ROOT
ATOM      1  N   UNL     1       1.300   1.784  -0.001  0.00  0.00    -0.254 N 
ATOM      2  C   UNL     1       2.121   0.728   0.196  0.00  0.00    +0.087 A 
ATOM      3  C   UNL     1       3.558   0.569   0.460  0.00  0.00    +0.043 A 
ATOM      4  C   UNL     1       4.395   1.683   0.556  0.00  0.00    +0.014 A 
ATOM      5  C   UNL     1       5.739   1.510   0.804  0.00  0.00    +0.001 A 
ATOM      6  C   UNL     1       6.262   0.236   0.957  0.00  0.00    +0.004 A 
ATOM      7  C   UNL     1       5.447  -0.873   0.864  0.00  0.00    +0.047 A 
ATOM      8  C   UNL     1       4.088  -0.721   0.615  0.00  0.00    +0.141 A 
ATOM      9  O   UNL     1       3.295  -1.812   0.525  0.00  0.00    -0.422 OA
ATOM     10  C   UNL     1       1.976  -1.730   0.287  0.00  0.00    +0.348 A 
ATOM     11  O   UNL     1       1.310  -2.746   0.216  0.00  0.00    -0.244 OA
ATOM     12  C   UNL     1       1.334  -0.427   0.111  0.00  0.00    +0.105 A 
ATOM     13  C   UNL     1       0.014  -0.007  -0.145  0.00  0.00    +0.150 A 
ATOM     14  N   UNL     1       0.003   1.297  -0.209  0.00  0.00    -0.178 NA
ENDROOT
BRANCH   1  15
ATOM     15  C   UNL     1       1.697   3.194   0.003  0.00  0.00    +0.240 C 
BRANCH  15  18
ATOM     16  N   UNL     1       2.070   4.983   1.670  0.00  0.00    -0.273 N 
ATOM     17  C   UNL     1       2.411   5.879   0.562  0.00  0.00    +0.138 C 
ATOM     18  C   UNL     1       1.729   3.703   1.421  0.00  0.00    +0.241 C 
ATOM     19  O   UNL     1       1.447   2.961   2.338  0.00  0.00    -0.273 OA
BRANCH  16  25
ATOM     20  C   UNL     1       0.960   6.016   3.550  0.00  0.00    -0.026 A 
ATOM     21  C   UNL     1       0.992   6.482   4.850  0.00  0.00    +0.005 A 
ATOM     22  C   UNL     1       2.156   6.391   5.590  0.00  0.00    +0.000 A 
ATOM     23  C   UNL     1       3.292   5.833   5.032  0.00  0.00    +0.002 A 
ATOM     24  C   UNL     1       3.265   5.360   3.735  0.00  0.00    +0.024 A 
ATOM     25  C   UNL     1       2.099   5.456   2.986  0.00  0.00    +0.039 A 
BRANCH  20  27
ATOM     26  C   UNL     1      -1.084   4.801   2.848  0.00  0.00    +0.009 C 
ATOM     27  C   UNL     1      -0.309   6.116   2.744  0.00  0.00    +0.033 C 
ENDBRANCH  20  27
ENDBRANCH  16  25
ENDBRANCH  15  18
ENDBRANCH   1  15
TORSDOF 4
