REMARK  Name = ZINC04993371
REMARK  4 active torsions:
REMARK  status: ('A' for Active; 'I' for Inactive)
REMARK    1  A    between atoms: C_5  and  C_7
REMARK    2  A    between atoms: C_10  and  C_12
REMARK    3  A    between atoms: C_13  and  C_14
REMARK    4  A    between atoms: C_16  and  C_22
REMARK                            x       y       z     vdW  Elec       q    Type
REMARK                         _______ _______ _______ _____ _____    ______ ____
ROOT
ATOM      1  C   UNL     1       0.309  -5.382   1.181  0.00  0.00    +0.048 C 
ATOM      2  C   UNL     1      -0.548  -5.222   2.220  0.00  0.00    +0.031 C 
ENDROOT
BRANCH   2   3
ATOM      3  C   UNL     1      -1.093  -6.393   2.905  0.00  0.00    +0.071 A 
ATOM      4  C   UNL     1      -1.989  -6.232   3.990  0.00  0.00    +0.058 A 
ATOM      5  C   UNL     1      -2.478  -7.335   4.604  0.00  0.00    +0.126 A 
ATOM      6  N   UNL     1      -2.096  -8.569   4.163  0.00  0.00    -0.302 N 
ATOM      7  H   UNL     1      -2.453  -9.388   4.612  0.00  0.00    +0.170 HD
ATOM      8  C   UNL     1      -1.244  -8.692   3.129  0.00  0.00    +0.347 A 
ATOM      9  O   UNL     1      -0.917  -9.805   2.751  0.00  0.00    -0.245 OA
ATOM     10  N   UNL     1      -0.756  -7.622   2.509  0.00  0.00    -0.194 NA
BRANCH   5  11
ATOM     11  C   UNL     1      -3.432  -7.202   5.762  0.00  0.00    +0.432 C 
ATOM     12  F   UNL     1      -3.665  -5.847   6.021  0.00  0.00    -0.164 F 
ATOM     13  F   UNL     1      -4.641  -7.830   5.444  0.00  0.00    -0.164 F 
ATOM     14  F   UNL     1      -2.877  -7.804   6.896  0.00  0.00    -0.164 F 
ENDBRANCH   5  11
ENDBRANCH   2   3
BRANCH   1  18
ATOM     15  C   UNL     1       1.251  -2.158  -0.022  0.00  0.00    +0.138 A 
ATOM     16  C   UNL     1       1.972  -2.936  -0.884  0.00  0.00    +0.050 A 
ATOM     17  C   UNL     1       1.715  -4.268  -0.549  0.00  0.00    +0.050 A 
ATOM     18  C   UNL     1       0.837  -4.249   0.518  0.00  0.00    +0.129 A 
ATOM     19  O   UNL     1       0.575  -2.960   0.821  0.00  0.00    -0.455 OA
BRANCH  15  24
ATOM     20  C   UNL     1      -0.017   1.375   0.010  0.00  0.00    +0.001 A 
ATOM     21  C   UNL     1       1.170   2.087   0.002  0.00  0.00    +0.003 A 
ATOM     22  C   UNL     1       2.384   1.424  -0.013  0.00  0.00    +0.039 A 
ATOM     23  C   UNL     1       2.419   0.043  -0.021  0.00  0.00    +0.134 A 
ATOM     24  C   UNL     1       1.223  -0.683  -0.013  0.00  0.00    +0.052 A 
ATOM     25  C   UNL     1       0.002  -0.004   0.002  0.00  0.00    +0.014 A 
ATOM     26  F   UNL     1       3.605  -0.605  -0.035  0.00  0.00    -0.205 F 
ENDBRANCH  15  24
ENDBRANCH   1  18
TORSDOF 4
