REMARK  Name = ZINC04073314
REMARK  6 active torsions:
REMARK  status: ('A' for Active; 'I' for Inactive)
REMARK    1  A    between atoms: C_1  and  C_2
REMARK    2  A    between atoms: C_12  and  N_67
REMARK    3  A    between atoms: C_17  and  C_18
REMARK    4  A    between atoms: C_17  and  N_67
REMARK    5  A    between atoms: C_24  and  C_36
REMARK    6  A    between atoms: C_28  and  C_35
REMARK                            x       y       z     vdW  Elec       q    Type
REMARK                         _______ _______ _______ _____ _____    ______ ____
ROOT
ATOM      1  N   UNL     1      -0.732   7.791  -2.300  0.00  0.00    +0.385 N 
ATOM      2  H   UNL     1      -0.592   8.492  -1.563  0.00  0.00    -0.085 HD
ATOM      3  H   UNL     1       0.180   7.463  -2.638  0.00  0.00    -0.085 HD
ENDROOT
BRANCH   1  15
ATOM      4  C   UNL     1       2.347  12.978  -7.912  0.00  0.00    +0.044 C 
ATOM      5  C   UNL     1       1.951  11.791  -7.073  0.00  0.00    -0.050 A 
ATOM      6  C   UNL     1       2.819  10.714  -6.983  0.00  0.00    +0.005 A 
ATOM      7  C   UNL     1       2.524   9.589  -6.233  0.00  0.00    +0.026 A 
ATOM      8  C   UNL     1       1.304   9.581  -5.561  0.00  0.00    +0.047 A 
ATOM      9  C   UNL     1       0.419  10.686  -5.656  0.00  0.00    +0.003 A 
ATOM     10  C   UNL     1       0.742  11.810  -6.423  0.00  0.00    +0.013 A 
ATOM     11  C   UNL     1      -0.733  10.346  -4.848  0.00  0.00    -0.021 A 
ATOM     12  C   UNL     1      -0.506   9.116  -4.330  0.00  0.00    +0.006 A 
ATOM     13  N   UNL     1       0.711   8.655  -4.752  0.00  0.00    -0.359 N 
ATOM     14  H   UNL     1       1.094   7.796  -4.513  0.00  0.00    +0.166 HD
ATOM     15  C   UNL     1      -1.475   8.402  -3.418  0.00  0.00    -0.024 C 
ATOM     16  C   UNL     1      -2.480   9.422  -2.872  0.00  0.00    -0.009 C 
ATOM     17  C   UNL     1      -3.061  10.235  -4.032  0.00  0.00    +0.003 C 
ATOM     18  C   UNL     1      -1.977  11.161  -4.596  0.00  0.00    +0.037 C 
ENDBRANCH   1  15
BRANCH   1  19
ATOM     19  C   UNL     1      -1.485   6.649  -1.748  0.00  0.00    -0.067 C 
BRANCH  19  20
ATOM     20  C   UNL     1      -0.691   6.036  -0.592  0.00  0.00    +0.088 C 
ATOM     21  C   UNL     1      -1.398   4.749  -0.066  0.00  0.00    +0.046 C 
ATOM     22  C   UNL     1      -0.278   3.820   0.416  0.00  0.00    +0.039 C 
ATOM     23  C   UNL     1      -0.834   2.852   1.440  0.00  0.00    -0.064 C 
ATOM     24  C   UNL     1      -0.718   1.572   1.248  0.00  0.00    -0.073 C 
ATOM     25  C   UNL     1      -1.256   0.557   2.219  0.00  0.00    +0.030 C 
ATOM     26  C   UNL     1      -2.462   1.168   2.942  0.00  0.00    +0.005 C 
ATOM     27  C   UNL     1      -2.006   2.449   3.638  0.00  0.00    +0.011 C 
ATOM     28  C   UNL     1      -1.502   3.469   2.636  0.00  0.00    -0.007 C 
ATOM     29  C   UNL     1      -2.651   4.345   2.132  0.00  0.00    +0.056 C 
ATOM     30  C   UNL     1      -2.172   5.352   1.120  0.00  0.00    +0.181 C 
ATOM     31  O   UNL     1      -1.240   6.332   1.656  0.00  0.00    -0.461 OA
ATOM     32  C   UNL     1      -0.687   6.970   0.604  0.00  0.00    +0.309 C 
ATOM     33  O   UNL     1      -0.246   8.095   0.612  0.00  0.00    -0.251 OA
ATOM     34  C   UNL     1      -0.479   4.369   3.332  0.00  0.00    +0.016 C 
ATOM     35  C   UNL     1      -0.013   1.086   0.008  0.00  0.00    +0.039 C 
ENDBRANCH  19  20
ENDBRANCH   1  19
TORSDOF 3
