REMARK  Name = ZINC13683993
REMARK  7 active torsions:
REMARK  status: ('A' for Active; 'I' for Inactive)
REMARK    1  A    between atoms: C_1  and  C_2
REMARK    2  A    between atoms: C_5  and  N_8
REMARK    3  A    between atoms: N_8  and  C_9
REMARK    4  A    between atoms: C_9  and  N_11
REMARK    5  A    between atoms: N_11  and  N_12
REMARK    6  A    between atoms: C_13  and  C_14
REMARK    7  A    between atoms: C_13  and  C_15
REMARK                            x       y       z     vdW  Elec       q    Type
REMARK                         _______ _______ _______ _____ _____    ______ ____
ROOT
ATOM      1  N   UNL     1       0.294  -6.190   1.123  0.00  0.00    -0.218 N 
ATOM      2  H   UNL     1       0.378  -6.679   1.957  0.00  0.00    +0.176 HD
ENDROOT
BRANCH   1   3
ATOM      3  N   UNL     1       0.297  -6.880  -0.096  0.00  0.00    -0.182 NA
ATOM      4  C   UNL     1       0.412  -8.176  -0.110  0.00  0.00    +0.098 C 
ATOM      5  C   UNL     1       0.542  -8.935   1.185  0.00  0.00    +0.071 C 
BRANCH   4   6
ATOM      6  C   UNL     1       0.415  -8.898  -1.387  0.00  0.00    +0.151 A 
ATOM      7  C   UNL     1       0.310  -8.320  -2.613  0.00  0.00    +0.059 A 
ATOM      8  C   UNL     1       0.359  -9.415  -3.582  0.00  0.00    +0.021 A 
ATOM      9  C   UNL     1       0.302  -9.484  -4.976  0.00  0.00    +0.011 A 
ATOM     10  C   UNL     1       0.378 -10.700  -5.597  0.00  0.00    +0.001 A 
ATOM     11  C   UNL     1       0.511 -11.863  -4.852  0.00  0.00    +0.004 A 
ATOM     12  C   UNL     1       0.570 -11.815  -3.475  0.00  0.00    +0.047 A 
ATOM     13  C   UNL     1       0.495 -10.591  -2.822  0.00  0.00    +0.136 A 
ATOM     14  O   UNL     1       0.528 -10.235  -1.522  0.00  0.00    -0.454 OA
ENDBRANCH   4   6
ENDBRANCH   1   3
BRANCH   1  15
ATOM     15  C   UNL     1       0.174  -4.848   1.138  0.00  0.00    +0.154 C 
ATOM     16  S   UNL     1       0.171  -4.005   2.628  0.00  0.00    -0.017 S 
BRANCH  15  17
ATOM     17  N   UNL     1       0.058  -4.169  -0.021  0.00  0.00    -0.296 N 
ATOM     18  H   UNL     1      -0.021  -4.651  -0.859  0.00  0.00    +0.154 HD
BRANCH  17  23
ATOM     19  C   UNL     1       0.030   1.503   0.005  0.00  0.00    +0.044 C 
ATOM     20  C   UNL     1       0.037  -0.004  -0.002  0.00  0.00    -0.050 A 
ATOM     21  C   UNL     1       0.923  -0.693   0.806  0.00  0.00    +0.005 A 
ATOM     22  C   UNL     1       0.933  -2.074   0.802  0.00  0.00    +0.023 A 
ATOM     23  C   UNL     1       0.051  -2.771  -0.014  0.00  0.00    +0.033 A 
ATOM     24  C   UNL     1      -0.838  -2.075  -0.824  0.00  0.00    +0.023 A 
ATOM     25  C   UNL     1      -0.846  -0.694  -0.811  0.00  0.00    +0.005 A 
ENDBRANCH  17  23
ENDBRANCH  15  17
ENDBRANCH   1  15
TORSDOF 5
