REMARK  Name = ZINC38845348
REMARK  10 active torsions:
REMARK  status: ('A' for Active; 'I' for Inactive)
REMARK    1  A    between atoms: C_1  and  N_2
REMARK    2  A    between atoms: N_2  and  C_3
REMARK    3  A    between atoms: N_2  and  C_4
REMARK    4  A    between atoms: C_4  and  C_5
REMARK    5  A    between atoms: C_5  and  N_6
REMARK    6  A    between atoms: C_12  and  S_16
REMARK    7  A    between atoms: S_16  and  C_17
REMARK    8  A    between atoms: C_18  and  C_20
REMARK    9  A    between atoms: C_23  and  S_26
REMARK   10  A    between atoms: S_26  and  N_29
REMARK                            x       y       z     vdW  Elec       q    Type
REMARK                         _______ _______ _______ _____ _____    ______ ____
ROOT
ATOM      1  N   UNL     1       0.417  -0.638   3.736  0.00  0.00    -0.248 N 
ATOM      2  C   UNL     1       1.304   0.125   4.478  0.00  0.00    +0.168 A 
ATOM      3  N   UNL     1       1.565   1.408   4.383  0.00  0.00    -0.224 NA
ATOM      4  C   UNL     1       2.463   2.028   5.181  0.00  0.00    +0.080 A 
ATOM      5  C   UNL     1       2.834   3.392   5.181  0.00  0.00    +0.030 A 
ATOM      6  C   UNL     1       3.762   3.865   6.054  0.00  0.00    +0.017 A 
ATOM      7  C   UNL     1       4.382   3.030   6.982  0.00  0.00    +0.009 A 
ATOM      8  C   UNL     1       4.043   1.683   7.013  0.00  0.00    +0.032 A 
ATOM      9  C   UNL     1       3.107   1.204   6.132  0.00  0.00    +0.042 A 
ATOM     10  S   UNL     1       2.376  -0.384   5.814  0.00  0.00    -0.052 S 
ATOM     11  C   UNL     1       0.284  -1.954   3.992  0.00  0.00    +0.252 C 
ATOM     12  O   UNL     1       0.888  -2.458   4.919  0.00  0.00    -0.270 OA
ENDROOT
BRANCH  11  13
ATOM     13  C   UNL     1      -0.596  -2.786   3.145  0.00  0.00    +0.037 A 
ATOM     14  C   UNL     1      -0.708  -2.523   1.779  0.00  0.00    +0.015 A 
ATOM     15  C   UNL     1      -1.532  -3.303   0.994  0.00  0.00    +0.029 A 
ATOM     16  C   UNL     1      -2.247  -4.345   1.559  0.00  0.00    +0.106 A 
ATOM     17  C   UNL     1      -2.140  -4.612   2.912  0.00  0.00    +0.029 A 
ATOM     18  C   UNL     1      -1.315  -3.843   3.707  0.00  0.00    +0.015 A 
BRANCH  16  19
ATOM     19  S   UNL     1      -3.297  -5.336   0.549  0.00  0.00    +0.061 S 
ATOM     20  O   UNL     1      -4.274  -5.901   1.412  0.00  0.00    -0.153 OA
ATOM     21  O   UNL     1      -3.643  -4.543  -0.578  0.00  0.00    -0.153 OA
BRANCH  19  22
ATOM     22  N   UNL     1      -2.384  -6.594  -0.020  0.00  0.00    -0.172 NA
ATOM     23  C   UNL     1      -1.642  -6.480  -1.286  0.00  0.00    +0.137 C 
ATOM     24  C   UNL     1      -0.192  -6.911  -1.036  0.00  0.00    +0.177 C 
ATOM     25  O   UNL     1      -0.183  -8.196  -0.409  0.00  0.00    -0.377 OA
ATOM     26  C   UNL     1      -0.809  -8.224   0.876  0.00  0.00    +0.177 C 
ATOM     27  C   UNL     1      -2.286  -7.858   0.727  0.00  0.00    +0.137 C 
ENDBRANCH  19  22
ENDBRANCH  16  19
ENDBRANCH  11  13
BRANCH   7  28
ATOM     28  S   UNL     1       5.582   3.674   8.101  0.00  0.00    -0.129 S 
ATOM     29  C   UNL     1       5.676   5.435   7.677  0.00  0.00    +0.090 C 
ENDBRANCH   7  28
BRANCH   1  30
ATOM     30  C   UNL     1      -0.375  -0.014   2.673  0.00  0.00    +0.097 C 
BRANCH  30  31
ATOM     31  C   UNL     1       0.524   0.273   1.469  0.00  0.00    -0.060 C 
BRANCH  31  33
ATOM     32  C   UNL     1      -0.891   2.055   0.709  0.00  0.00    -0.097 C 
ATOM     33  N   UNL     1      -0.295   0.760   0.352  0.00  0.00    +0.377 N 
ATOM     34  C   UNL     1       0.548   0.923  -0.840  0.00  0.00    -0.097 C 
ATOM     35  H   UNL     1      -1.029   0.095   0.157  0.00  0.00    -0.083 HD
ENDBRANCH  31  33
ENDBRANCH  30  31
ENDBRANCH   1  30
TORSDOF 7
