REMARK  Name = ZINC36026983
REMARK  10 active torsions:
REMARK  status: ('A' for Active; 'I' for Inactive)
REMARK    1  A    between atoms: C_1  and  C_2
REMARK    2  A    between atoms: C_2  and  C_3
REMARK    3  A    between atoms: C_3  and  C_5
REMARK    4  A    between atoms: C_3  and  N_6
REMARK    5  A    between atoms: C_9  and  C_28
REMARK    6  A    between atoms: N_15  and  C_18
REMARK    7  A    between atoms: C_18  and  N_20
REMARK    8  A    between atoms: N_20  and  C_21
REMARK    9  A    between atoms: C_25  and  C_27
REMARK   10  A    between atoms: C_28  and  C_29
REMARK                            x       y       z     vdW  Elec       q    Type
REMARK                         _______ _______ _______ _____ _____    ______ ____
ROOT
ATOM      1  N   UNL     1      -1.970  -0.175  -1.251  0.00  0.00    -0.311 N 
ATOM      2  C   UNL     1      -1.619  -0.625  -2.474  0.00  0.00    +0.201 C 
ATOM      3  O   UNL     1      -0.712  -1.393  -2.712  0.00  0.00    -0.277 OA
ATOM      4  C   UNL     1      -2.549  -0.010  -3.497  0.00  0.00    +0.023 C 
ATOM      5  N   UNL     1      -3.182   1.133  -2.794  0.00  0.00    +0.401 N 
ATOM      6  C   UNL     1      -3.120   0.725  -1.373  0.00  0.00    +0.006 C 
ATOM      7  C   UNL     1      -4.405  -0.003  -0.984  0.00  0.00    +0.025 C 
ATOM      8  C   UNL     1      -4.312  -0.453   0.478  0.00  0.00    +0.107 C 
ATOM      9  N   UNL     1      -3.994   0.714   1.312  0.00  0.00    -0.312 N 
ATOM     10  C   UNL     1      -2.817   1.525   0.973  0.00  0.00    +0.107 C 
ATOM     11  C   UNL     1      -2.922   1.958  -0.493  0.00  0.00    +0.025 C 
ATOM     12  H   UNL     1      -2.658   1.981  -2.949  0.00  0.00    -0.082 HD
ATOM     13  H   UNL     1      -4.141   1.245  -3.088  0.00  0.00    -0.082 HD
ENDROOT
BRANCH   1  14
ATOM     14  C   UNL     1      -1.307  -0.535   0.005  0.00  0.00    +0.071 C 
ATOM     15  C   UNL     1      -1.077  -2.047   0.045  0.00  0.00    +0.028 C 
BRANCH  14  17
ATOM     16  C   UNL     1      -0.199   1.697   0.183  0.00  0.00    +0.005 C 
ATOM     17  C   UNL     1       0.038   0.188   0.097  0.00  0.00    +0.019 C 
ENDBRANCH  14  17
ENDBRANCH   1  14
BRANCH   9  18
ATOM     18  C   UNL     1      -4.769   1.035   2.367  0.00  0.00    +0.137 C 
ATOM     19  S   UNL     1      -6.062   0.011   2.823  0.00  0.00    -0.018 S 
BRANCH  18  20
ATOM     20  N   UNL     1      -4.525   2.163   3.063  0.00  0.00    -0.297 N 
ATOM     21  H   UNL     1      -5.064   2.955   2.909  0.00  0.00    +0.154 HD
BRANCH  20  22
ATOM     22  C   UNL     1      -3.494   2.192   4.009  0.00  0.00    +0.033 A 
ATOM     23  C   UNL     1      -2.652   1.097   4.155  0.00  0.00    +0.023 A 
ATOM     24  C   UNL     1      -1.636   1.129   5.089  0.00  0.00    +0.002 A 
ATOM     25  C   UNL     1      -1.456   2.250   5.879  0.00  0.00    +0.003 A 
ATOM     26  C   UNL     1      -2.292   3.342   5.736  0.00  0.00    -0.049 A 
ATOM     27  C   UNL     1      -3.307   3.318   4.800  0.00  0.00    +0.026 A 
ATOM     28  C   UNL     1      -2.091   4.561   6.599  0.00  0.00    +0.044 C 
ENDBRANCH  20  22
ENDBRANCH  18  20
ENDBRANCH   9  18
BRANCH   4  29
ATOM     29  C   UNL     1      -1.756   0.481  -4.710  0.00  0.00    +0.028 C 
BRANCH  29  30
ATOM     30  C   UNL     1      -2.709   1.010  -5.752  0.00  0.00    -0.048 A 
ATOM     31  C   UNL     1      -3.221   0.160  -6.714  0.00  0.00    +0.003 A 
ATOM     32  C   UNL     1      -4.095   0.645  -7.670  0.00  0.00    +0.000 A 
ATOM     33  C   UNL     1      -4.456   1.980  -7.662  0.00  0.00    +0.000 A 
ATOM     34  C   UNL     1      -3.944   2.829  -6.699  0.00  0.00    +0.000 A 
ATOM     35  C   UNL     1      -3.074   2.343  -5.741  0.00  0.00    +0.003 A 
ENDBRANCH  29  30
ENDBRANCH   4  29
TORSDOF 7
