REMARK  Name = ZINC01113675
REMARK  6 active torsions:
REMARK  status: ('A' for Active; 'I' for Inactive)
REMARK    1  A    between atoms: C_1  and  C_2
REMARK    2  A    between atoms: C_3  and  C_13
REMARK    3  A    between atoms: C_4  and  C_7
REMARK    4  A    between atoms: N_15  and  C_16
REMARK    5  A    between atoms: C_17  and  C_27
REMARK    6  A    between atoms: C_22  and  C_26
REMARK                            x       y       z     vdW  Elec       q    Type
REMARK                         _______ _______ _______ _____ _____    ______ ____
ROOT
ATOM      1  C   UNL     1      -2.168  -1.334   3.539  0.00  0.00    +0.254 C 
ATOM      2  O   UNL     1      -3.200  -1.946   3.342  0.00  0.00    -0.270 OA
ATOM      3  N   UNL     1      -1.439  -0.889   2.497  0.00  0.00    -0.275 N 
ATOM      4  H   UNL     1      -0.616  -0.400   2.655  0.00  0.00    +0.156 HD
ENDROOT
BRANCH   3   5
ATOM      5  C   UNL     1      -1.865  -1.129   1.201  0.00  0.00    +0.085 A 
ATOM      6  C   UNL     1      -1.257  -0.754   0.010  0.00  0.00    +0.068 A 
ATOM      7  C   UNL     1      -1.919  -1.129  -1.228  0.00  0.00    -0.023 A 
ATOM      8  C   UNL     1      -3.069  -1.821  -1.079  0.00  0.00    -0.004 A 
ATOM      9  S   UNL     1      -3.285  -1.969   0.672  0.00  0.00    -0.077 S 
ATOM     10  C   UNL     1      -3.959  -2.339  -2.166  0.00  0.00    +0.046 C 
ATOM     11  C   UNL     1      -3.566  -1.651  -3.482  0.00  0.00    -0.009 C 
ATOM     12  C   UNL     1      -2.044  -1.718  -3.637  0.00  0.00    +0.008 C 
ATOM     13  C   UNL     1      -1.376  -0.799  -2.613  0.00  0.00    +0.037 C 
ATOM     14  C   UNL     1      -4.236  -2.368  -4.656  0.00  0.00    +0.008 C 
BRANCH   6  15
ATOM     15  C   UNL     1       0.002  -0.004   0.002  0.00  0.00    +0.244 C 
ATOM     16  O   UNL     1       1.064  -0.598  -0.011  0.00  0.00    -0.270 OA
ATOM     17  N   UNL     1      -0.016   1.344   0.009  0.00  0.00    -0.325 N 
ATOM     18  H   UNL     1       0.817   1.840   0.004  0.00  0.00    +0.145 HD
ATOM     19  H   UNL     1      -0.863   1.817   0.016  0.00  0.00    +0.145 HD
ENDBRANCH   6  15
ENDBRANCH   3   5
BRANCH   1  22
ATOM     20  C   UNL     1      -2.852   1.184   5.378  0.00  0.00    +0.090 C 
ATOM     21  C   UNL     1      -1.996  -0.006   5.726  0.00  0.00    +0.147 A 
ATOM     22  C   UNL     1      -1.715  -1.079   4.917  0.00  0.00    +0.106 A 
ATOM     23  C   UNL     1      -0.841  -1.912   5.769  0.00  0.00    +0.126 A 
ATOM     24  N   UNL     1      -0.739  -1.257   6.897  0.00  0.00    -0.077 NA
ATOM     25  O   UNL     1      -1.364  -0.225   6.881  0.00  0.00    -0.359 OA
BRANCH  23  26
ATOM     26  C   UNL     1      -0.215  -3.211   5.421  0.00  0.00    +0.004 A 
ATOM     27  C   UNL     1      -0.894  -4.120   4.611  0.00  0.00    +0.010 A 
ATOM     28  C   UNL     1      -0.305  -5.325   4.286  0.00  0.00    +0.001 A 
ATOM     29  C   UNL     1       0.953  -5.636   4.771  0.00  0.00    +0.000 A 
ATOM     30  C   UNL     1       1.629  -4.740   5.580  0.00  0.00    +0.001 A 
ATOM     31  C   UNL     1       1.052  -3.530   5.907  0.00  0.00    +0.010 A 
ENDBRANCH  23  26
ENDBRANCH   1  22
TORSDOF 4
