REMARK  Name = ZINC16569300
REMARK  10 active torsions:
REMARK  status: ('A' for Active; 'I' for Inactive)
REMARK    1  A    between atoms: C_1  and  C_2
REMARK    2  A    between atoms: C_2  and  C_3
REMARK    3  A    between atoms: C_3  and  C_5
REMARK    4  A    between atoms: C_3  and  C_11
REMARK    5  A    between atoms: N_13  and  C_14
REMARK    6  A    between atoms: N_13  and  C_39
REMARK    7  A    between atoms: C_14  and  C_15
REMARK    8  A    between atoms: C_29  and  C_31
REMARK    9  A    between atoms: C_34  and  O_37
REMARK   10  A    between atoms: O_37  and  C_38
REMARK                            x       y       z     vdW  Elec       q    Type
REMARK                         _______ _______ _______ _____ _____    ______ ____
ROOT
ATOM      1  C   UNL     1       0.087  -0.169  -3.507  0.00  0.00    +0.238 C 
ATOM      2  O   UNL     1      -0.836   0.617  -3.452  0.00  0.00    -0.273 OA
ATOM      3  N   UNL     1       0.552  -0.578  -4.704  0.00  0.00    -0.255 N 
ATOM      4  C   UNL     1       0.026  -0.032  -5.883  0.00  0.00    +0.061 A 
ATOM      5  C   UNL     1      -1.273   0.443  -5.923  0.00  0.00    +0.025 A 
ATOM      6  C   UNL     1      -1.772   0.993  -7.089  0.00  0.00    +0.002 A 
ATOM      7  C   UNL     1      -0.979   1.078  -8.219  0.00  0.00    +0.002 A 
ATOM      8  C   UNL     1       0.322   0.608  -8.191  0.00  0.00    +0.028 A 
ATOM      9  C   UNL     1       0.826   0.053  -7.031  0.00  0.00    +0.068 A 
ATOM     10  N   UNL     1       2.134  -0.446  -6.956  0.00  0.00    -0.316 N 
ATOM     11  C   UNL     1       3.179  -0.288  -7.804  0.00  0.00    +0.092 A 
ATOM     12  C   UNL     1       4.239  -0.955  -7.294  0.00  0.00    +0.020 A 
ATOM     13  C   UNL     1       3.826  -1.548  -6.081  0.00  0.00    +0.025 A 
ATOM     14  C   UNL     1       2.541  -1.228  -5.897  0.00  0.00    +0.049 A 
ATOM     15  C   UNL     1       1.607  -1.602  -4.771  0.00  0.00    +0.159 C 
ENDROOT
BRANCH  15  16
ATOM     16  C   UNL     1       0.993  -2.951  -5.043  0.00  0.00    -0.021 A 
ATOM     17  C   UNL     1      -0.056  -3.064  -5.936  0.00  0.00    +0.009 A 
ATOM     18  C   UNL     1      -0.617  -4.301  -6.192  0.00  0.00    +0.046 A 
ATOM     19  C   UNL     1      -0.135  -5.428  -5.542  0.00  0.00    +0.120 A 
ATOM     20  C   UNL     1       0.915  -5.311  -4.642  0.00  0.00    +0.046 A 
ATOM     21  C   UNL     1       1.476  -4.073  -4.395  0.00  0.00    +0.009 A 
BRANCH  19  22
ATOM     22  O   UNL     1      -0.689  -6.644  -5.787  0.00  0.00    -0.495 OA
ATOM     23  C   UNL     1      -1.766  -6.689  -6.726  0.00  0.00    +0.277 C 
ENDBRANCH  19  22
ENDBRANCH  15  16
BRANCH   1  24
ATOM     24  C   UNL     1       0.713  -0.687  -2.238  0.00  0.00    +0.204 C 
BRANCH  24  27
ATOM     25  C   UNL     1       0.512   1.042  -0.533  0.00  0.00    +0.224 C 
ATOM     26  O   UNL     1      -0.014   1.504   0.457  0.00  0.00    -0.275 OA
ATOM     27  N   UNL     1       0.037  -0.093  -1.082  0.00  0.00    -0.289 N 
BRANCH  27  28
ATOM     28  C   UNL     1      -1.157  -0.733  -0.523  0.00  0.00    +0.077 C 
ATOM     29  C   UNL     1      -2.396   0.141  -0.317  0.00  0.00    +0.024 C 
ATOM     30  C   UNL     1      -1.580  -0.327   0.890  0.00  0.00    +0.024 C 
ENDBRANCH  27  28
BRANCH  25  31
ATOM     31  C   UNL     1       1.699   1.738  -1.150  0.00  0.00    +0.105 C 
BRANCH  31  32
ATOM     32  C   UNL     1       2.348   2.629  -0.123  0.00  0.00    -0.036 A 
ATOM     33  C   UNL     1       1.627   3.658   0.455  0.00  0.00    +0.004 A 
ATOM     34  C   UNL     1       2.221   4.472   1.401  0.00  0.00    +0.000 A 
ATOM     35  C   UNL     1       3.539   4.265   1.761  0.00  0.00    +0.000 A 
ATOM     36  C   UNL     1       4.262   3.240   1.180  0.00  0.00    +0.000 A 
ATOM     37  C   UNL     1       3.666   2.422   0.237  0.00  0.00    +0.004 A 
ENDBRANCH  31  32
BRANCH  31  39
ATOM     38  C   UNL     1       2.453   3.147  -3.070  0.00  0.00    +0.005 C 
ATOM     39  C   UNL     1       1.234   2.583  -2.337  0.00  0.00    +0.014 C 
ENDBRANCH  31  39
ENDBRANCH  25  31
ENDBRANCH  24  27
ENDBRANCH   1  24
TORSDOF 8
