REMARK  Name = ZINC43726976
REMARK  2 active torsions:
REMARK  status: ('A' for Active; 'I' for Inactive)
REMARK    1  A    between atoms: C_16  and  C_18
REMARK    2  A    between atoms: N_23  and  C_26
REMARK                            x       y       z     vdW  Elec       q    Type
REMARK                         _______ _______ _______ _____ _____    ______ ____
ROOT
ATOM      1  C   UNL     1      -0.017   1.375   0.010  0.00  0.00    +0.001 A 
ATOM      2  C   UNL     1       1.168   2.090   0.002  0.00  0.00    +0.000 A 
ATOM      3  C   UNL     1       2.384   1.427  -0.011  0.00  0.00    +0.006 A 
ATOM      4  C   UNL     1       2.416   0.052  -0.018  0.00  0.00    -0.019 A 
ATOM      5  C   UNL     1       1.222  -0.681  -0.014  0.00  0.00    -0.019 A 
ATOM      6  C   UNL     1       0.002  -0.004   0.002  0.00  0.00    +0.008 A 
ATOM      7  C   UNL     1       1.254  -2.158  -0.033  0.00  0.00    +0.023 C 
ATOM      8  C   UNL     1       2.391  -2.799   0.305  0.00  0.00    +0.072 C 
ATOM      9  N   UNL     1       3.476  -1.996   0.631  0.00  0.00    -0.316 N 
ATOM     10  C   UNL     1       3.721  -0.700  -0.027  0.00  0.00    +0.117 C 
ATOM     11  C   UNL     1       4.800   0.027   0.773  0.00  0.00    +0.114 C 
ATOM     12  C   UNL     1       5.546  -1.113   1.533  0.00  0.00    +0.119 C 
ATOM     13  C   UNL     1       4.481  -2.220   1.664  0.00  0.00    +0.172 C 
ATOM     14  C   UNL     1       5.742  -0.482   2.902  0.00  0.00    +0.228 C 
ATOM     15  O   UNL     1       6.554  -0.828   3.733  0.00  0.00    -0.275 OA
ATOM     16  N   UNL     1       4.861   0.521   3.036  0.00  0.00    -0.238 N 
ATOM     17  C   UNL     1       4.188   0.830   1.900  0.00  0.00    +0.228 C 
ATOM     18  O   UNL     1       3.258   1.601   1.799  0.00  0.00    -0.275 OA
ENDROOT
BRANCH  16  19
ATOM     19  C   UNL     1       4.650   1.234   4.298  0.00  0.00    +0.084 C 
ATOM     20  C   UNL     1       5.961   1.887   4.740  0.00  0.00    +0.023 C 
ATOM     21  C   UNL     1       5.741   2.631   6.059  0.00  0.00    +0.002 C 
ATOM     22  C   UNL     1       5.277   1.642   7.131  0.00  0.00    +0.000 C 
ATOM     23  C   UNL     1       3.966   0.989   6.689  0.00  0.00    +0.002 C 
ATOM     24  C   UNL     1       4.186   0.245   5.370  0.00  0.00    +0.023 C 
ENDBRANCH  16  19
BRANCH  13  25
ATOM     25  C   UNL     1       3.838  -2.151   3.025  0.00  0.00    +0.232 C 
ATOM     26  O   UNL     1       2.758  -1.616   3.159  0.00  0.00    -0.274 OA
ATOM     27  N   UNL     1       4.463  -2.683   4.094  0.00  0.00    -0.328 N 
ATOM     28  H   UNL     1       5.327  -3.111   3.987  0.00  0.00    +0.145 HD
ATOM     29  H   UNL     1       4.049  -2.639   4.970  0.00  0.00    +0.145 HD
ENDBRANCH  13  25
TORSDOF 2
