REMARK  Name = ZINC62242135
REMARK  6 active torsions:
REMARK  status: ('A' for Active; 'I' for Inactive)
REMARK    1  A    between atoms: C_1  and  C_2
REMARK    2  A    between atoms: C_4  and  N_11
REMARK    3  A    between atoms: C_5  and  O_9
REMARK    4  A    between atoms: O_9  and  C_10
REMARK    5  A    between atoms: C_12  and  C_18
REMARK    6  A    between atoms: C_13  and  C_16
REMARK                            x       y       z     vdW  Elec       q    Type
REMARK                         _______ _______ _______ _____ _____    ______ ____
ROOT
ATOM      1  N   UNL     1       0.147  -2.643  -2.518  0.00  0.00    -0.203 N 
ATOM      2  C   UNL     1      -0.808  -2.569  -3.472  0.00  0.00    +0.185 A 
ATOM      3  C   UNL     1      -0.569  -3.588  -4.351  0.00  0.00    +0.194 A 
ATOM      4  N   UNL     1       0.514  -4.265  -3.932  0.00  0.00    -0.118 NA
ATOM      5  N   UNL     1       0.968  -3.729  -2.853  0.00  0.00    -0.059 NA
ENDROOT
BRANCH   1   9
ATOM      6  C   UNL     1       0.370   1.912  -0.678  0.00  0.00    +0.045 C 
ATOM      7  C   UNL     1       0.404   0.417  -0.490  0.00  0.00    -0.030 A 
ATOM      8  C   UNL     1       0.262  -0.418  -1.582  0.00  0.00    +0.036 A 
ATOM      9  C   UNL     1       0.292  -1.794  -1.411  0.00  0.00    +0.110 A 
ATOM     10  C   UNL     1       0.468  -2.331  -0.138  0.00  0.00    +0.147 A 
ATOM     11  C   UNL     1       0.610  -1.487   0.953  0.00  0.00    +0.068 A 
ATOM     12  C   UNL     1       0.583  -0.116   0.774  0.00  0.00    +0.047 A 
ATOM     13 CL   UNL     1       0.768   0.939   2.140  0.00  0.00    -0.083 Cl
BRANCH  10  14
ATOM     14  O   UNL     1       0.498  -3.679   0.035  0.00  0.00    -0.493 OA
ATOM     15  C   UNL     1       0.681  -4.157   1.369  0.00  0.00    +0.277 C 
ENDBRANCH  10  14
ENDBRANCH   1   9
BRANCH   2  16
ATOM     16  C   UNL     1      -1.923  -1.558  -3.551  0.00  0.00    +0.437 C 
ATOM     17  F   UNL     1      -1.458  -0.400  -4.182  0.00  0.00    -0.164 F 
ATOM     18  F   UNL     1      -2.987  -2.093  -4.284  0.00  0.00    -0.164 F 
ATOM     19  F   UNL     1      -2.359  -1.243  -2.259  0.00  0.00    -0.164 F 
ENDBRANCH   2  16
BRANCH   3  20
ATOM     20  C   UNL     1      -1.341  -3.885  -5.519  0.00  0.00    +0.123 C 
ATOM     21  N   UNL     1      -1.954  -4.120  -6.446  0.00  0.00    -0.189 NA
ENDBRANCH   3  20
TORSDOF 4
