REMARK  Name = ZINC67457566
REMARK  6 active torsions:
REMARK  status: ('A' for Active; 'I' for Inactive)
REMARK    1  A    between atoms: C_1  and  C_2
REMARK    2  A    between atoms: C_2  and  C_3
REMARK    3  A    between atoms: N_12  and  C_13
REMARK    4  A    between atoms: C_13  and  C_14
REMARK    5  A    between atoms: N_16  and  C_17
REMARK    6  A    between atoms: N_16  and  C_18
REMARK                            x       y       z     vdW  Elec       q    Type
REMARK                         _______ _______ _______ _____ _____    ______ ____
ROOT
ATOM      1  C   UNL     1       0.832  -0.591  -1.220  0.00  0.00    -0.036 C 
ATOM      2  C   UNL     1       0.856  -2.113  -1.121  0.00  0.00    -0.051 A 
ATOM      3  C   UNL     1       1.099  -2.814   0.057  0.00  0.00    +0.010 A 
ATOM      4  C   UNL     1       1.098  -4.168   0.051  0.00  0.00    +0.045 A 
ATOM      5  S   UNL     1       0.745  -4.530  -1.663  0.00  0.00    -0.101 S 
ATOM      6  C   UNL     1       0.627  -2.860  -2.238  0.00  0.00    -0.010 A 
ATOM      7  C   UNL     1       0.349  -2.341  -3.611  0.00  0.00    +0.024 C 
ATOM      8  C   UNL     1       0.702  -0.843  -3.621  0.00  0.00    -0.072 C 
ATOM      9  N   UNL     1       0.109  -0.205  -2.437  0.00  0.00    +0.390 N 
ATOM     10  H   UNL     1      -0.855  -0.491  -2.356  0.00  0.00    -0.080 HD
ENDROOT
BRANCH   1  12
ATOM     11  C   UNL     1      -1.300  -0.565   0.082  0.00  0.00    +0.002 C 
ATOM     12  C   UNL     1       0.123  -0.009   0.005  0.00  0.00    -0.014 C 
ENDBRANCH   1  12
BRANCH   9  13
ATOM     13  C   UNL     1       0.167   1.255  -2.592  0.00  0.00    +0.020 C 
BRANCH  13  14
ATOM     14  C   UNL     1      -0.718   1.675  -3.737  0.00  0.00    +0.199 C 
ATOM     15  O   UNL     1      -1.336   0.840  -4.363  0.00  0.00    -0.278 OA
ATOM     16  N   UNL     1      -0.822   2.977  -4.066  0.00  0.00    -0.303 N 
ATOM     17  C   UNL     1      -0.075   3.986  -3.309  0.00  0.00    +0.132 C 
BRANCH  16  18
ATOM     18  C   UNL     1      -1.682   3.385  -5.179  0.00  0.00    +0.076 C 
ATOM     19  C   UNL     1      -1.605   4.844  -5.634  0.00  0.00    +0.024 C 
ATOM     20  C   UNL     1      -2.833   4.345  -4.869  0.00  0.00    +0.024 C 
ENDBRANCH  16  18
ENDBRANCH  13  14
ENDBRANCH   9  13
TORSDOF 4
