REMARK  Name = ZINC01145508
REMARK  5 active torsions:
REMARK  status: ('A' for Active; 'I' for Inactive)
REMARK    1  A    between atoms: C_4  and  N_7
REMARK    2  A    between atoms: N_7  and  C_8
REMARK    3  A    between atoms: C_14  and  N_16
REMARK    4  A    between atoms: N_16  and  S_17
REMARK    5  A    between atoms: S_17  and  C_20
REMARK                            x       y       z     vdW  Elec       q    Type
REMARK                         _______ _______ _______ _____ _____    ______ ____
ROOT
ATOM      1  C   UNL     1       4.319   4.194  -3.437  0.00  0.00    +0.089 C 
ATOM      2  C   UNL     1       3.431   5.072  -4.321  0.00  0.00    +0.024 C 
ATOM      3  C   UNL     1       2.452   4.190  -5.096  0.00  0.00    +0.002 C 
ATOM      4  C   UNL     1       1.579   3.409  -4.112  0.00  0.00    +0.002 C 
ATOM      5  C   UNL     1       2.467   2.531  -3.228  0.00  0.00    +0.022 C 
ATOM      6  C   UNL     1       3.447   3.414  -2.453  0.00  0.00    +0.097 C 
ENDROOT
BRANCH   1   7
ATOM      7  N   UNL     1       5.258   5.039  -2.694  0.00  0.00    -0.339 N 
ATOM      8  H   UNL     1       5.043   5.327  -1.793  0.00  0.00    +0.146 HD
BRANCH   7  12
ATOM      9  C   UNL     1       8.847   6.208  -4.451  0.00  0.00    +0.000 A 
ATOM     10  C   UNL     1       8.542   6.619  -3.166  0.00  0.00    +0.002 A 
ATOM     11  C   UNL     1       7.352   6.233  -2.581  0.00  0.00    +0.023 A 
ATOM     12  C   UNL     1       6.462   5.432  -3.284  0.00  0.00    +0.027 A 
ATOM     13  C   UNL     1       6.774   5.016  -4.572  0.00  0.00    +0.023 A 
ATOM     14  C   UNL     1       7.963   5.410  -5.154  0.00  0.00    +0.002 A 
ENDBRANCH   7  12
ENDBRANCH   1   7
BRANCH   6  15
ATOM     15  N   UNL     1       4.297   2.573  -1.607  0.00  0.00    -0.185 NA
ATOM     16  H   UNL     1       5.098   2.168  -1.974  0.00  0.00    +0.148 HD
BRANCH  15  17
ATOM     17  S   UNL     1       3.891   2.313  -0.022  0.00  0.00    +0.059 S 
ATOM     18  O   UNL     1       3.607   3.588   0.538  0.00  0.00    -0.153 OA
ATOM     19  O   UNL     1       4.882   1.449   0.515  0.00  0.00    -0.153 OA
BRANCH  17  20
ATOM     20  C   UNL     1       2.377   1.411  -0.013  0.00  0.00    +0.105 A 
ATOM     21  C   UNL     1       1.171   2.086   0.002  0.00  0.00    +0.030 A 
ATOM     22  C   UNL     1      -0.017   1.379   0.010  0.00  0.00    +0.022 A 
ATOM     23  C   UNL     1       0.002  -0.004   0.002  0.00  0.00    +0.041 A 
ATOM     24  C   UNL     1       1.210  -0.679  -0.013  0.00  0.00    +0.022 A 
ATOM     25  C   UNL     1       2.397   0.029  -0.021  0.00  0.00    +0.030 A 
ATOM     26 CL   UNL     1      -1.489  -0.893   0.012  0.00  0.00    -0.084 Cl
ENDBRANCH  17  20
ENDBRANCH  15  17
ENDBRANCH   6  15
TORSDOF 5
