REMARK  Name = ZINC35518659
REMARK  6 active torsions:
REMARK  status: ('A' for Active; 'I' for Inactive)
REMARK    1  A    between atoms: C_3  and  C_15
REMARK    2  A    between atoms: N_4  and  C_6
REMARK    3  A    between atoms: C_9  and  N_12
REMARK    4  A    between atoms: C_16  and  C_17
REMARK    5  A    between atoms: C_16  and  C_19
REMARK    6  A    between atoms: N_21  and  C_22
REMARK                            x       y       z     vdW  Elec       q    Type
REMARK                         _______ _______ _______ _____ _____    ______ ____
ROOT
ATOM      1  C   UNL     1       3.090   0.797   0.348  0.00  0.00    +0.050 C 
ATOM      2  C   UNL     1       3.653   2.063   0.408  0.00  0.00    +0.116 C 
ENDROOT
BRANCH   1   5
ATOM      3  C   UNL     1      -0.471   1.083  -0.146  0.00  0.00    +0.020 A 
ATOM      4  C   UNL     1       0.770   1.675   0.088  0.00  0.00    +0.027 A 
ATOM      5  C   UNL     1       1.708   0.652   0.133  0.00  0.00    +0.048 A 
ATOM      6  N   UNL     1       1.032  -0.535  -0.073  0.00  0.00    -0.316 N 
ATOM      7  C   UNL     1      -0.286  -0.259  -0.241  0.00  0.00    +0.092 A 
BRANCH   6   8
ATOM      8  C   UNL     1       1.611  -1.811  -0.104  0.00  0.00    +0.047 A 
ATOM      9  C   UNL     1       2.684  -2.068  -0.947  0.00  0.00    +0.028 A 
ATOM     10  C   UNL     1       3.252  -3.327  -0.975  0.00  0.00    +0.035 A 
ATOM     11  C   UNL     1       2.753  -4.330  -0.165  0.00  0.00    +0.126 A 
ATOM     12  C   UNL     1       1.685  -4.077   0.676  0.00  0.00    +0.035 A 
ATOM     13  C   UNL     1       1.116  -2.819   0.713  0.00  0.00    +0.028 A 
BRANCH  11  14
ATOM     14  N   UNL     1       3.364  -5.678  -0.198  0.00  0.00    +0.056 N 
ATOM     15  O   UNL     1       4.297  -5.901  -0.933  0.00  0.00    -0.126 OA
ATOM     16  O   UNL     1       2.928  -6.556   0.509  0.00  0.00    -0.126 OA
ENDBRANCH  11  14
ENDBRANCH   6   8
ENDBRANCH   1   5
BRANCH   2  17
ATOM     17  C   UNL     1       5.110   2.215   0.503  0.00  0.00    +0.259 C 
ATOM     18  O   UNL     1       5.824   1.230   0.529  0.00  0.00    -0.269 OA
ATOM     19  N   UNL     1       5.657   3.445   0.561  0.00  0.00    -0.281 N 
ATOM     20  H   UNL     1       5.095   4.231   0.470  0.00  0.00    +0.155 HD
BRANCH  19  21
ATOM     21  C   UNL     1       7.035   3.590   0.753  0.00  0.00    +0.036 A 
ATOM     22  C   UNL     1       7.524   4.644   1.513  0.00  0.00    +0.043 A 
ATOM     23  C   UNL     1       8.887   4.784   1.701  0.00  0.00    +0.044 A 
ATOM     24  C   UNL     1       9.762   3.875   1.133  0.00  0.00    +0.040 A 
ATOM     25  C   UNL     1       9.277   2.824   0.376  0.00  0.00    +0.044 A 
ATOM     26  C   UNL     1       7.915   2.676   0.189  0.00  0.00    +0.043 A 
ATOM     27 CL   UNL     1      10.378   1.686  -0.336  0.00  0.00    -0.083 Cl
ATOM     28 CL   UNL     1       9.500   6.102   2.651  0.00  0.00    -0.083 Cl
ENDBRANCH  19  21
ENDBRANCH   2  17
BRANCH   2  29
ATOM     29  C   UNL     1       2.813   3.222   0.378  0.00  0.00    +0.104 C 
ATOM     30  N   UNL     1       2.146   4.142   0.353  0.00  0.00    -0.191 NA
ENDBRANCH   2  29
TORSDOF 6
