REMARK  Name = ZINC06821400
REMARK  16 active torsions:
REMARK  status: ('A' for Active; 'I' for Inactive)
REMARK    1  A    between atoms: C_1  and  C_2
REMARK    2  A    between atoms: C_2  and  C_3
REMARK    3  A    between atoms: C_3  and  C_5
REMARK    4  A    between atoms: C_3  and  C_6
REMARK    5  A    between atoms: C_6  and  C_8
REMARK    6  A    between atoms: C_6  and  N_25
REMARK    7  A    between atoms: N_10  and  C_11
REMARK    8  A    between atoms: C_11  and  C_13
REMARK    9  A    between atoms: C_11  and  C_21
REMARK   10  A    between atoms: C_13  and  C_14
REMARK   11  A    between atoms: C_17  and  O_20
REMARK   12  A    between atoms: C_21  and  O_23
REMARK   13  A    between atoms: O_23  and  C_24
REMARK   14  A    between atoms: C_26  and  O_28
REMARK   15  A    between atoms: O_28  and  C_29
REMARK   16  A    between atoms: C_29  and  C_30
REMARK                            x       y       z     vdW  Elec       q    Type
REMARK                         _______ _______ _______ _____ _____    ______ ____
ROOT
ATOM      1  C   UNL     1      -3.493  -0.523  -1.085  0.00  0.00    +0.234 C 
ATOM      2  O   UNL     1      -4.416   0.263  -1.120  0.00  0.00    -0.274 OA
ATOM      3  N   UNL     1      -3.736  -1.845  -0.991  0.00  0.00    -0.301 N 
ATOM      4  H   UNL     1      -2.999  -2.468  -0.888  0.00  0.00    +0.150 HD
ENDROOT
BRANCH   1   5
ATOM      5  C   UNL     1      -2.073  -0.021  -1.147  0.00  0.00    +0.165 C 
BRANCH   5   6
ATOM      6  N   UNL     1      -2.070   1.384  -1.563  0.00  0.00    -0.270 N 
ATOM      7  C   UNL     1      -1.002   1.894  -2.208  0.00  0.00    +0.401 C 
ATOM      8  O   UNL     1      -0.082   1.167  -2.526  0.00  0.00    -0.226 OA
ATOM      9  H   UNL     1      -2.837   1.948  -1.374  0.00  0.00    +0.153 HD
BRANCH   7  10
ATOM     10  O   UNL     1      -0.956   3.207  -2.500  0.00  0.00    -0.446 OA
BRANCH  10  11
ATOM     11  C   UNL     1       0.206   3.679  -3.185  0.00  0.00    +0.269 C 
BRANCH  11  12
ATOM     12  C   UNL     1       0.081   5.161  -3.425  0.00  0.00    -0.010 A 
ATOM     13  C   UNL     1      -0.513   5.627  -4.582  0.00  0.00    +0.007 A 
ATOM     14  C   UNL     1      -0.628   6.987  -4.802  0.00  0.00    +0.000 A 
ATOM     15  C   UNL     1      -0.148   7.881  -3.864  0.00  0.00    +0.000 A 
ATOM     16  C   UNL     1       0.446   7.416  -2.705  0.00  0.00    +0.000 A 
ATOM     17  C   UNL     1       0.556   6.056  -2.484  0.00  0.00    +0.007 A 
ENDBRANCH  11  12
ENDBRANCH  10  11
ENDBRANCH   7  10
ENDBRANCH   5   6
BRANCH   5  18
ATOM     18  C   UNL     1      -1.428  -0.145   0.234  0.00  0.00    +0.015 C 
ATOM     19  C   UNL     1      -2.296   0.573   1.270  0.00  0.00    +0.010 C 
BRANCH  18  21
ATOM     20  C   UNL     1      -0.318  -2.309  -0.338  0.00  0.00    +0.004 C 
ATOM     21  C   UNL     1      -1.305  -1.623   0.609  0.00  0.00    +0.002 C 
ENDBRANCH  18  21
ENDBRANCH   5  18
ENDBRANCH   1   5
BRANCH   3  22
ATOM     22  C   UNL     1      -5.113  -2.342  -1.044  0.00  0.00    +0.186 C 
BRANCH  22  23
ATOM     23  C   UNL     1      -5.724  -2.279   0.332  0.00  0.00    +0.328 C 
ATOM     24  O   UNL     1      -5.075  -1.861   1.262  0.00  0.00    -0.249 OA
BRANCH  23  25
ATOM     25  O   UNL     1      -6.988  -2.686   0.525  0.00  0.00    -0.467 OA
ATOM     26  C   UNL     1      -7.503  -2.598   1.855  0.00  0.00    +0.280 C 
ENDBRANCH  23  25
ENDBRANCH  22  23
BRANCH  22  27
ATOM     27  C   UNL     1      -5.114  -3.791  -1.536  0.00  0.00    +0.069 C 
BRANCH  27  28
ATOM     28  C   UNL     1      -4.617  -3.839  -2.958  0.00  0.00    -0.045 A 
ATOM     29  C   UNL     1      -5.512  -3.720  -4.006  0.00  0.00    +0.007 A 
ATOM     30  C   UNL     1      -5.059  -3.765  -5.310  0.00  0.00    +0.045 A 
ATOM     31  C   UNL     1      -3.706  -3.928  -5.569  0.00  0.00    +0.117 A 
ATOM     32  C   UNL     1      -2.811  -4.046  -4.516  0.00  0.00    +0.045 A 
ATOM     33  C   UNL     1      -3.267  -3.996  -3.213  0.00  0.00    +0.007 A 
BRANCH  31  34
ATOM     34  O   UNL     1      -3.258  -3.972  -6.851  0.00  0.00    -0.507 OA
ATOM     35  H   UNL     1      -3.022  -3.108  -7.215  0.00  0.00    +0.292 HD
ENDBRANCH  31  34
ENDBRANCH  27  28
ENDBRANCH  22  27
ENDBRANCH   3  22
TORSDOF 13
