REMARK  Name = ZINC22227584
REMARK  9 active torsions:
REMARK  status: ('A' for Active; 'I' for Inactive)
REMARK    1  A    between atoms: C_1  and  C_2
REMARK    2  A    between atoms: C_4  and  C_37
REMARK    3  A    between atoms: C_8  and  N_36
REMARK    4  A    between atoms: C_9  and  C_11
REMARK    5  A    between atoms: C_11  and  O_13
REMARK    6  A    between atoms: O_13  and  C_14
REMARK    7  A    between atoms: C_14  and  C_16
REMARK    8  A    between atoms: C_14  and  C_17
REMARK    9  A    between atoms: N_19  and  C_20
REMARK                            x       y       z     vdW  Elec       q    Type
REMARK                         _______ _______ _______ _____ _____    ______ ____
ROOT
ATOM      1  C   UNL     1      -1.250   2.600   0.239  0.00  0.00    +0.258 C 
ATOM      2  O   UNL     1      -2.286   1.971   0.274  0.00  0.00    -0.271 OA
ATOM      3  N   UNL     1      -0.069   1.953   0.199  0.00  0.00    -0.282 N 
ATOM      4  H   UNL     1       0.872   2.521   0.246  0.00  0.00    +0.155 HD
ENDROOT
BRANCH   3   5
ATOM      5  C   UNL     1      -0.039   0.566   0.100  0.00  0.00    +0.045 A 
ATOM      6  C   UNL     1      -1.002  -0.205   0.750  0.00  0.00    +0.024 A 
ATOM      7  C   UNL     1      -0.977  -1.580   0.653  0.00  0.00    +0.003 A 
ATOM      8  C   UNL     1       0.005  -2.218  -0.090  0.00  0.00    +0.012 A 
ATOM      9  C   UNL     1       0.975  -1.470  -0.746  0.00  0.00    +0.035 A 
ATOM     10  C   UNL     1       0.953  -0.064  -0.658  0.00  0.00    +0.054 A 
ATOM     11  C   UNL     1       1.979   0.729  -1.359  0.00  0.00    +0.196 C 
ATOM     12  O   UNL     1       1.840   1.929  -1.500  0.00  0.00    -0.287 OA
ATOM     13  C   UNL     1       3.181   0.049  -1.891  0.00  0.00    +0.033 A 
ATOM     14  C   UNL     1       4.289   0.784  -2.298  0.00  0.00    +0.012 A 
ATOM     15  C   UNL     1       5.405   0.130  -2.792  0.00  0.00    +0.001 A 
ATOM     16  C   UNL     1       5.426  -1.250  -2.882  0.00  0.00    +0.001 A 
ATOM     17  C   UNL     1       4.332  -1.997  -2.482  0.00  0.00    +0.012 A 
ATOM     18  C   UNL     1       3.202  -1.355  -1.984  0.00  0.00    +0.033 A 
ATOM     19  C   UNL     1       2.030  -2.136  -1.540  0.00  0.00    +0.195 C 
ATOM     20  O   UNL     1       1.927  -3.310  -1.837  0.00  0.00    -0.287 OA
ENDBRANCH   3   5
BRANCH   1  21
ATOM     21  C   UNL     1      -1.284   4.107   0.239  0.00  0.00    +0.259 C 
ATOM     22  C   UNL     1      -0.532   4.634   1.463  0.00  0.00    +0.062 C 
BRANCH  21  23
ATOM     23  O   UNL     1      -2.641   4.553   0.284  0.00  0.00    -0.448 OA
BRANCH  23  24
ATOM     24  C   UNL     1      -2.918   5.734  -0.308  0.00  0.00    +0.348 C 
ATOM     25  O   UNL     1      -2.030   6.366  -0.850  0.00  0.00    -0.244 OA
BRANCH  24  34
ATOM     26  C   UNL     1      -6.125   9.937  -1.940  0.00  0.00    +0.044 C 
ATOM     27  C   UNL     1      -6.838   8.846  -1.184  0.00  0.00    -0.037 A 
ATOM     28  C   UNL     1      -8.189   8.934  -0.941  0.00  0.00    +0.027 A 
ATOM     29  C   UNL     1      -8.843   7.929  -0.244  0.00  0.00    +0.040 A 
ATOM     30  N   UNL     1      -8.178   6.878   0.194  0.00  0.00    -0.245 NA
ATOM     31  C   UNL     1      -6.886   6.748  -0.013  0.00  0.00    +0.111 A 
ATOM     32  C   UNL     1      -6.128   7.715  -0.712  0.00  0.00    +0.032 A 
ATOM     33  C   UNL     1      -4.711   7.412  -0.844  0.00  0.00    +0.056 A 
ATOM     34  C   UNL     1      -4.241   6.236  -0.301  0.00  0.00    +0.119 A 
ATOM     35  S   UNL     1      -5.696   5.502   0.419  0.00  0.00    -0.060 S 
ATOM     36  C   UNL     1     -10.324   8.040   0.015  0.00  0.00    +0.065 C 
BRANCH  33  37
ATOM     37  N   UNL     1      -3.856   8.284  -1.502  0.00  0.00    -0.356 N 
ATOM     38  H   UNL     1      -2.787   8.041  -1.594  0.00  0.00    +0.142 HD
ATOM     39  H   UNL     1      -4.247   9.217  -1.933  0.00  0.00    +0.142 HD
ENDBRANCH  33  37
ENDBRANCH  24  34
ENDBRANCH  23  24
ENDBRANCH  21  23
ENDBRANCH   1  21
TORSDOF 6
