REMARK  Name = ZINC61672079
REMARK  6 active torsions:
REMARK  status: ('A' for Active; 'I' for Inactive)
REMARK    1  A    between atoms: C_1  and  C_2
REMARK    2  A    between atoms: C_2  and  C_3
REMARK    3  A    between atoms: C_3  and  N_4
REMARK    4  A    between atoms: N_4  and  C_5
REMARK    5  A    between atoms: C_5  and  C_7
REMARK    6  A    between atoms: C_5  and  C_18
REMARK                            x       y       z     vdW  Elec       q    Type
REMARK                         _______ _______ _______ _____ _____    ______ ____
ROOT
ATOM      1  C   UNL     1       1.415  -2.572   2.408  0.00  0.00    -0.037 C 
ENDROOT
BRANCH   1   2
ATOM      2  C   UNL     1       1.691  -4.050   2.306  0.00  0.00    -0.058 A 
ATOM      3  C   UNL     1       0.724  -4.897   1.793  0.00  0.00    +0.004 A 
ATOM      4  C   UNL     1       0.969  -6.253   1.696  0.00  0.00    +0.030 A 
ATOM      5  C   UNL     1       2.187  -6.765   2.115  0.00  0.00    +0.087 A 
ATOM      6  C   UNL     1       3.162  -5.912   2.632  0.00  0.00    +0.157 A 
ATOM      7  C   UNL     1       2.909  -4.552   2.720  0.00  0.00    +0.050 A 
ATOM      8  O   UNL     1       4.234  -6.676   2.955  0.00  0.00    -0.408 OA
ATOM      9  C   UNL     1       3.967  -7.958   2.662  0.00  0.00    +0.419 A 
ATOM     10  O   UNL     1       4.727  -8.892   2.836  0.00  0.00    -0.223 OA
ATOM     11  N   UNL     1       2.725  -8.051   2.147  0.00  0.00    -0.288 N 
ATOM     12  H   UNL     1       2.286  -8.864   1.852  0.00  0.00    +0.172 HD
ENDBRANCH   1   2
BRANCH   1  13
ATOM     13  C   UNL     1       0.572  -2.295   3.655  0.00  0.00    -0.017 C 
ATOM     14  C   UNL     1       0.340  -0.787   3.792  0.00  0.00    +0.030 C 
ATOM     15  C   UNL     1      -0.436  -0.513   5.082  0.00  0.00    +0.160 C 
ATOM     16  O   UNL     1       0.291  -1.037   6.195  0.00  0.00    -0.380 OA
ATOM     17  C   UNL     1       0.497  -2.450   6.144  0.00  0.00    +0.160 C 
ATOM     18  C   UNL     1       1.312  -2.802   4.897  0.00  0.00    +0.030 C 
ENDBRANCH   1  13
BRANCH   1  19
ATOM     19  N   UNL     1       0.685  -2.126   1.214  0.00  0.00    +0.384 N 
ATOM     20  H   UNL     1       0.423  -1.158   1.322  0.00  0.00    -0.085 HD
ATOM     21  H   UNL     1      -0.144  -2.688   1.098  0.00  0.00    -0.085 HD
BRANCH  19  22
ATOM     22  C   UNL     1       1.545  -2.272   0.032  0.00  0.00    -0.082 C 
BRANCH  22  24
ATOM     23  C   UNL     1       1.655  -2.030  -2.452  0.00  0.00    +0.002 C 
ATOM     24  C   UNL     1       0.760  -1.878  -1.221  0.00  0.00    -0.022 C 
ENDBRANCH  22  24
ENDBRANCH  19  22
ENDBRANCH   1  19
TORSDOF 5
