REMARK  Name = ZINC12818921
REMARK  7 active torsions:
REMARK  status: ('A' for Active; 'I' for Inactive)
REMARK    1  A    between atoms: C_1  and  C_2
REMARK    2  A    between atoms: C_5  and  C_7
REMARK    3  A    between atoms: C_16  and  C_18
REMARK    4  A    between atoms: C_18  and  S_19
REMARK    5  A    between atoms: S_19  and  C_20
REMARK    6  A    between atoms: N_25  and  C_26
REMARK    7  A    between atoms: C_26  and  C_27
REMARK                            x       y       z     vdW  Elec       q    Type
REMARK                         _______ _______ _______ _____ _____    ______ ____
ROOT
ATOM      1  C   UNL     1      -1.159   2.334   0.020  0.00  0.00    +0.010 A 
ATOM      2  C   UNL     1      -0.929   3.671   0.030  0.00  0.00    +0.057 A 
ATOM      3  S   UNL     1       0.850   3.783   0.014  0.00  0.00    -0.076 S 
ATOM      4  C   UNL     1       1.240   2.052   0.001  0.00  0.00    +0.116 A 
ATOM      5  C   UNL     1      -0.017   1.427   0.010  0.00  0.00    +0.080 A 
ATOM      6  C   UNL     1       0.002  -0.004   0.002  0.00  0.00    +0.260 A 
ATOM      7  O   UNL     1      -1.040  -0.637   0.008  0.00  0.00    -0.267 OA
ATOM      8  N   UNL     1       1.188  -0.640  -0.013  0.00  0.00    -0.310 N 
ATOM      9  H   UNL     1       1.207  -1.610  -0.018  0.00  0.00    +0.170 HD
ATOM     10  C   UNL     1       2.358   0.048  -0.020  0.00  0.00    +0.121 A 
ATOM     11  N   UNL     1       2.373   1.354  -0.013  0.00  0.00    -0.226 NA
ENDROOT
BRANCH   1  16
ATOM     12  C   UNL     1      -6.121  -0.233  -0.726  0.00  0.00    +0.051 C 
ATOM     13  C   UNL     1      -4.917   0.581  -0.331  0.00  0.00    -0.013 A 
ATOM     14  C   UNL     1      -4.798   1.504   0.657  0.00  0.00    +0.011 A 
ATOM     15  C   UNL     1      -3.585   2.131   0.848  0.00  0.00    +0.016 A 
ATOM     16  C   UNL     1      -2.540   1.808   0.024  0.00  0.00    +0.021 A 
ATOM     17  S   UNL     1      -3.279   0.579  -1.041  0.00  0.00    -0.093 S 
ENDBRANCH   1  16
BRANCH  10  18
ATOM     18  C   UNL     1       3.662  -0.707  -0.037  0.00  0.00    +0.150 C 
BRANCH  18  19
ATOM     19  S   UNL     1       5.042   0.470  -0.044  0.00  0.00    -0.089 S 
BRANCH  19  20
ATOM     20  C   UNL     1       6.476  -0.555  -0.064  0.00  0.00    +0.160 A 
ATOM     21  N   UNL     1       6.563  -1.871  -0.073  0.00  0.00    -0.133 NA
ATOM     22  N   UNL     1       7.798  -2.475  -0.089  0.00  0.00    -0.125 NA
ATOM     23  C   UNL     1       8.890  -1.736  -0.095  0.00  0.00    +0.183 A 
ATOM     24  S   UNL     1       8.200  -0.089  -0.085  0.00  0.00    -0.025 S 
ATOM     25  N   UNL     1      10.222  -2.133  -0.111  0.00  0.00    -0.318 N 
ATOM     26  H   UNL     1      10.927  -1.466  -0.115  0.00  0.00    +0.148 HD
BRANCH  25  27
ATOM     27  C   UNL     1      10.562  -3.558  -0.123  0.00  0.00    +0.138 C 
BRANCH  27  28
ATOM     28  C   UNL     1      12.061  -3.717  -0.139  0.00  0.00    -0.030 A 
ATOM     29  C   UNL     1      12.735  -3.789  -1.344  0.00  0.00    +0.005 A 
ATOM     30  C   UNL     1      14.110  -3.929  -1.359  0.00  0.00    +0.000 A 
ATOM     31  C   UNL     1      14.810  -4.009  -0.169  0.00  0.00    +0.000 A 
ATOM     32  C   UNL     1      14.135  -3.943   1.036  0.00  0.00    +0.000 A 
ATOM     33  C   UNL     1      12.760  -3.797   1.050  0.00  0.00    +0.005 A 
ENDBRANCH  27  28
ENDBRANCH  25  27
ENDBRANCH  19  20
ENDBRANCH  18  19
ENDBRANCH  10  18
TORSDOF 6
