REMARK  Name = ZINC03303164
REMARK  9 active torsions:
REMARK  status: ('A' for Active; 'I' for Inactive)
REMARK    1  A    between atoms: C_8  and  C_10
REMARK    2  A    between atoms: C_10  and  C_12
REMARK    3  A    between atoms: C_12  and  O_13
REMARK    4  A    between atoms: O_13  and  C_14
REMARK    5  A    between atoms: C_14  and  C_16
REMARK    6  A    between atoms: C_16  and  C_18
REMARK    7  A    between atoms: C_16  and  N_29
REMARK    8  A    between atoms: C_18  and  C_19
REMARK    9  A    between atoms: C_30  and  C_32
REMARK                            x       y       z     vdW  Elec       q    Type
REMARK                         _______ _______ _______ _____ _____    ______ ____
ROOT
ATOM      1  C   UNL     1       0.002  -0.004   0.002  0.00  0.00    +0.186 C 
ENDROOT
BRANCH   1   2
ATOM      2  N   UNL     1       1.311  -0.477   0.459  0.00  0.00    -0.298 N 
ATOM      3  C   UNL     1       2.426  -0.133  -0.215  0.00  0.00    +0.251 C 
ATOM      4  O   UNL     1       2.345   0.571  -1.205  0.00  0.00    -0.270 OA
ATOM      5  H   UNL     1       1.375  -1.038   1.248  0.00  0.00    +0.150 HD
BRANCH   3   6
ATOM      6  C   UNL     1       3.735  -0.606   0.242  0.00  0.00    +0.074 A 
ATOM      7  C   UNL     1       4.988  -0.370  -0.301  0.00  0.00    +0.021 A 
ATOM      8  C   UNL     1       6.063  -0.940   0.335  0.00  0.00    +0.008 A 
ATOM      9  C   UNL     1       5.853  -1.695   1.445  0.00  0.00    +0.046 A 
ATOM     10  S   UNL     1       4.132  -1.630   1.648  0.00  0.00    -0.092 S 
ENDBRANCH   3   6
ENDBRANCH   1   2
BRANCH   1  11
ATOM     11  C   UNL     1      -0.018   1.503   0.010  0.00  0.00    +0.328 C 
ATOM     12  O   UNL     1       1.020   2.121   0.004  0.00  0.00    -0.249 OA
BRANCH  11  13
ATOM     13  O   UNL     1      -1.190   2.158   0.019  0.00  0.00    -0.455 OA
BRANCH  13  14
ATOM     14  C   UNL     1      -1.133   3.609   0.027  0.00  0.00    +0.314 C 
BRANCH  14  15
ATOM     15  C   UNL     1      -2.534   4.166   0.037  0.00  0.00    +0.235 C 
ATOM     16  O   UNL     1      -3.486   3.413   0.037  0.00  0.00    -0.285 OA
BRANCH  15  24
ATOM     17  C   UNL     1      -3.969   9.959   0.076  0.00  0.00    +0.001 A 
ATOM     18  C   UNL     1      -2.588  10.113   0.071  0.00  0.00    +0.004 A 
ATOM     19  C   UNL     1      -1.758   9.013   0.061  0.00  0.00    +0.047 A 
ATOM     20  C   UNL     1      -2.303   7.734   0.056  0.00  0.00    +0.136 A 
ATOM     21  C   UNL     1      -3.702   7.582   0.061  0.00  0.00    +0.021 A 
ATOM     22  C   UNL     1      -4.527   8.713   0.072  0.00  0.00    +0.011 A 
ATOM     23  C   UNL     1      -3.952   6.187   0.054  0.00  0.00    +0.061 A 
ATOM     24  C   UNL     1      -2.739   5.569   0.045  0.00  0.00    +0.175 A 
ATOM     25  O   UNL     1      -1.760   6.501   0.052  0.00  0.00    -0.452 OA
ENDBRANCH  15  24
ENDBRANCH  14  15
ENDBRANCH  13  14
ENDBRANCH  11  13
ENDBRANCH   1  11
BRANCH   1  26
ATOM     26  C   UNL     1      -0.255  -0.510  -1.419  0.00  0.00    +0.071 C 
BRANCH  26  27
ATOM     27  C   UNL     1      -0.357  -2.013  -1.406  0.00  0.00    -0.020 A 
ATOM     28  C   UNL     1       0.635  -2.883  -1.658  0.00  0.00    +0.087 A 
ATOM     29  N   UNL     1       0.168  -4.165  -1.553  0.00  0.00    -0.360 N 
ATOM     30  H   UNL     1       0.700  -4.964  -1.691  0.00  0.00    +0.165 HD
ATOM     31  C   UNL     1      -1.168  -4.152  -1.223  0.00  0.00    +0.047 A 
ATOM     32  C   UNL     1      -1.555  -2.803  -1.111  0.00  0.00    +0.003 A 
ATOM     33  C   UNL     1      -2.871  -2.481  -0.777  0.00  0.00    +0.010 A 
ATOM     34  C   UNL     1      -3.778  -3.479  -0.556  0.00  0.00    +0.001 A 
ATOM     35  C   UNL     1      -3.402  -4.811  -0.662  0.00  0.00    +0.002 A 
ATOM     36  C   UNL     1      -2.109  -5.151  -0.999  0.00  0.00    +0.026 A 
ENDBRANCH  26  27
ENDBRANCH   1  26
TORSDOF 9
