REMARK  Name = ZINC13203332
REMARK  8 active torsions:
REMARK  status: ('A' for Active; 'I' for Inactive)
REMARK    1  A    between atoms: C_1  and  C_2
REMARK    2  A    between atoms: C_2  and  C_4
REMARK    3  A    between atoms: C_2  and  S_14
REMARK    4  A    between atoms: N_6  and  C_7
REMARK    5  A    between atoms: S_14  and  C_15
REMARK    6  A    between atoms: C_18  and  C_23
REMARK    7  A    between atoms: N_19  and  C_20
REMARK    8  A    between atoms: C_20  and  C_21
REMARK                            x       y       z     vdW  Elec       q    Type
REMARK                         _______ _______ _______ _____ _____    ______ ____
ROOT
ATOM      1  S   UNL     1      -2.662   0.745   2.800  0.00  0.00    -0.073 S 
ENDROOT
BRANCH   1   2
ATOM      2  C   UNL     1      -3.049   0.436   1.110  0.00  0.00    +0.193 A 
ATOM      3  N   UNL     1      -3.984  -0.370   0.659  0.00  0.00    -0.122 NA
ATOM      4  N   UNL     1      -3.995  -0.360  -0.625  0.00  0.00    -0.128 NA
ATOM      5  C   UNL     1      -3.071   0.458  -1.077  0.00  0.00    +0.172 A 
ATOM      6  N   UNL     1      -2.432   0.989   0.022  0.00  0.00    -0.291 N 
BRANCH   5   7
ATOM      7  C   UNL     1      -2.773   0.750  -2.488  0.00  0.00    +0.056 A 
ATOM      8  C   UNL     1      -3.160   0.066  -3.613  0.00  0.00    +0.019 A 
ATOM      9  C   UNL     1      -2.759   0.536  -4.843  0.00  0.00    +0.008 A 
ATOM     10  C   UNL     1      -1.985   1.651  -4.906  0.00  0.00    +0.046 A 
ATOM     11  S   UNL     1      -1.807   2.081  -3.182  0.00  0.00    -0.094 S 
ENDBRANCH   5   7
BRANCH   6  12
ATOM     12  C   UNL     1      -1.326   1.950   0.025  0.00  0.00    +0.250 C 
BRANCH  12  13
ATOM     13  C   UNL     1      -0.015   1.208   0.009  0.00  0.00    +0.375 C 
ATOM     14  O   UNL     1      -0.005  -0.001  -0.004  0.00  0.00    -0.244 OA
ATOM     15  O   UNL     1       1.142   1.889   0.003  0.00  0.00    -0.244 OA
ENDBRANCH  12  13
ENDBRANCH   6  12
ENDBRANCH   1   2
BRANCH   1  17
ATOM     16  C   UNL     1      -3.575  -1.787   3.267  0.00  0.00    +0.029 C 
ATOM     17  C   UNL     1      -3.880  -0.326   3.603  0.00  0.00    +0.137 C 
BRANCH  17  18
ATOM     18  C   UNL     1      -3.816  -0.129   5.096  0.00  0.00    +0.230 C 
ATOM     19  O   UNL     1      -2.825   0.354   5.602  0.00  0.00    -0.274 OA
ATOM     20  N   UNL     1      -4.860  -0.490   5.869  0.00  0.00    -0.285 N 
ATOM     21  H   UNL     1      -5.677  -0.814   5.459  0.00  0.00    +0.155 HD
BRANCH  20  22
ATOM     22  C   UNL     1      -4.763  -0.398   7.262  0.00  0.00    +0.033 A 
ATOM     23  C   UNL     1      -5.396  -1.337   8.066  0.00  0.00    +0.024 A 
ATOM     24  C   UNL     1      -5.294  -1.247   9.441  0.00  0.00    +0.017 A 
ATOM     25  C   UNL     1      -4.573  -0.216  10.017  0.00  0.00    +0.018 A 
ATOM     26  C   UNL     1      -3.947   0.724   9.217  0.00  0.00    +0.017 A 
ATOM     27  C   UNL     1      -4.040   0.635   7.842  0.00  0.00    +0.024 A 
ATOM     28 BR   UNL     1      -4.442  -0.093  11.899  0.00  0.00    -0.050 Br
ENDBRANCH  20  22
ENDBRANCH  17  18
ENDBRANCH   1  17
TORSDOF 7
