REMARK  Name = ZINC23403397
REMARK  8 active torsions:
REMARK  status: ('A' for Active; 'I' for Inactive)
REMARK    1  A    between atoms: C_1  and  C_2
REMARK    2  A    between atoms: C_2  and  C_3
REMARK    3  A    between atoms: C_2  and  C_4
REMARK    4  A    between atoms: C_7  and  C_10
REMARK    5  A    between atoms: C_10  and  C_12
REMARK    6  A    between atoms: C_10  and  N_17
REMARK    7  A    between atoms: N_17  and  S_18
REMARK    8  A    between atoms: S_18  and  C_21
REMARK                            x       y       z     vdW  Elec       q    Type
REMARK                         _______ _______ _______ _____ _____    ______ ____
ROOT
ATOM      1  N   UNL     1      -5.972  -1.947  -1.312  0.00  0.00    -0.178 NA
ATOM      2  H   UNL     1      -5.398  -2.110  -2.077  0.00  0.00    +0.149 HD
ENDROOT
BRANCH   1   3
ATOM      3  S   UNL     1      -7.576  -1.603  -1.538  0.00  0.00    +0.059 S 
ATOM      4  O   UNL     1      -7.795  -1.594  -2.942  0.00  0.00    -0.153 OA
ATOM      5  O   UNL     1      -8.301  -2.452  -0.660  0.00  0.00    -0.153 OA
BRANCH   3   6
ATOM      6  C   UNL     1      -7.839   0.046  -0.976  0.00  0.00    +0.107 A 
ATOM      7  C   UNL     1      -8.181   0.278   0.345  0.00  0.00    +0.030 A 
ATOM      8  C   UNL     1      -8.389   1.566   0.793  0.00  0.00    +0.030 A 
ATOM      9  C   UNL     1      -8.257   2.638  -0.083  0.00  0.00    +0.066 A 
ATOM     10  C   UNL     1      -7.913   2.404  -1.415  0.00  0.00    +0.068 A 
ATOM     11  C   UNL     1      -7.699   1.102  -1.853  0.00  0.00    +0.056 A 
ATOM     12  N   UNL     1      -7.776   3.463  -2.308  0.00  0.00    -0.316 N 
ATOM     13  H   UNL     1      -7.537   3.290  -3.232  0.00  0.00    +0.169 HD
ATOM     14  C   UNL     1      -7.976   4.730  -1.890  0.00  0.00    +0.314 A 
ATOM     15  O   UNL     1      -7.858   5.657  -2.665  0.00  0.00    -0.262 OA
ATOM     16  C   UNL     1      -8.343   4.980  -0.466  0.00  0.00    +0.314 A 
ATOM     17  O   UNL     1      -8.528   6.113  -0.070  0.00  0.00    -0.262 OA
ATOM     18  N   UNL     1      -8.470   3.935   0.377  0.00  0.00    -0.316 N 
ATOM     19  H   UNL     1      -8.709   4.087   1.304  0.00  0.00    +0.169 HD
ENDBRANCH   3   6
ENDBRANCH   1   3
BRANCH   1  20
ATOM     20  C   UNL     1      -5.419  -2.005   0.043  0.00  0.00    +0.143 C 
BRANCH  20  24
ATOM     21  C   UNL     1      -1.412  -0.526   0.013  0.00  0.00    -0.045 A 
ATOM     22  C   UNL     1      -2.259  -0.204   1.056  0.00  0.00    +0.004 A 
ATOM     23  C   UNL     1      -3.556  -0.683   1.066  0.00  0.00    +0.006 A 
ATOM     24  C   UNL     1      -4.006  -1.482   0.032  0.00  0.00    -0.024 A 
ATOM     25  C   UNL     1      -3.159  -1.803  -1.012  0.00  0.00    +0.006 A 
ATOM     26  C   UNL     1      -1.863  -1.321  -1.024  0.00  0.00    +0.004 A 
BRANCH  21  28
ATOM     27  C   UNL     1      -0.019   1.526   0.010  0.00  0.00    +0.012 C 
ATOM     28  C   UNL     1       0.002  -0.004   0.002  0.00  0.00    +0.013 C 
ATOM     29  C   UNL     1       0.742  -0.511   1.242  0.00  0.00    +0.012 C 
ENDBRANCH  21  28
ENDBRANCH  20  24
BRANCH  20  30
ATOM     30  C   UNL     1      -5.423  -3.432   0.527  0.00  0.00    +0.013 A 
ATOM     31  C   UNL     1      -5.728  -3.916   1.756  0.00  0.00    +0.013 A 
ATOM     32  C   UNL     1      -5.663  -5.279   1.975  0.00  0.00    +0.008 A 
ATOM     33  C   UNL     1      -5.298  -6.092   0.954  0.00  0.00    +0.045 A 
ATOM     34  S   UNL     1      -5.037  -4.925  -0.372  0.00  0.00    -0.100 S 
ENDBRANCH  20  30
ENDBRANCH   1  20
TORSDOF 6
