REMARK  Name = ZINC04086890
REMARK  6 active torsions:
REMARK  status: ('A' for Active; 'I' for Inactive)
REMARK    1  A    between atoms: C_1  and  C_2
REMARK    2  A    between atoms: C_2  and  C_4
REMARK    3  A    between atoms: C_2  and  N_10
REMARK    4  A    between atoms: N_10  and  C_11
REMARK    5  A    between atoms: C_11  and  C_12
REMARK    6  A    between atoms: C_24  and  C_31
REMARK                            x       y       z     vdW  Elec       q    Type
REMARK                         _______ _______ _______ _____ _____    ______ ____
ROOT
ATOM      1  C   UNL     1       0.700  -0.626   3.637  0.00  0.00    +0.087 C 
ATOM      2  C   UNL     1      -0.114  -0.310   4.928  0.00  0.00    +0.042 C 
ATOM      3  C   UNL     1       0.149  -1.463   5.900  0.00  0.00    +0.016 C 
ATOM      4  C   UNL     1      -0.202  -1.050   7.327  0.00  0.00    +0.021 C 
ATOM      5  C   UNL     1       0.021  -2.208   8.272  0.00  0.00    -0.073 C 
ATOM      6  C   UNL     1       0.269  -3.411   7.817  0.00  0.00    +0.008 C 
ATOM      7  C   UNL     1      -0.049  -1.936   9.759  0.00  0.00    +0.030 C 
ATOM      8  C   UNL     1       0.864  -0.751  10.086  0.00  0.00    +0.005 C 
ATOM      9  C   UNL     1       0.492   0.443   9.204  0.00  0.00    +0.007 C 
ATOM     10  C   UNL     1       0.726   0.105   7.731  0.00  0.00    -0.022 C 
ATOM     11  C   UNL     1       0.399   1.302   6.841  0.00  0.00    +0.052 C 
ATOM     12  C   UNL     1       0.598   0.983   5.372  0.00  0.00    +0.181 C 
ATOM     13  O   UNL     1       1.971   0.747   5.039  0.00  0.00    -0.461 OA
ATOM     14  C   UNL     1       2.000   0.135   3.831  0.00  0.00    +0.309 C 
ATOM     15  O   UNL     1       2.908   0.185   3.036  0.00  0.00    -0.251 OA
ATOM     16  C   UNL     1       2.185  -0.315   7.537  0.00  0.00    +0.012 C 
ENDROOT
BRANCH   1  17
ATOM     17  C   UNL     1      -0.040  -0.119   2.398  0.00  0.00    -0.067 C 
BRANCH  17  18
ATOM     18  N   UNL     1       0.713  -0.491   1.192  0.00  0.00    +0.384 N 
ATOM     19  H   UNL     1       0.798  -1.495   1.145  0.00  0.00    -0.085 HD
ATOM     20  H   UNL     1       1.632  -0.076   1.228  0.00  0.00    -0.085 HD
BRANCH  18  22
ATOM     21  C   UNL     1      -0.019   1.526   0.010  0.00  0.00    -0.009 C 
ATOM     22  C   UNL     1       0.002  -0.004   0.002  0.00  0.00    -0.044 C 
BRANCH  22  23
ATOM     23  C   UNL     1       0.707  -0.490  -1.238  0.00  0.00    -0.062 A 
ATOM     24  C   UNL     1       2.089  -0.511  -1.284  0.00  0.00    +0.002 A 
ATOM     25  C   UNL     1       2.736  -0.957  -2.421  0.00  0.00    +0.000 A 
ATOM     26  C   UNL     1       2.002  -1.382  -3.512  0.00  0.00    +0.000 A 
ATOM     27  C   UNL     1       0.620  -1.362  -3.466  0.00  0.00    +0.000 A 
ATOM     28  C   UNL     1      -0.027  -0.920  -2.327  0.00  0.00    +0.002 A 
ENDBRANCH  22  23
ENDBRANCH  18  22
ENDBRANCH  17  18
ENDBRANCH   1  17
TORSDOF 4
