REMARK  Name = ZINC03579548
REMARK  7 active torsions:
REMARK  status: ('A' for Active; 'I' for Inactive)
REMARK    1  A    between atoms: C_1  and  C_2
REMARK    2  A    between atoms: C_2  and  C_18
REMARK    3  A    between atoms: N_5  and  N_9
REMARK    4  A    between atoms: C_10  and  C_11
REMARK    5  A    between atoms: C_14  and  O_17
REMARK    6  A    between atoms: C_21  and  O_24
REMARK    7  A    between atoms: O_24  and  C_25
REMARK                            x       y       z     vdW  Elec       q    Type
REMARK                         _______ _______ _______ _____ _____    ______ ____
ROOT
ATOM      1  C   UNL     1      -0.005   1.081   0.013  0.00  0.00    +0.047 C 
ATOM      2  C   UNL     1      -0.728   1.578   1.266  0.00  0.00    +0.137 C 
ATOM      3  C   UNL     1      -2.110   0.963   1.365  0.00  0.00    +0.271 C 
ATOM      4  O   UNL     1      -3.024   1.085   0.577  0.00  0.00    -0.271 OA
ATOM      5  N   UNL     1      -2.112   0.253   2.510  0.00  0.00    -0.109 N 
ATOM      6  C   UNL     1      -0.936   0.333   3.142  0.00  0.00    +0.330 C 
ATOM      7  O   UNL     1      -0.696  -0.224   4.196  0.00  0.00    -0.250 OA
ATOM      8  N   UNL     1      -0.048   1.098   2.482  0.00  0.00    -0.280 N 
ATOM      9  H   UNL     1       0.862   1.295   2.753  0.00  0.00    +0.152 HD
ENDROOT
BRANCH   2  10
ATOM     10  C   UNL     1      -0.813   3.083   1.266  0.00  0.00    -0.015 A 
ATOM     11  C   UNL     1      -1.903   3.712   0.693  0.00  0.00    +0.010 A 
ATOM     12  C   UNL     1      -1.985   5.091   0.696  0.00  0.00    +0.046 A 
ATOM     13  C   UNL     1      -0.968   5.845   1.264  0.00  0.00    +0.120 A 
ATOM     14  C   UNL     1       0.127   5.211   1.833  0.00  0.00    +0.046 A 
ATOM     15  C   UNL     1       0.202   3.831   1.832  0.00  0.00    +0.010 A 
BRANCH  13  16
ATOM     16  O   UNL     1      -1.045   7.202   1.264  0.00  0.00    -0.495 OA
ATOM     17  C   UNL     1      -2.201   7.786   0.661  0.00  0.00    +0.277 C 
ENDBRANCH  13  16
ENDBRANCH   2  10
BRANCH   5  18
ATOM     18  N   UNL     1      -3.210  -0.479   2.980  0.00  0.00    -0.176 NA
ATOM     19  C   UNL     1      -4.347  -0.417   2.357  0.00  0.00    +0.139 C 
BRANCH  19  20
ATOM     20  C   UNL     1      -5.531  -1.097   2.912  0.00  0.00    -0.005 A 
ATOM     21  C   UNL     1      -5.430  -1.815   4.107  0.00  0.00    +0.013 A 
ATOM     22  C   UNL     1      -6.541  -2.444   4.626  0.00  0.00    +0.046 A 
ATOM     23  C   UNL     1      -7.756  -2.375   3.957  0.00  0.00    +0.117 A 
ATOM     24  C   UNL     1      -7.859  -1.668   2.766  0.00  0.00    +0.046 A 
ATOM     25  C   UNL     1      -6.755  -1.031   2.243  0.00  0.00    +0.013 A 
BRANCH  23  26
ATOM     26  O   UNL     1      -8.847  -3.002   4.470  0.00  0.00    -0.507 OA
ATOM     27  H   UNL     1      -8.956  -3.914   4.166  0.00  0.00    +0.292 HD
ENDBRANCH  23  26
ENDBRANCH  19  20
ENDBRANCH   5  18
TORSDOF 5
