REMARK  Name = ZINC02678490
REMARK  10 active torsions:
REMARK  status: ('A' for Active; 'I' for Inactive)
REMARK    1  A    between atoms: C_1  and  C_2
REMARK    2  A    between atoms: C_2  and  C_29
REMARK    3  A    between atoms: C_3  and  C_25
REMARK    4  A    between atoms: C_5  and  C_7
REMARK    5  A    between atoms: N_9  and  C_10
REMARK    6  A    between atoms: C_10  and  C_12
REMARK    7  A    between atoms: C_10  and  N_16
REMARK    8  A    between atoms: N_16  and  C_17
REMARK    9  A    between atoms: C_22  and  O_23
REMARK   10  A    between atoms: O_23  and  C_24
REMARK                            x       y       z     vdW  Elec       q    Type
REMARK                         _______ _______ _______ _____ _____    ______ ____
ROOT
ATOM      1  C   UNL     1       2.543   0.432   4.314  0.00  0.00    +0.210 C 
ENDROOT
BRANCH   1   4
ATOM      2  C   UNL     1       1.331  -0.012   2.248  0.00  0.00    +0.219 C 
ATOM      3  O   UNL     1       1.250   1.185   2.073  0.00  0.00    -0.275 OA
ATOM      4  N   UNL     1       1.960  -0.492   3.339  0.00  0.00    -0.293 N 
ATOM      5  H   UNL     1       2.025  -1.450   3.479  0.00  0.00    +0.151 HD
BRANCH   2   9
ATOM      6  C   UNL     1      -0.005   1.171  -0.079  0.00  0.00    +0.012 C 
ATOM      7  C   UNL     1       0.032  -0.355   0.026  0.00  0.00    -0.016 C 
ATOM      8  C   UNL     1      -0.794  -1.007   1.137  0.00  0.00    +0.033 C 
ATOM      9  C   UNL     1       0.731  -0.963   1.244  0.00  0.00    +0.089 C 
ATOM     10  C   UNL     1       0.146  -1.106  -1.302  0.00  0.00    +0.012 C 
BRANCH   8  11
ATOM     11  C   UNL     1      -1.434  -2.338   0.840  0.00  0.00    +0.010 C 
ATOM     12  C   UNL     1      -2.739  -2.470   0.905  0.00  0.00    +0.103 C 
ATOM     13 CL   UNL     1      -3.728  -1.109   1.333  0.00  0.00    -0.071 Cl
ATOM     14 CL   UNL     1      -3.475  -4.004   0.562  0.00  0.00    -0.071 Cl
ENDBRANCH   8  11
ENDBRANCH   2   9
ENDBRANCH   1   4
BRANCH   1  15
ATOM     15  C   UNL     1       2.179  -0.024   5.729  0.00  0.00    +0.225 C 
ATOM     16 CL   UNL     1       2.826  -1.683   6.012  0.00  0.00    -0.080 Cl
ATOM     17 CL   UNL     1       2.898   1.114   6.930  0.00  0.00    -0.080 Cl
ATOM     18 CL   UNL     1       0.386  -0.038   5.913  0.00  0.00    -0.080 Cl
ENDBRANCH   1  15
BRANCH   1  19
ATOM     19  N   UNL     1       4.000   0.443   4.165  0.00  0.00    -0.320 N 
ATOM     20  H   UNL     1       4.529  -0.297   4.503  0.00  0.00    +0.148 HD
BRANCH  19  21
ATOM     21  C   UNL     1       4.631   1.523   3.535  0.00  0.00    +0.071 A 
ATOM     22  C   UNL     1       3.891   2.632   3.151  0.00  0.00    +0.026 A 
ATOM     23  C   UNL     1       4.516   3.697   2.529  0.00  0.00    +0.002 A 
ATOM     24  C   UNL     1       5.877   3.659   2.288  0.00  0.00    +0.004 A 
ATOM     25  C   UNL     1       6.620   2.557   2.668  0.00  0.00    +0.047 A 
ATOM     26  C   UNL     1       6.003   1.488   3.296  0.00  0.00    +0.141 A 
BRANCH  26  27
ATOM     27  O   UNL     1       6.733   0.405   3.675  0.00  0.00    -0.493 OA
ATOM     28  C   UNL     1       8.135   0.439   3.398  0.00  0.00    +0.277 C 
ENDBRANCH  26  27
ENDBRANCH  19  21
ENDBRANCH   1  19
TORSDOF 7
