REMARK  Name = ZINC61360520
REMARK  6 active torsions:
REMARK  status: ('A' for Active; 'I' for Inactive)
REMARK    1  A    between atoms: C_1  and  C_2
REMARK    2  A    between atoms: C_2  and  C_4
REMARK    3  A    between atoms: C_2  and  N_9
REMARK    4  A    between atoms: N_9  and  S_10
REMARK    5  A    between atoms: S_10  and  C_13
REMARK    6  A    between atoms: C_14  and  N_21
REMARK                            x       y       z     vdW  Elec       q    Type
REMARK                         _______ _______ _______ _____ _____    ______ ____
ROOT
ATOM      1  S   UNL     1      -2.658  -1.038  -2.259  0.00  0.00    +0.062 S 
ATOM      2  O   UNL     1      -3.941  -1.644  -2.324  0.00  0.00    -0.153 OA
ATOM      3  O   UNL     1      -2.268   0.015  -3.131  0.00  0.00    -0.153 OA
ENDROOT
BRANCH   1   4
ATOM      4  C   UNL     1      -1.479  -2.330  -2.471  0.00  0.00    +0.140 A 
ATOM      5  C   UNL     1      -0.239  -2.054  -3.034  0.00  0.00    +0.053 A 
ATOM      6  C   UNL     1       0.688  -3.075  -3.199  0.00  0.00    +0.040 A 
ATOM      7  C   UNL     1       0.374  -4.362  -2.804  0.00  0.00    +0.021 A 
ATOM      8  C   UNL     1      -0.861  -4.633  -2.244  0.00  0.00    +0.032 A 
ATOM      9  C   UNL     1      -1.785  -3.617  -2.073  0.00  0.00    +0.047 A 
ATOM     10 BR   UNL     1      -3.469  -3.992  -1.300  0.00  0.00    -0.048 Br
ATOM     11 BR   UNL     1       1.636  -5.753  -3.029  0.00  0.00    -0.050 Br
BRANCH   5  12
ATOM     12  N   UNL     1       0.075  -0.753  -3.433  0.00  0.00    -0.356 N 
ATOM     13  H   UNL     1      -0.356   0.003  -3.005  0.00  0.00    +0.142 HD
ATOM     14  H   UNL     1       0.724  -0.605  -4.139  0.00  0.00    +0.142 HD
ENDBRANCH   5  12
ENDBRANCH   1   4
BRANCH   1  15
ATOM     15  N   UNL     1      -2.483  -0.464  -0.716  0.00  0.00    -0.183 NA
ATOM     16  H   UNL     1      -3.203  -0.568  -0.075  0.00  0.00    +0.149 HD
BRANCH  15  18
ATOM     17  C   UNL     1      -1.400   1.716  -0.473  0.00  0.00    +0.031 C 
ATOM     18  C   UNL     1      -1.240   0.202  -0.319  0.00  0.00    +0.104 C 
BRANCH  18  19
ATOM     19  C   UNL     1      -0.931  -0.126   1.119  0.00  0.00    -0.022 A 
ATOM     20  C   UNL     1       0.368  -0.377   1.519  0.00  0.00    +0.013 A 
ATOM     21  C   UNL     1       0.611  -0.669   2.820  0.00  0.00    +0.045 A 
ATOM     22  S   UNL     1      -1.026  -0.596   3.527  0.00  0.00    -0.105 S 
ATOM     23  C   UNL     1      -1.923  -0.175   2.042  0.00  0.00    +0.050 A 
ENDBRANCH  18  19
ENDBRANCH  15  18
ENDBRANCH   1  15
TORSDOF 5
