REMARK  Name = ZINC63531253
REMARK  10 active torsions:
REMARK  status: ('A' for Active; 'I' for Inactive)
REMARK    1  A    between atoms: C_1  and  C_2
REMARK    2  A    between atoms: C_2  and  N_3
REMARK    3  A    between atoms: C_7  and  C_9
REMARK    4  A    between atoms: C_9  and  N_10
REMARK    5  A    between atoms: C_11  and  C_13
REMARK    6  A    between atoms: C_15  and  S_25
REMARK    7  A    between atoms: C_19  and  O_23
REMARK    8  A    between atoms: O_23  and  C_24
REMARK    9  A    between atoms: S_25  and  C_26
REMARK   10  A    between atoms: C_29  and  C_32
REMARK                            x       y       z     vdW  Elec       q    Type
REMARK                         _______ _______ _______ _____ _____    ______ ____
ROOT
ATOM      1  C   UNL     1      -1.626  -1.435   4.867  0.00  0.00    +0.204 C 
ATOM      2  C   UNL     1      -0.337  -1.991   5.429  0.00  0.00    +0.030 C 
ATOM      3  C   UNL     1      -0.595  -2.264   6.766  0.00  0.00    +0.010 A 
ATOM      4  C   UNL     1       0.208  -2.793   7.802  0.00  0.00    +0.014 A 
ATOM      5  C   UNL     1      -0.314  -2.958   9.042  0.00  0.00    +0.046 A 
ATOM      6  C   UNL     1      -1.642  -2.614   9.329  0.00  0.00    +0.122 A 
ATOM      7  C   UNL     1      -2.470  -2.099   8.376  0.00  0.00    +0.071 A 
ATOM      8  C   UNL     1      -1.991  -1.902   7.061  0.00  0.00    +0.048 A 
ATOM      9  N   UNL     1      -2.583  -1.426   5.977  0.00  0.00    -0.369 N 
ATOM     10  H   UNL     1      -3.503  -1.121   5.925  0.00  0.00    +0.161 HD
ENDROOT
BRANCH   1  12
ATOM     11  N   UNL     1      -1.611  -2.203   2.515  0.00  0.00    -0.315 N 
ATOM     12  C   UNL     1      -2.130  -2.317   3.754  0.00  0.00    +0.240 C 
ATOM     13  O   UNL     1      -3.003  -3.130   3.973  0.00  0.00    -0.273 OA
ATOM     14  H   UNL     1      -0.913  -1.553   2.340  0.00  0.00    +0.149 HD
BRANCH  11  15
ATOM     15  C   UNL     1      -2.101  -3.061   1.433  0.00  0.00    +0.089 C 
BRANCH  15  20
ATOM     16  N   UNL     1      -1.473  -1.292  -0.156  0.00  0.00    +0.382 N 
ATOM     17  C   UNL     1      -2.168  -1.135  -1.451  0.00  0.00    -0.078 C 
ATOM     18  C   UNL     1      -1.913  -2.467  -2.200  0.00  0.00    -0.020 C 
ATOM     19  C   UNL     1      -1.981  -3.497  -1.041  0.00  0.00    -0.016 C 
ATOM     20  C   UNL     1      -1.351  -2.731   0.141  0.00  0.00    -0.051 C 
ATOM     21  H   UNL     1      -2.008  -0.839   0.571  0.00  0.00    -0.081 HD
BRANCH  16  23
ATOM     22  C   UNL     1      -0.270   0.825  -0.420  0.00  0.00    -0.017 C 
ATOM     23  C   UNL     1      -0.136  -0.688  -0.236  0.00  0.00    -0.082 C 
ENDBRANCH  16  23
ENDBRANCH  15  20
ENDBRANCH  11  15
ENDBRANCH   1  12
BRANCH   6  24
ATOM     24  O   UNL     1      -2.116  -2.798  10.587  0.00  0.00    -0.495 OA
ATOM     25  C   UNL     1      -1.210  -3.341  11.549  0.00  0.00    +0.277 C 
ENDBRANCH   6  24
BRANCH   2  26
ATOM     26  S   UNL     1       1.091  -2.227   4.616  0.00  0.00    -0.091 S 
BRANCH  26  27
ATOM     27  C   UNL     1       1.654  -0.596   4.260  0.00  0.00    +0.013 A 
ATOM     28  C   UNL     1       0.980   0.502   4.780  0.00  0.00    +0.015 A 
ATOM     29  C   UNL     1       1.424   1.779   4.499  0.00  0.00    +0.004 A 
ATOM     30  C   UNL     1       2.538   1.966   3.701  0.00  0.00    -0.050 A 
ATOM     31  C   UNL     1       3.210   0.875   3.181  0.00  0.00    +0.004 A 
ATOM     32  C   UNL     1       2.776  -0.405   3.463  0.00  0.00    +0.015 A 
ATOM     33  C   UNL     1       3.019   3.361   3.396  0.00  0.00    +0.044 C 
ENDBRANCH  26  27
ENDBRANCH   2  26
TORSDOF 7
