REMARK  Name = ZINC37054989
REMARK  5 active torsions:
REMARK  status: ('A' for Active; 'I' for Inactive)
REMARK    1  A    between atoms: C_1  and  C_2
REMARK    2  A    between atoms: C_5  and  N_21
REMARK    3  A    between atoms: C_6  and  C_20
REMARK    4  A    between atoms: C_7  and  S_8
REMARK    5  A    between atoms: S_8  and  N_11
REMARK                            x       y       z     vdW  Elec       q    Type
REMARK                         _______ _______ _______ _____ _____    ______ ____
ROOT
ATOM      1  S   UNL     1       0.558   0.044   2.755  0.00  0.00    +0.062 S 
ATOM      2  O   UNL     1       1.275  -0.714   3.719  0.00  0.00    -0.153 OA
ATOM      3  O   UNL     1       1.056   1.262   2.220  0.00  0.00    -0.153 OA
ENDROOT
BRANCH   1   4
ATOM      4  N   UNL     1      -0.916   0.390   3.425  0.00  0.00    -0.172 NA
ATOM      5  C   UNL     1      -1.634   1.619   3.055  0.00  0.00    +0.115 C 
ATOM      6  C   UNL     1      -2.932   1.221   2.335  0.00  0.00    +0.060 C 
ATOM      7  C   UNL     1      -3.559   0.083   3.072  0.00  0.00    -0.004 A 
ATOM      8  C   UNL     1      -2.984  -0.734   3.996  0.00  0.00    -0.021 A 
ATOM      9  C   UNL     1      -3.791  -1.734   4.535  0.00  0.00    +0.013 A 
ATOM     10  C   UNL     1      -5.079  -1.852   4.139  0.00  0.00    +0.046 A 
ATOM     11  S   UNL     1      -5.222  -0.523   2.954  0.00  0.00    -0.101 S 
ATOM     12  C   UNL     1      -1.528  -0.530   4.394  0.00  0.00    +0.145 C 
ENDBRANCH   1   4
BRANCH   1  19
ATOM     13  C   UNL     1      -0.235   0.993  -0.003  0.00  0.00    +0.046 C 
ATOM     14  C   UNL     1      -0.090  -0.498   0.160  0.00  0.00    -0.024 A 
ATOM     15  C   UNL     1      -0.312  -1.335  -0.919  0.00  0.00    +0.007 A 
ATOM     16  C   UNL     1      -0.181  -2.702  -0.773  0.00  0.00    +0.023 A 
ATOM     17  C   UNL     1       0.175  -3.236   0.459  0.00  0.00    +0.029 A 
ATOM     18  C   UNL     1       0.397  -2.393   1.540  0.00  0.00    -0.003 A 
ATOM     19  C   UNL     1       0.269  -1.027   1.386  0.00  0.00    +0.113 A 
ATOM     20  C   UNL     1       0.783  -2.969   2.878  0.00  0.00    +0.048 C 
BRANCH  17  21
ATOM     21  N   UNL     1       0.309  -4.619   0.610  0.00  0.00    -0.358 N 
ATOM     22  H   UNL     1       0.153  -5.206  -0.146  0.00  0.00    +0.142 HD
ATOM     23  H   UNL     1       0.557  -4.991   1.470  0.00  0.00    +0.142 HD
ENDBRANCH  17  21
ENDBRANCH   1  19
TORSDOF 3
