REMARK  Name = ZINC37121477
REMARK  4 active torsions:
REMARK  status: ('A' for Active; 'I' for Inactive)
REMARK    1  A    between atoms: C_3  and  C_10
REMARK    2  A    between atoms: C_5  and  N_7
REMARK    3  A    between atoms: C_10  and  N_11
REMARK    4  A    between atoms: N_11  and  C_12
REMARK                            x       y       z     vdW  Elec       q    Type
REMARK                         _______ _______ _______ _____ _____    ______ ____
ROOT
ATOM      1  C   UNL     1       3.672   2.182  -0.022  0.00  0.00    +0.137 C 
ENDROOT
BRANCH   1   4
ATOM      2  C   UNL     1      -0.017   1.378   0.010  0.00  0.00    +0.003 A 
ATOM      3  C   UNL     1       1.171   2.085   0.002  0.00  0.00    +0.005 A 
ATOM      4  C   UNL     1       2.377   1.411  -0.013  0.00  0.00    -0.028 A 
ATOM      5  C   UNL     1       2.396   0.028  -0.020  0.00  0.00    +0.038 A 
ATOM      6  C   UNL     1       1.209  -0.679  -0.012  0.00  0.00    +0.127 A 
ATOM      7  C   UNL     1       0.002  -0.004   0.002  0.00  0.00    +0.033 A 
BRANCH   6   8
ATOM      8  N   UNL     1       1.229  -2.159  -0.020  0.00  0.00    +0.056 N 
ATOM      9  O   UNL     1       2.284  -2.749  -0.035  0.00  0.00    -0.126 OA
ATOM     10  O   UNL     1       0.190  -2.778  -0.013  0.00  0.00    -0.126 OA
ENDBRANCH   6   8
ENDBRANCH   1   4
BRANCH   1  11
ATOM     11  N   UNL     1       4.105   2.425   1.356  0.00  0.00    -0.339 N 
ATOM     12  H   UNL     1       3.571   2.099   2.097  0.00  0.00    +0.146 HD
BRANCH  11  13
ATOM     13  C   UNL     1       5.288   3.127   1.603  0.00  0.00    +0.043 A 
ATOM     14  C   UNL     1       6.051   3.599   0.543  0.00  0.00    +0.039 A 
ATOM     15  C   UNL     1       7.220   4.293   0.791  0.00  0.00    +0.020 A 
ATOM     16  C   UNL     1       7.631   4.517   2.093  0.00  0.00    +0.016 A 
ATOM     17  C   UNL     1       6.874   4.048   3.150  0.00  0.00    +0.018 A 
ATOM     18  C   UNL     1       5.700   3.359   2.909  0.00  0.00    +0.039 A 
ATOM     19 BR   UNL     1       4.661   2.725   4.357  0.00  0.00    -0.048 Br
ATOM     20 BR   UNL     1       8.261   4.936  -0.652  0.00  0.00    -0.050 Br
ENDBRANCH  11  13
ENDBRANCH   1  11
TORSDOF 4
