REMARK  Name = ZINC02533135
REMARK  9 active torsions:
REMARK  status: ('A' for Active; 'I' for Inactive)
REMARK    1  A    between atoms: C_1  and  C_2
REMARK    2  A    between atoms: C_7  and  N_25
REMARK    3  A    between atoms: C_8  and  C_13
REMARK    4  A    between atoms: N_17  and  C_21
REMARK    5  A    between atoms: C_21  and  C_22
REMARK    6  A    between atoms: C_22  and  O_23
REMARK    7  A    between atoms: O_23  and  C_24
REMARK    8  A    between atoms: N_25  and  C_26
REMARK    9  A    between atoms: C_26  and  C_27
REMARK                            x       y       z     vdW  Elec       q    Type
REMARK                         _______ _______ _______ _____ _____    ______ ____
ROOT
ATOM      1  C   UNL     1      -5.740   4.241  -0.008  0.00  0.00    +0.045 C 
ATOM      2  C   UNL     1      -4.350   4.821  -0.046  0.00  0.00    -0.034 A 
ATOM      3  C   UNL     1      -4.173   6.210  -0.122  0.00  0.00    +0.008 A 
ATOM      4  C   UNL     1      -2.911   6.726  -0.156  0.00  0.00    +0.047 A 
ATOM      5  C   UNL     1      -1.805   5.858  -0.114  0.00  0.00    +0.142 A 
ATOM      6  N   UNL     1      -0.576   6.372  -0.147  0.00  0.00    -0.214 NA
ATOM      7  C   UNL     1       0.501   5.601  -0.111  0.00  0.00    +0.134 A 
ATOM      8  C   UNL     1       0.351   4.196  -0.034  0.00  0.00    +0.081 A 
ATOM      9  C   UNL     1      -0.959   3.661  -0.004  0.00  0.00    +0.267 A 
ATOM     10  O   UNL     1      -1.135   2.457   0.056  0.00  0.00    -0.267 OA
ATOM     11  N   UNL     1      -2.010   4.508  -0.040  0.00  0.00    -0.267 N 
ATOM     12  C   UNL     1      -3.276   4.002  -0.007  0.00  0.00    +0.099 A 
ENDROOT
BRANCH   8  13
ATOM     13  C   UNL     1       1.482   3.347   0.006  0.00  0.00    +0.037 C 
ATOM     14  C   UNL     1       1.749   2.618   1.129  0.00  0.00    +0.077 C 
ATOM     15  C   UNL     1       1.096   2.632   2.394  0.00  0.00    +0.258 C 
ATOM     16  O   UNL     1       0.146   3.367   2.601  0.00  0.00    -0.269 OA
ATOM     17  N   UNL     1       1.546   1.822   3.336  0.00  0.00    -0.253 N 
ATOM     18  C   UNL     1       2.596   1.004   3.105  0.00  0.00    +0.121 C 
ATOM     19  S   UNL     1       3.339  -0.116   4.167  0.00  0.00    -0.027 S 
ATOM     20  S   UNL     1       3.013   1.386   1.410  0.00  0.00    -0.061 S 
BRANCH  17  21
ATOM     21  C   UNL     1       0.897   1.812   4.650  0.00  0.00    +0.143 C 
BRANCH  21  22
ATOM     22  C   UNL     1      -0.231   0.778   4.653  0.00  0.00    +0.179 C 
BRANCH  22  23
ATOM     23  O   UNL     1       0.321  -0.530   4.493  0.00  0.00    -0.381 OA
ATOM     24  C   UNL     1      -0.655  -1.575   4.483  0.00  0.00    +0.194 C 
ENDBRANCH  22  23
ENDBRANCH  21  22
ENDBRANCH  17  21
ENDBRANCH   8  13
BRANCH   7  25
ATOM     25  N   UNL     1       1.759   6.163  -0.148  0.00  0.00    -0.321 N 
ATOM     26  H   UNL     1       2.545   5.596  -0.121  0.00  0.00    +0.148 HD
BRANCH  25  27
ATOM     27  C   UNL     1       1.908   7.618  -0.227  0.00  0.00    +0.177 C 
BRANCH  27  28
ATOM     28  C   UNL     1       3.373   7.972  -0.254  0.00  0.00    +0.122 A 
ATOM     29  C   UNL     1       4.133   8.092  -1.357  0.00  0.00    +0.046 A 
ATOM     30  C   UNL     1       5.434   8.436  -0.923  0.00  0.00    +0.041 A 
ATOM     31  C   UNL     1       5.393   8.497   0.420  0.00  0.00    +0.195 A 
ATOM     32  O   UNL     1       4.142   8.215   0.820  0.00  0.00    -0.466 OA
ENDBRANCH  27  28
ENDBRANCH  25  27
ENDBRANCH   7  25
TORSDOF 7
