REMARK  Name = ZINC39883819
REMARK  9 active torsions:
REMARK  status: ('A' for Active; 'I' for Inactive)
REMARK    1  A    between atoms: C_1  and  C_2
REMARK    2  A    between atoms: C_2  and  C_3
REMARK    3  A    between atoms: C_2  and  C_4
REMARK    4  A    between atoms: C_10  and  C_13
REMARK    5  A    between atoms: C_13  and  C_14
REMARK    6  A    between atoms: N_16  and  C_17
REMARK    7  A    between atoms: C_17  and  C_18
REMARK    8  A    between atoms: C_21  and  S_24
REMARK    9  A    between atoms: S_24  and  N_27
REMARK                            x       y       z     vdW  Elec       q    Type
REMARK                         _______ _______ _______ _____ _____    ______ ____
ROOT
ATOM      1  C   UNL     1       3.993  -4.488  -1.054  0.00  0.00    +0.218 C 
ATOM      2  O   UNL     1       2.954  -4.884  -1.538  0.00  0.00    -0.275 OA
ATOM      3  N   UNL     1       4.634  -5.231  -0.131  0.00  0.00    -0.311 N 
ATOM      4  H   UNL     1       5.465  -4.914   0.256  0.00  0.00    +0.149 HD
ENDROOT
BRANCH   1   5
ATOM      5  C   UNL     1       4.569  -3.164  -1.487  0.00  0.00    +0.134 C 
BRANCH   5  12
ATOM      6  C   UNL     1       0.707  -0.490  -1.238  0.00  0.00    -0.044 A 
ATOM      7  C   UNL     1       0.216  -0.147  -2.489  0.00  0.00    +0.007 A 
ATOM      8  C   UNL     1       0.847  -0.582  -3.636  0.00  0.00    +0.047 A 
ATOM      9  C   UNL     1       1.986  -1.371  -3.541  0.00  0.00    +0.135 A 
ATOM     10  C   UNL     1       2.479  -1.715  -2.270  0.00  0.00    +0.024 A 
ATOM     11  C   UNL     1       1.831  -1.261  -1.122  0.00  0.00    +0.015 A 
ATOM     12  C   UNL     1       3.668  -2.538  -2.520  0.00  0.00    +0.007 A 
ATOM     13  C   UNL     1       3.791  -2.621  -3.852  0.00  0.00    +0.200 A 
ATOM     14  O   UNL     1       2.803  -1.936  -4.453  0.00  0.00    -0.463 OA
BRANCH   6  16
ATOM     15  C   UNL     1      -0.019   1.526   0.010  0.00  0.00    +0.012 C 
ATOM     16  C   UNL     1       0.002  -0.004   0.002  0.00  0.00    +0.013 C 
ATOM     17  C   UNL     1      -1.433  -0.534   0.013  0.00  0.00    +0.012 C 
ENDBRANCH   6  16
ENDBRANCH   5  12
ENDBRANCH   1   5
BRANCH   3  18
ATOM     18  C   UNL     1       4.074  -6.518   0.290  0.00  0.00    +0.139 C 
BRANCH  18  19
ATOM     19  C   UNL     1       4.975  -7.144   1.323  0.00  0.00    -0.030 A 
ATOM     20  C   UNL     1       6.005  -7.977   0.929  0.00  0.00    +0.007 A 
ATOM     21  C   UNL     1       6.832  -8.551   1.876  0.00  0.00    +0.029 A 
ATOM     22  C   UNL     1       6.628  -8.292   3.219  0.00  0.00    +0.105 A 
ATOM     23  C   UNL     1       5.599  -7.458   3.614  0.00  0.00    +0.029 A 
ATOM     24  C   UNL     1       4.775  -6.881   2.666  0.00  0.00    +0.007 A 
BRANCH  22  25
ATOM     25  S   UNL     1       7.681  -9.024   4.427  0.00  0.00    +0.056 S 
ATOM     26  O   UNL     1       6.944  -9.058   5.641  0.00  0.00    -0.153 OA
ATOM     27  O   UNL     1       8.226 -10.195   3.834  0.00  0.00    -0.153 OA
BRANCH  25  28
ATOM     28  N   UNL     1       8.946  -7.984   4.670  0.00  0.00    -0.204 NA
ATOM     29  H   UNL     1       9.383  -7.945   5.535  0.00  0.00    +0.144 HD
ATOM     30  H   UNL     1       9.250  -7.413   3.947  0.00  0.00    +0.144 HD
ENDBRANCH  25  28
ENDBRANCH  22  25
ENDBRANCH  18  19
ENDBRANCH   3  18
TORSDOF 7
