REMARK  Name = ZINC09246969
REMARK  11 active torsions:
REMARK  status: ('A' for Active; 'I' for Inactive)
REMARK    1  A    between atoms: C_1  and  O_2
REMARK    2  A    between atoms: O_2  and  C_3
REMARK    3  A    between atoms: C_5  and  C_13
REMARK    4  A    between atoms: C_8  and  O_9
REMARK    5  A    between atoms: O_9  and  C_10
REMARK    6  A    between atoms: C_14  and  C_15
REMARK    7  A    between atoms: C_15  and  O_17
REMARK    8  A    between atoms: O_17  and  C_18
REMARK    9  A    between atoms: C_18  and  C_19
REMARK   10  A    between atoms: N_21  and  C_22
REMARK   11  A    between atoms: C_23  and  C_31
REMARK                            x       y       z     vdW  Elec       q    Type
REMARK                         _______ _______ _______ _____ _____    ______ ____
ROOT
ATOM      1  C   UNL     1       2.354   1.141  -0.014  0.00  0.00    +0.328 C 
ENDROOT
BRANCH   1   2
ATOM      2  C   UNL     1       3.536   2.075  -0.021  0.00  0.00    +0.255 C 
ATOM      3  O   UNL     1       3.361   3.275  -0.012  0.00  0.00    -0.272 OA
ATOM      4  N   UNL     1       4.788   1.577  -0.035  0.00  0.00    -0.277 N 
ATOM      5  H   UNL     1       4.928   0.617  -0.042  0.00  0.00    +0.155 HD
BRANCH   4   6
ATOM      6  C   UNL     1       5.877   2.437  -0.041  0.00  0.00    +0.084 A 
ATOM      7  C   UNL     1       7.227   2.118  -0.050  0.00  0.00    +0.068 A 
ATOM      8  C   UNL     1       8.177   3.218  -0.058  0.00  0.00    -0.023 A 
ATOM      9  C   UNL     1       7.627   4.452  -0.045  0.00  0.00    -0.004 A 
ATOM     10  S   UNL     1       5.880   4.169  -0.031  0.00  0.00    -0.077 S 
ATOM     11  C   UNL     1       8.352   5.763  -0.044  0.00  0.00    +0.043 C 
ATOM     12  C   UNL     1       9.821   5.503   0.320  0.00  0.00    +0.005 C 
ATOM     13  C   UNL     1      10.341   4.339  -0.528  0.00  0.00    +0.005 C 
ATOM     14  C   UNL     1       9.689   3.032  -0.073  0.00  0.00    +0.037 C 
BRANCH   7  15
ATOM     15  C   UNL     1       7.679   0.723  -0.055  0.00  0.00    +0.244 C 
ATOM     16  O   UNL     1       7.861   0.146  -1.111  0.00  0.00    -0.270 OA
ATOM     17  N   UNL     1       7.894   0.080   1.109  0.00  0.00    -0.325 N 
ATOM     18  H   UNL     1       7.749   0.539   1.951  0.00  0.00    +0.145 HD
ATOM     19  H   UNL     1       8.193  -0.843   1.106  0.00  0.00    +0.145 HD
ENDBRANCH   7  15
ENDBRANCH   4   6
ENDBRANCH   1   2
BRANCH   1  20
ATOM     20  O   UNL     1       1.145   1.903   0.001  0.00  0.00    -0.452 OA
BRANCH  20  21
ATOM     21  C   UNL     1      -0.014   1.212   0.009  0.00  0.00    +0.332 C 
ATOM     22  O   UNL     1       0.002  -0.004   0.002  0.00  0.00    -0.246 OA
BRANCH  21  24
ATOM     23  C   UNL     1      -2.412   1.213   0.020  0.00  0.00    +0.015 C 
ATOM     24  C   UNL     1      -1.252   1.904   0.018  0.00  0.00    +0.092 C 
BRANCH  23  27
ATOM     25  C   UNL     1      -6.101   1.896   0.040  0.00  0.00    +0.162 A 
ATOM     26  C   UNL     1      -4.899   1.216   0.026  0.00  0.00    +0.057 A 
ATOM     27  C   UNL     1      -3.695   1.931   0.030  0.00  0.00    -0.021 A 
ATOM     28  C   UNL     1      -3.716   3.330   0.038  0.00  0.00    +0.012 A 
ATOM     29  C   UNL     1      -4.920   4.000   0.047  0.00  0.00    +0.050 A 
ATOM     30  C   UNL     1      -6.114   3.290   0.048  0.00  0.00    +0.168 A 
BRANCH  25  32
ATOM     31  C   UNL     1      -7.185  -0.221   0.033  0.00  0.00    +0.277 C 
ATOM     32  O   UNL     1      -7.272   1.205   0.041  0.00  0.00    -0.491 OA
ENDBRANCH  25  32
BRANCH  30  33
ATOM     33  O   UNL     1      -7.297   3.957   0.055  0.00  0.00    -0.431 OA
BRANCH  33  34
ATOM     34  C   UNL     1      -7.238   5.384   0.062  0.00  0.00    +0.541 C 
ATOM     35  F   UNL     1      -6.555   5.817   1.204  0.00  0.00    -0.166 F 
ATOM     36  F   UNL     1      -6.564   5.829  -1.080  0.00  0.00    -0.166 F 
ENDBRANCH  33  34
ENDBRANCH  30  33
ENDBRANCH  23  27
ENDBRANCH  21  24
ENDBRANCH  20  21
ENDBRANCH   1  20
TORSDOF 10
