REMARK  Name = ZINC53117252
REMARK  6 active torsions:
REMARK  status: ('A' for Active; 'I' for Inactive)
REMARK    1  A    between atoms: C_1  and  C_2
REMARK    2  A    between atoms: C_7  and  C_9
REMARK    3  A    between atoms: C_7  and  N_11
REMARK    4  A    between atoms: C_9  and  O_10
REMARK    5  A    between atoms: N_11  and  C_12
REMARK    6  A    between atoms: C_12  and  C_13
REMARK                            x       y       z     vdW  Elec       q    Type
REMARK                         _______ _______ _______ _____ _____    ______ ____
ROOT
ATOM      1  N   UNL     1       1.388  -2.633   0.100  0.00  0.00    +0.389 N 
ATOM      2  H   UNL     1       1.222  -3.628   0.098  0.00  0.00    -0.084 HD
ATOM      3  H   UNL     1       1.025  -2.230  -0.751  0.00  0.00    -0.084 HD
ENDROOT
BRANCH   1   9
ATOM      4  C   UNL     1       0.398   1.543  -0.155  0.00  0.00    +0.007 C 
ATOM      5  C   UNL     1       0.242   0.022  -0.097  0.00  0.00    -0.015 C 
ATOM      6  C   UNL     1      -1.244  -0.339  -0.128  0.00  0.00    +0.003 C 
ATOM      7  C   UNL     1      -1.401  -1.860  -0.069  0.00  0.00    -0.001 C 
ATOM      8  C   UNL     1      -0.775  -2.388   1.223  0.00  0.00    -0.010 C 
ATOM      9  C   UNL     1       0.712  -2.026   1.255  0.00  0.00    -0.044 C 
ATOM     10  C   UNL     1       0.868  -0.505   1.196  0.00  0.00    -0.007 C 
BRANCH   9  11
ATOM     11  C   UNL     1       1.338  -2.554   2.547  0.00  0.00    +0.143 C 
BRANCH  11  12
ATOM     12  O   UNL     1       1.309  -3.983   2.542  0.00  0.00    -0.396 OA
ATOM     13  H   UNL     1       1.690  -4.387   3.333  0.00  0.00    +0.209 HD
ENDBRANCH  11  12
ENDBRANCH   9  11
ENDBRANCH   1   9
BRANCH   1  14
ATOM     14  C   UNL     1       2.831  -2.376   0.187  0.00  0.00    -0.006 C 
BRANCH  14  15
ATOM     15  C   UNL     1       3.508  -2.882  -1.061  0.00  0.00    +0.091 A 
ATOM     16  C   UNL     1       3.721  -2.171  -2.183  0.00  0.00    +0.059 A 
ATOM     17  C   UNL     1       4.381  -3.030  -3.093  0.00  0.00    +0.070 A 
ATOM     18  C   UNL     1       4.532  -4.215  -2.471  0.00  0.00    +0.184 A 
ATOM     19  O   UNL     1       4.005  -4.117  -1.239  0.00  0.00    -0.454 OA
ATOM     20 BR   UNL     1       5.351  -5.753  -3.206  0.00  0.00    -0.007 Br
ATOM     21 BR   UNL     1       4.944  -2.596  -4.845  0.00  0.00    -0.046 Br
ENDBRANCH  14  15
ENDBRANCH   1  14
TORSDOF 5
