REMARK  Name = ZINC39734062
REMARK  5 active torsions:
REMARK  status: ('A' for Active; 'I' for Inactive)
REMARK    1  A    between atoms: C_1  and  C_2
REMARK    2  A    between atoms: C_7  and  C_20
REMARK    3  A    between atoms: N_9  and  C_10
REMARK    4  A    between atoms: C_15  and  C_16
REMARK    5  A    between atoms: C_25  and  N_28
REMARK                            x       y       z     vdW  Elec       q    Type
REMARK                         _______ _______ _______ _____ _____    ______ ____
ROOT
ATOM      1  C   UNL     1       3.662  -1.550  -0.196  0.00  0.00    +0.270 C 
ATOM      2  O   UNL     1       4.343  -1.509  -1.204  0.00  0.00    -0.268 OA
ATOM      3  N   UNL     1       4.182  -2.034   0.949  0.00  0.00    -0.296 N 
ATOM      4  C   UNL     1       3.406  -2.002   2.196  0.00  0.00    +0.110 C 
ATOM      5  C   UNL     1       4.239  -1.308   3.278  0.00  0.00    +0.044 C 
ATOM      6  C   UNL     1       5.595  -2.007   3.400  0.00  0.00    +0.095 C 
ATOM      7  C   UNL     1       6.346  -1.902   2.070  0.00  0.00    +0.044 C 
ATOM      8  C   UNL     1       5.535  -2.608   0.973  0.00  0.00    +0.110 C 
ENDROOT
BRANCH   6   9
ATOM      9  N   UNL     1       6.381  -1.366   4.457  0.00  0.00    -0.289 N 
ATOM     10  C   UNL     1       6.869  -1.991   5.602  0.00  0.00    +0.070 A 
ATOM     11  C   UNL     1       6.790  -3.288   6.086  0.00  0.00    +0.028 A 
ATOM     12  C   UNL     1       7.392  -3.612   7.285  0.00  0.00    +0.002 A 
ATOM     13  C   UNL     1       8.074  -2.648   8.008  0.00  0.00    +0.002 A 
ATOM     14  C   UNL     1       8.158  -1.353   7.534  0.00  0.00    +0.028 A 
ATOM     15  C   UNL     1       7.557  -1.018   6.330  0.00  0.00    +0.067 A 
ATOM     16  N   UNL     1       7.466   0.167   5.604  0.00  0.00    -0.306 N 
ATOM     17  H   UNL     1       7.850   1.020   5.861  0.00  0.00    +0.170 HD
ATOM     18  C   UNL     1       6.760  -0.075   4.484  0.00  0.00    +0.328 A 
ATOM     19  O   UNL     1       6.501   0.750   3.627  0.00  0.00    -0.247 OA
ENDBRANCH   6   9
BRANCH   1  25
ATOM     20  C   UNL     1      -0.559   0.099  -1.928  0.00  0.00    +0.030 C 
ATOM     21  C   UNL     1      -0.382  -0.084  -0.419  0.00  0.00    +0.103 C 
ATOM     22  C   UNL     1      -0.212  -1.576  -0.104  0.00  0.00    +0.105 C 
ATOM     23  C   UNL     1       1.169  -1.979  -0.592  0.00  0.00    +0.190 C 
ATOM     24  O   UNL     1       1.353  -2.988  -1.241  0.00  0.00    -0.290 OA
ATOM     25  C   UNL     1       2.270  -1.073  -0.229  0.00  0.00    +0.186 C 
ATOM     26  N   UNL     1       1.977   0.179   0.067  0.00  0.00    -0.171 NA
ATOM     27  N   UNL     1       0.796   0.656   0.023  0.00  0.00    -0.220 N 
BRANCH  27  28
ATOM     28  C   UNL     1       0.619   1.980   0.425  0.00  0.00    +0.063 A 
ATOM     29  C   UNL     1      -0.279   2.285   1.442  0.00  0.00    +0.025 A 
ATOM     30  C   UNL     1      -0.451   3.597   1.837  0.00  0.00    +0.002 A 
ATOM     31  C   UNL     1       0.267   4.606   1.222  0.00  0.00    +0.001 A 
ATOM     32  C   UNL     1       1.161   4.306   0.210  0.00  0.00    +0.014 A 
ATOM     33  C   UNL     1       1.343   2.996  -0.186  0.00  0.00    +0.078 A 
BRANCH  33  34
ATOM     34  C   UNL     1       2.322   2.670  -1.285  0.00  0.00    +0.419 C 
ATOM     35  F   UNL     1       2.819   3.857  -1.834  0.00  0.00    -0.166 F 
ATOM     36  F   UNL     1       3.379   1.920  -0.760  0.00  0.00    -0.166 F 
ATOM     37  F   UNL     1       1.675   1.931  -2.281  0.00  0.00    -0.166 F 
ENDBRANCH  33  34
ENDBRANCH  27  28
ENDBRANCH   1  25
TORSDOF 4
