REMARK  Name = ZINC63376251
REMARK  5 active torsions:
REMARK  status: ('A' for Active; 'I' for Inactive)
REMARK    1  A    between atoms: C_7  and  C_10
REMARK    2  A    between atoms: C_10  and  C_11
REMARK    3  A    between atoms: C_11  and  C_13
REMARK    4  A    between atoms: C_11  and  N_21
REMARK    5  A    between atoms: C_22  and  O_33
REMARK                            x       y       z     vdW  Elec       q    Type
REMARK                         _______ _______ _______ _____ _____    ______ ____
ROOT
ATOM      1  C   UNL     1       0.345  -3.599  -1.470  0.00  0.00    +0.170 C 
ENDROOT
BRANCH   1   2
ATOM      2  N   UNL     1       1.423  -4.122  -2.313  0.00  0.00    -0.244 N 
ATOM      3  C   UNL     1       1.786  -3.410  -3.539  0.00  0.00    +0.300 C 
ATOM      4  N   UNL     1       2.236  -4.358  -4.565  0.00  0.00    -0.303 N 
ATOM      5  C   UNL     1       3.092  -5.388  -4.194  0.00  0.00    +0.042 A 
ATOM      6  C   UNL     1       4.000  -5.938  -5.084  0.00  0.00    +0.024 A 
ATOM      7  C   UNL     1       4.824  -6.968  -4.673  0.00  0.00    +0.002 A 
ATOM      8  C   UNL     1       4.749  -7.455  -3.378  0.00  0.00    +0.001 A 
ATOM      9  C   UNL     1       3.853  -6.917  -2.477  0.00  0.00    +0.015 A 
ATOM     10  C   UNL     1       3.020  -5.874  -2.877  0.00  0.00    +0.058 A 
ATOM     11  C   UNL     1       2.068  -5.246  -1.943  0.00  0.00    +0.252 C 
ATOM     12  O   UNL     1       1.863  -5.739  -0.850  0.00  0.00    -0.270 OA
ATOM     13  H   UNL     1       1.940  -4.268  -5.484  0.00  0.00    +0.150 HD
BRANCH   3  14
ATOM     14  O   UNL     1       2.840  -2.488  -3.257  0.00  0.00    -0.359 OA
ATOM     15  H   UNL     1       3.134  -1.979  -4.025  0.00  0.00    +0.213 HD
ENDBRANCH   3  14
ENDBRANCH   1   2
BRANCH   1  16
ATOM     16  C   UNL     1      -0.787  -4.594  -1.429  0.00  0.00    +0.237 C 
ATOM     17  O   UNL     1      -0.606  -5.734  -1.802  0.00  0.00    -0.274 OA
ATOM     18  N   UNL     1      -1.999  -4.217  -0.978  0.00  0.00    -0.300 N 
ATOM     19  C   UNL     1      -2.266  -2.814  -0.632  0.00  0.00    +0.108 C 
ATOM     20  C   UNL     1      -3.508  -2.345  -1.398  0.00  0.00    +0.019 C 
ATOM     21  C   UNL     1      -4.671  -3.297  -1.108  0.00  0.00    +0.003 C 
ATOM     22  C   UNL     1      -4.311  -4.705  -1.585  0.00  0.00    +0.019 C 
ATOM     23  C   UNL     1      -3.081  -5.200  -0.828  0.00  0.00    +0.108 C 
ENDBRANCH   1  16
BRANCH   1  24
ATOM     24  C   UNL     1       0.872  -3.368  -0.053  0.00  0.00    +0.065 C 
BRANCH  24  31
ATOM     25  C   UNL     1       0.880   1.193   0.456  0.00  0.00    +0.001 A 
ATOM     26  C   UNL     1       2.153   1.768   0.346  0.00  0.00    +0.002 A 
ATOM     27  C   UNL     1       3.265   1.040   0.112  0.00  0.00    +0.026 A 
ATOM     28  C   UNL     1       3.182  -0.373  -0.034  0.00  0.00    +0.043 A 
ATOM     29  N   UNL     1       4.098  -1.282  -0.262  0.00  0.00    -0.380 N 
ATOM     30  C   UNL     1       3.448  -2.596  -0.320  0.00  0.00    +0.144 C 
ATOM     31  C   UNL     1       1.975  -2.341  -0.089  0.00  0.00    -0.039 C 
ATOM     32  C   UNL     1       1.848  -1.005   0.078  0.00  0.00    -0.001 A 
ATOM     33  C   UNL     1       0.690  -0.141   0.334  0.00  0.00    +0.010 A 
ATOM     34  H   UNL     1       5.046  -1.115  -0.374  0.00  0.00    +0.160 HD
ENDBRANCH  24  31
ENDBRANCH   1  24
TORSDOF 5
