REMARK  Name = ZINC16804962
REMARK  4 active torsions:
REMARK  status: ('A' for Active; 'I' for Inactive)
REMARK    1  A    between atoms: C_6  and  N_7
REMARK    2  A    between atoms: C_8  and  C_10
REMARK    3  A    between atoms: C_10  and  C_11
REMARK    4  A    between atoms: N_17  and  C_18
REMARK                            x       y       z     vdW  Elec       q    Type
REMARK                         _______ _______ _______ _____ _____    ______ ____
ROOT
ATOM      1  C   UNL     1      -2.181  -4.325  -0.316  0.00  0.00    +0.149 C 
ATOM      2  C   UNL     1      -3.463  -5.137  -0.396  0.00  0.00    +0.232 C 
ATOM      3  O   UNL     1      -4.275  -5.150   0.505  0.00  0.00    -0.274 OA
ATOM      4  N   UNL     1      -3.637  -5.830  -1.508  0.00  0.00    -0.264 N 
ATOM      5  C   UNL     1      -2.721  -5.822  -2.537  0.00  0.00    +0.164 C 
ATOM      6  N   UNL     1      -2.781  -6.462  -3.684  0.00  0.00    -0.200 NA
ATOM      7  S   UNL     1      -1.429  -4.735  -1.946  0.00  0.00    -0.077 S 
ATOM      8  H   UNL     1      -4.441  -6.364  -1.604  0.00  0.00    +0.157 HD
ENDROOT
BRANCH   6   9
ATOM      9  C   UNL     1      -3.850  -7.253  -3.965  0.00  0.00    +0.195 A 
ATOM     10  N   UNL     1      -4.928  -7.507  -3.231  0.00  0.00    -0.230 NA
ATOM     11  C   UNL     1      -5.875  -8.309  -3.669  0.00  0.00    +0.121 A 
ATOM     12  C   UNL     1      -5.759  -8.891  -4.888  0.00  0.00    +0.068 A 
ATOM     13  S   UNL     1      -4.188  -8.227  -5.426  0.00  0.00    -0.056 S 
ENDBRANCH   6   9
BRANCH   1  14
ATOM     14  C   UNL     1      -2.478  -2.828  -0.204  0.00  0.00    +0.120 C 
BRANCH  14  16
ATOM     15  N   UNL     1      -1.200  -0.722   0.010  0.00  0.00    -0.285 N 
ATOM     16  C   UNL     1      -1.183  -2.065  -0.099  0.00  0.00    +0.219 C 
ATOM     17  O   UNL     1      -0.126  -2.659  -0.113  0.00  0.00    -0.275 OA
ATOM     18  H   UNL     1      -2.044  -0.252   0.098  0.00  0.00    +0.155 HD
BRANCH  15  24
ATOM     19  C   UNL     1       1.072  -0.453  -0.766  0.00  0.00    +0.024 A 
ATOM     20  C   UNL     1       2.256   0.258  -0.778  0.00  0.00    +0.017 A 
ATOM     21  C   UNL     1       2.377   1.416  -0.032  0.00  0.00    +0.018 A 
ATOM     22  C   UNL     1       1.312   1.866   0.729  0.00  0.00    +0.017 A 
ATOM     23  C   UNL     1       0.126   1.159   0.745  0.00  0.00    +0.024 A 
ATOM     24  C   UNL     1       0.002  -0.004  -0.004  0.00  0.00    +0.033 A 
ATOM     25 BR   UNL     1       4.000   2.387  -0.051  0.00  0.00    -0.050 Br
ENDBRANCH  15  24
ENDBRANCH  14  16
ENDBRANCH   1  14
TORSDOF 4
