REMARK  Name = ZINC25074080
REMARK  9 active torsions:
REMARK  status: ('A' for Active; 'I' for Inactive)
REMARK    1  A    between atoms: C_1  and  C_2
REMARK    2  A    between atoms: C_2  and  C_4
REMARK    3  A    between atoms: C_4  and  O_41
REMARK    4  A    between atoms: C_9  and  C_40
REMARK    5  A    between atoms: N_21  and  O_22
REMARK    6  A    between atoms: O_22  and  C_23
REMARK    7  A    between atoms: C_23  and  C_24
REMARK    8  A    between atoms: N_26  and  C_27
REMARK    9  A    between atoms: C_38  and  C_39
REMARK                            x       y       z     vdW  Elec       q    Type
REMARK                         _______ _______ _______ _____ _____    ______ ____
ROOT
ATOM      1  C   UNL     1     -11.209 -10.450  -2.888  0.00  0.00    +0.129 C 
ATOM      2  C   UNL     1     -12.086  -9.629  -3.868  0.00  0.00    +0.043 C 
ATOM      3  C   UNL     1     -11.270  -8.356  -4.224  0.00  0.00    +0.008 C 
ATOM      4  C   UNL     1      -9.831  -8.791  -3.901  0.00  0.00    +0.002 C 
ATOM      5  C   UNL     1     -10.023  -9.523  -2.557  0.00  0.00    +0.007 C 
ATOM      6  C   UNL     1      -8.763 -10.229  -2.119  0.00  0.00    +0.010 C 
ATOM      7  C   UNL     1      -7.532  -9.571  -2.779  0.00  0.00    +0.005 C 
ATOM      8  C   UNL     1      -7.748  -8.065  -2.775  0.00  0.00    +0.002 C 
ATOM      9  C   UNL     1      -8.787  -7.721  -3.852  0.00  0.00    -0.003 C 
ATOM     10  C   UNL     1      -9.269  -6.292  -3.675  0.00  0.00    +0.008 C 
ATOM     11  C   UNL     1      -8.060  -5.365  -3.918  0.00  0.00    +0.031 C 
ATOM     12  C   UNL     1      -6.954  -5.777  -2.961  0.00  0.00    -0.062 C 
ATOM     13  C   UNL     1      -6.450  -4.843  -2.166  0.00  0.00    +0.026 C 
ATOM     14  C   UNL     1      -5.400  -5.217  -1.198  0.00  0.00    +0.080 C 
ATOM     15  N   UNL     1      -4.500  -4.385  -0.789  0.00  0.00    -0.089 NA
ATOM     16  C   UNL     1      -5.459  -6.656  -0.716  0.00  0.00    +0.059 C 
ATOM     17  C   UNL     1      -5.424  -7.546  -1.955  0.00  0.00    +0.017 C 
ATOM     18  C   UNL     1      -6.504  -7.214  -2.959  0.00  0.00    -0.007 C 
ATOM     19  C   UNL     1      -5.896  -7.507  -4.330  0.00  0.00    +0.016 C 
ATOM     20  C   UNL     1     -10.503  -8.569  -1.457  0.00  0.00    +0.015 C 
ENDROOT
BRANCH   1  22
ATOM     21  C   UNL     1     -11.597 -11.961  -0.799  0.00  0.00    +0.089 C 
ATOM     22  C   UNL     1     -11.978 -10.768  -1.636  0.00  0.00    +0.162 C 
ATOM     23  O   UNL     1     -12.902 -10.066  -1.301  0.00  0.00    -0.295 OA
ENDBRANCH   1  22
BRANCH   1  24
ATOM     24  O   UNL     1     -10.748 -11.644  -3.518  0.00  0.00    -0.381 OA
ATOM     25  H   UNL     1     -10.165 -11.584  -4.449  0.00  0.00    +0.211 HD
ENDBRANCH   1  24
BRANCH  15  26
ATOM     26  O   UNL     1      -4.495  -3.053  -1.271  0.00  0.00    -0.384 OA
BRANCH  26  27
ATOM     27  C   UNL     1      -3.446  -2.245  -0.736  0.00  0.00    +0.358 C 
BRANCH  27  28
ATOM     28  C   UNL     1      -3.537  -0.856  -1.314  0.00  0.00    +0.254 C 
ATOM     29  O   UNL     1      -4.414  -0.586  -2.107  0.00  0.00    -0.272 OA
ATOM     30  N   UNL     1      -2.644   0.085  -0.950  0.00  0.00    -0.301 N 
ATOM     31  H   UNL     1      -1.848  -0.160  -0.231  0.00  0.00    +0.150 HD
BRANCH  30  32
ATOM     32  C   UNL     1      -2.732   1.435  -1.512  0.00  0.00    +0.159 C 
ATOM     33  C   UNL     1      -1.409   2.172  -1.291  0.00  0.00    +0.032 C 
ATOM     34  C   UNL     1      -0.786   1.772   0.034  0.00  0.00    +0.004 C 
ATOM     35  C   UNL     1      -1.583   2.223   1.244  0.00  0.00    +0.019 C 
ATOM     36  C   UNL     1      -2.921   1.492   1.322  0.00  0.00    +0.104 C 
ATOM     37  N   UNL     1      -3.907   2.226   0.512  0.00  0.00    -0.314 N 
ATOM     38  C   UNL     1      -3.834   2.208  -0.820  0.00  0.00    +0.233 C 
ATOM     39  O   UNL     1      -4.654   2.813  -1.478  0.00  0.00    -0.274 OA
ATOM     40  H   UNL     1      -4.709   2.795   1.004  0.00  0.00    +0.149 HD
ENDBRANCH  30  32
ENDBRANCH  27  28
ENDBRANCH  26  27
ENDBRANCH  15  26
TORSDOF 6
