REMARK  Name = ZINC18173285
REMARK  5 active torsions:
REMARK  status: ('A' for Active; 'I' for Inactive)
REMARK    1  A    between atoms: C_6  and  N_11
REMARK    2  A    between atoms: N_11  and  C_12
REMARK    3  A    between atoms: C_12  and  C_13
REMARK    4  A    between atoms: N_15  and  N_16
REMARK    5  A    between atoms: C_17  and  C_18
REMARK                            x       y       z     vdW  Elec       q    Type
REMARK                         _______ _______ _______ _____ _____    ______ ____
ROOT
ATOM      1  C   UNL     1       2.326   8.087   0.021  0.00  0.00    +0.199 C 
ENDROOT
BRANCH   1   2
ATOM      2  C   UNL     1       2.036   9.566   0.032  0.00  0.00    +0.249 C 
ATOM      3  O   UNL     1       0.888   9.959   0.045  0.00  0.00    -0.272 OA
ATOM      4  N   UNL     1       3.052  10.452   0.026  0.00  0.00    -0.206 N 
ATOM      5  H   UNL     1       3.970  10.137   0.016  0.00  0.00    +0.177 HD
BRANCH   4   6
ATOM      6  N   UNL     1       2.783  11.826   0.036  0.00  0.00    -0.187 NA
ATOM      7  C   UNL     1       3.763  12.681   0.030  0.00  0.00    +0.145 C 
BRANCH   7   8
ATOM      8  C   UNL     1       3.481  14.120   0.040  0.00  0.00    +0.033 A 
ATOM      9  C   UNL     1       4.368  15.183   0.043  0.00  0.00    +0.032 A 
ATOM     10  C   UNL     1       3.857  16.461   0.049  0.00  0.00    +0.025 A 
ATOM     11  C   UNL     1       2.509  16.638   0.063  0.00  0.00    +0.061 A 
ATOM     12  S   UNL     1       1.905  14.958   0.060  0.00  0.00    -0.095 S 
ATOM     13 BR   UNL     1       5.017  17.954   0.045  0.00  0.00    -0.050 Br
ENDBRANCH   7   8
ENDBRANCH   4   6
ENDBRANCH   1   2
BRANCH   1  14
ATOM     14  N   UNL     1       1.064   7.342   0.030  0.00  0.00    -0.335 N 
ATOM     15  H   UNL     1       0.220   7.819   0.040  0.00  0.00    +0.147 HD
BRANCH  14  21
ATOM     16  C   UNL     1      -0.013   1.076   0.008  0.00  0.00    +0.001 A 
ATOM     17  C   UNL     1      -1.235   1.746   0.018  0.00  0.00    +0.001 A 
ATOM     18  C   UNL     1      -1.288   3.105   0.031  0.00  0.00    +0.008 A 
ATOM     19  C   UNL     1      -0.095   3.848   0.024  0.00  0.00    -0.016 A 
ATOM     20  C   UNL     1      -0.112   5.253   0.031  0.00  0.00    +0.031 A 
ATOM     21  C   UNL     1       1.078   5.946   0.023  0.00  0.00    +0.028 A 
ATOM     22  C   UNL     1       2.301   5.265   0.008  0.00  0.00    +0.023 A 
ATOM     23  C   UNL     1       2.344   3.907   0.000  0.00  0.00    +0.010 A 
ATOM     24  C   UNL     1       1.149   3.167   0.008  0.00  0.00    -0.018 A 
ATOM     25  C   UNL     1       1.163   1.762   0.000  0.00  0.00    +0.008 A 
ENDBRANCH  14  21
ENDBRANCH   1  14
TORSDOF 5
