REMARK  Name = ZINC14743324
REMARK  6 active torsions:
REMARK  status: ('A' for Active; 'I' for Inactive)
REMARK    1  A    between atoms: C_4  and  C_6
REMARK    2  A    between atoms: C_6  and  N_7
REMARK    3  A    between atoms: C_8  and  C_10
REMARK    4  A    between atoms: N_13  and  C_15
REMARK    5  A    between atoms: C_15  and  C_16
REMARK    6  A    between atoms: C_23  and  C_25
REMARK                            x       y       z     vdW  Elec       q    Type
REMARK                         _______ _______ _______ _____ _____    ______ ____
ROOT
ATOM      1  C   UNL     1       1.953   1.432   4.421  0.00  0.00    +0.152 A 
ATOM      2  C   UNL     1       1.562   1.827   3.132  0.00  0.00    +0.023 A 
ATOM      3  C   UNL     1       1.096   3.094   3.251  0.00  0.00    +0.046 A 
ATOM      4  N   UNL     1       1.210   3.436   4.546  0.00  0.00    -0.267 N 
ATOM      5  N   UNL     1       1.710   2.458   5.220  0.00  0.00    -0.166 NA
ATOM      6  C   UNL     1       0.558   3.912   2.106  0.00  0.00    +0.074 C 
ATOM      7  C   UNL     1       1.037   3.287   0.784  0.00  0.00    +0.114 C 
ATOM      8  N   UNL     1       0.844   1.830   0.844  0.00  0.00    -0.293 N 
ATOM      9  C   UNL     1       1.619   1.061   1.837  0.00  0.00    +0.147 C 
ATOM     10  C   UNL     1      -0.014   1.212   0.009  0.00  0.00    +0.248 C 
ATOM     11  O   UNL     1      -0.719   1.869  -0.734  0.00  0.00    -0.270 OA
ENDROOT
BRANCH  10  12
ATOM     12  C   UNL     1      -0.104  -0.257   0.000  0.00  0.00    +0.047 A 
ATOM     13  C   UNL     1       1.029  -1.039   0.051  0.00  0.00    +0.058 A 
ATOM     14  S   UNL     1       0.399  -2.653   0.020  0.00  0.00    -0.101 S 
ATOM     15  C   UNL     1      -1.330  -2.280  -0.068  0.00  0.00    -0.006 A 
ATOM     16  C   UNL     1      -1.388  -0.928  -0.068  0.00  0.00    -0.025 A 
ATOM     17  C   UNL     1      -2.725  -0.202  -0.137  0.00  0.00    +0.037 C 
ATOM     18  C   UNL     1      -3.788  -1.174  -0.653  0.00  0.00    +0.005 C 
ATOM     19  C   UNL     1      -3.769  -2.457   0.183  0.00  0.00    +0.005 C 
ATOM     20  C   UNL     1      -2.482  -3.234  -0.130  0.00  0.00    +0.043 C 
ENDBRANCH  10  12
BRANCH   1  22
ATOM     21  N   UNL     1       2.854  -0.108   6.096  0.00  0.00    -0.304 N 
ATOM     22  C   UNL     1       2.525   0.127   4.810  0.00  0.00    +0.265 C 
ATOM     23  O   UNL     1       2.698  -0.735   3.970  0.00  0.00    -0.268 OA
ATOM     24  H   UNL     1       2.716   0.579   6.765  0.00  0.00    +0.149 HD
BRANCH  21  25
ATOM     25  C   UNL     1       3.421  -1.403   6.481  0.00  0.00    +0.167 C 
BRANCH  25  29
ATOM     26  C   UNL     1       3.309  -1.716  10.202  0.00  0.00    +0.119 A 
ATOM     27  C   UNL     1       4.565  -1.271  10.461  0.00  0.00    +0.066 A 
ATOM     28  S   UNL     1       5.143  -0.937   8.803  0.00  0.00    -0.079 S 
ATOM     29  C   UNL     1       3.699  -1.409   7.962  0.00  0.00    +0.095 A 
ATOM     30  N   UNL     1       2.909  -1.766   8.948  0.00  0.00    -0.251 NA
ENDBRANCH  25  29
ENDBRANCH  21  25
ENDBRANCH   1  22
BRANCH   4  31
ATOM     31  C   UNL     1       0.821   4.731   5.110  0.00  0.00    +0.147 C 
BRANCH  31  32
ATOM     32  C   UNL     1      -0.641   4.674   5.556  0.00  0.00    +0.010 C 
ATOM     33  C   UNL     1      -1.634   5.596   4.844  0.00  0.00    +0.005 C 
ATOM     34  C   UNL     1      -1.206   5.897   6.282  0.00  0.00    +0.005 C 
ENDBRANCH  31  32
ENDBRANCH   4  31
TORSDOF 6
