REMARK  Name = ZINC09019044
REMARK  10 active torsions:
REMARK  status: ('A' for Active; 'I' for Inactive)
REMARK    1  A    between atoms: C_1  and  C_2
REMARK    2  A    between atoms: C_5  and  S_8
REMARK    3  A    between atoms: S_8  and  N_11
REMARK    4  A    between atoms: C_16  and  C_17
REMARK    5  A    between atoms: C_16  and  N_60
REMARK    6  A    between atoms: N_19  and  N_20
REMARK    7  A    between atoms: C_21  and  C_22
REMARK    8  A    between atoms: C_26  and  C_29
REMARK    9  A    between atoms: C_27  and  O_28
REMARK   10  A    between atoms: C_29  and  C_30
REMARK                            x       y       z     vdW  Elec       q    Type
REMARK                         _______ _______ _______ _____ _____    ______ ____
ROOT
ATOM      1  C   UNL     1      -2.910   5.528  -1.731  0.00  0.00    +0.020 C 
ENDROOT
BRANCH   1   7
ATOM      2  N   UNL     1      -2.123   4.169   2.164  0.00  0.00    -0.180 NA
ATOM      3  C   UNL     1      -1.037   4.047   1.179  0.00  0.00    +0.091 C 
ATOM      4  C   UNL     1      -1.641   4.117  -0.228  0.00  0.00    -0.061 C 
ATOM      5  C   UNL     1      -3.591   5.309   0.582  0.00  0.00    -0.061 C 
ATOM      6  C   UNL     1      -3.068   5.288   2.022  0.00  0.00    +0.091 C 
ATOM      7  N   UNL     1      -2.437   5.358  -0.342  0.00  0.00    +0.387 N 
ATOM      8  H   UNL     1      -1.844   6.158  -0.091  0.00  0.00    -0.081 HD
BRANCH   2   9
ATOM      9  S   UNL     1      -2.281   3.072   3.395  0.00  0.00    +0.061 S 
ATOM     10  O   UNL     1      -3.644   3.105   3.796  0.00  0.00    -0.153 OA
ATOM     11  O   UNL     1      -1.643   1.879   2.960  0.00  0.00    -0.153 OA
BRANCH   9  16
ATOM     12  C   UNL     1       0.939   5.147   8.057  0.00  0.00    +0.044 C 
ATOM     13  C   UNL     1       0.135   4.628   6.893  0.00  0.00    -0.050 A 
ATOM     14  C   UNL     1      -1.195   4.981   6.760  0.00  0.00    +0.005 A 
ATOM     15  C   UNL     1      -1.933   4.505   5.692  0.00  0.00    +0.029 A 
ATOM     16  C   UNL     1      -1.341   3.678   4.756  0.00  0.00    +0.105 A 
ATOM     17  C   UNL     1      -0.012   3.322   4.891  0.00  0.00    +0.029 A 
ATOM     18  C   UNL     1       0.727   3.801   5.957  0.00  0.00    +0.005 A 
ENDBRANCH   9  16
ENDBRANCH   2   9
ENDBRANCH   1   7
BRANCH   1  19
ATOM     19  C   UNL     1      -3.803   4.381  -2.131  0.00  0.00    +0.216 C 
ATOM     20  O   UNL     1      -4.092   3.526  -1.320  0.00  0.00    -0.276 OA
ATOM     21  N   UNL     1      -4.279   4.305  -3.390  0.00  0.00    -0.209 N 
ATOM     22  H   UNL     1      -4.047   4.988  -4.038  0.00  0.00    +0.177 HD
BRANCH  21  23
ATOM     23  N   UNL     1      -5.108   3.239  -3.762  0.00  0.00    -0.188 NA
ATOM     24  C   UNL     1      -5.473   3.101  -5.000  0.00  0.00    +0.142 C 
BRANCH  24  25
ATOM     25  C   UNL     1      -4.846   3.926  -6.048  0.00  0.00    +0.036 A 
ATOM     26  C   UNL     1      -3.546   4.409  -5.879  0.00  0.00    +0.013 A 
ATOM     27  C   UNL     1      -2.965   5.179  -6.864  0.00  0.00    +0.001 A 
ATOM     28  C   UNL     1      -3.664   5.476  -8.021  0.00  0.00    +0.007 A 
ATOM     29  C   UNL     1      -4.951   5.005  -8.201  0.00  0.00    -0.002 A 
ATOM     30  C   UNL     1      -5.548   4.225  -7.224  0.00  0.00    +0.129 A 
BRANCH  30  31
ATOM     31  O   UNL     1      -6.810   3.756  -7.402  0.00  0.00    -0.506 OA
ATOM     32  H   UNL     1      -7.501   4.381  -7.145  0.00  0.00    +0.292 HD
ENDBRANCH  30  31
BRANCH  29  33
ATOM     33  C   UNL     1      -5.703   5.335  -9.464  0.00  0.00    +0.065 C 
BRANCH  33  34
ATOM     34  C   UNL     1      -6.566   6.549  -9.233  0.00  0.00    -0.030 C 
ATOM     35  C   UNL     1      -6.454   7.590 -10.019  0.00  0.00    +0.004 C 
ENDBRANCH  33  34
ENDBRANCH  29  33
ENDBRANCH  24  25
ENDBRANCH  21  23
ENDBRANCH   1  19
TORSDOF 9
