REMARK  Name = ZINC39884081
REMARK  5 active torsions:
REMARK  status: ('A' for Active; 'I' for Inactive)
REMARK    1  A    between atoms: C_1  and  C_2
REMARK    2  A    between atoms: C_5  and  N_8
REMARK    3  A    between atoms: C_9  and  C_11
REMARK    4  A    between atoms: C_11  and  N_12
REMARK    5  A    between atoms: C_18  and  C_33
REMARK                            x       y       z     vdW  Elec       q    Type
REMARK                         _______ _______ _______ _____ _____    ______ ____
ROOT
ATOM      1  N   UNL     1       0.508  -6.894   2.410  0.00  0.00    -0.288 N 
ATOM      2  C   UNL     1       1.726  -6.993   3.043  0.00  0.00    +0.091 A 
ATOM      3  C   UNL     1       1.671  -7.444   4.310  0.00  0.00    +0.033 A 
ATOM      4  S   UNL     1      -0.062  -7.732   4.566  0.00  0.00    -0.030 S 
ATOM      5  C   UNL     1      -0.619  -7.240   3.058  0.00  0.00    +0.292 A 
ATOM      6  O   UNL     1      -1.767  -7.206   2.650  0.00  0.00    -0.259 OA
ATOM      7  C   UNL     1       2.782  -7.639   5.277  0.00  0.00    +0.078 C 
ATOM      8  C   UNL     1       4.148  -7.537   4.713  0.00  0.00    +0.111 C 
ATOM      9  C   UNL     1       4.427  -6.439   3.679  0.00  0.00    +0.152 C 
ATOM     10  S   UNL     1       3.273  -6.587   2.277  0.00  0.00    -0.093 S 
ATOM     11  C   UNL     1       5.777  -6.957   3.152  0.00  0.00    +0.244 C 
ATOM     12  O   UNL     1       6.663  -6.290   2.674  0.00  0.00    -0.273 OA
ATOM     13  N   UNL     1       5.786  -8.294   3.324  0.00  0.00    -0.162 N 
ATOM     14  C   UNL     1       4.780  -8.748   4.101  0.00  0.00    +0.235 C 
ATOM     15  O   UNL     1       4.462  -9.901   4.273  0.00  0.00    -0.274 OA
ATOM     16  C   UNL     1       6.707  -9.102   2.762  0.00  0.00    +0.313 C 
ATOM     17  O   UNL     1       6.662 -10.301   2.954  0.00  0.00    -0.252 OA
ATOM     18  N   UNL     1       7.678  -8.579   1.986  0.00  0.00    -0.313 N 
ATOM     19  H   UNL     1       7.714  -7.622   1.833  0.00  0.00    +0.147 HD
ATOM     20  H   UNL     1       8.341  -9.161   1.582  0.00  0.00    +0.147 HD
ENDROOT
BRANCH   7  21
ATOM     21  C   UNL     1       2.632  -9.003   5.899  0.00  0.00    -0.001 A 
ATOM     22  C   UNL     1       2.953  -9.410   7.152  0.00  0.00    +0.012 A 
ATOM     23  C   UNL     1       2.725 -10.725   7.509  0.00  0.00    +0.008 A 
ATOM     24  C   UNL     1       2.187 -11.570   6.595  0.00  0.00    +0.045 A 
ATOM     25  S   UNL     1       1.980 -10.501   5.180  0.00  0.00    -0.101 S 
ENDBRANCH   7  21
BRANCH   1  26
ATOM     26  C   UNL     1       0.438  -6.405   1.030  0.00  0.00    +0.222 C 
BRANCH  26  28
ATOM     27  N   UNL     1       0.194  -4.234  -0.129  0.00  0.00    -0.284 N 
ATOM     28  C   UNL     1       0.280  -4.906   1.036  0.00  0.00    +0.237 C 
ATOM     29  O   UNL     1       0.230  -4.306   2.088  0.00  0.00    -0.274 OA
ATOM     30  H   UNL     1       0.158  -4.719  -0.968  0.00  0.00    +0.155 HD
BRANCH  27  35
ATOM     31  C   UNL     1       0.038   1.437  -0.126  0.00  0.00    +0.044 C 
ATOM     32  C   UNL     1       0.080  -0.069  -0.127  0.00  0.00    -0.050 A 
ATOM     33  C   UNL     1       0.808  -0.740   0.838  0.00  0.00    +0.005 A 
ATOM     34  C   UNL     1       0.848  -2.121   0.840  0.00  0.00    +0.023 A 
ATOM     35  C   UNL     1       0.155  -2.835  -0.128  0.00  0.00    +0.033 A 
ATOM     36  C   UNL     1      -0.576  -2.159  -1.095  0.00  0.00    +0.023 A 
ATOM     37  C   UNL     1      -0.616  -0.778  -1.089  0.00  0.00    +0.005 A 
ENDBRANCH  27  35
ENDBRANCH  26  28
ENDBRANCH   1  26
TORSDOF 4
