REMARK  Name = ZINC13064849
REMARK  10 active torsions:
REMARK  status: ('A' for Active; 'I' for Inactive)
REMARK    1  A    between atoms: C_1  and  C_2
REMARK    2  A    between atoms: C_2  and  C_3
REMARK    3  A    between atoms: C_3  and  C_5
REMARK    4  A    between atoms: C_3  and  N_72
REMARK    5  A    between atoms: N_9  and  C_10
REMARK    6  A    between atoms: C_16  and  C_17
REMARK    7  A    between atoms: C_16  and  N_72
REMARK    8  A    between atoms: C_20  and  C_30
REMARK    9  A    between atoms: C_22  and  C_29
REMARK   10  A    between atoms: C_31  and  N_72
REMARK                            x       y       z     vdW  Elec       q    Type
REMARK                         _______ _______ _______ _____ _____    ______ ____
ROOT
ATOM      1  N   UNL     1      -0.995  -0.438   0.938  0.00  0.00    +0.391 N 
ATOM      2  H   UNL     1      -0.952   0.217   1.728  0.00  0.00    -0.080 HD
ENDROOT
BRANCH   1   3
ATOM      3  C   UNL     1      -2.164  -0.101   0.098  0.00  0.00    -0.067 C 
ATOM      4  C   UNL     1      -1.903   1.224  -0.648  0.00  0.00    -0.015 C 
ATOM      5  C   UNL     1      -3.274   1.945  -0.632  0.00  0.00    -0.002 C 
ATOM      6  C   UNL     1      -3.828   1.597   0.772  0.00  0.00    -0.002 C 
ATOM      7  C   UNL     1      -3.387   0.136   1.001  0.00  0.00    -0.015 C 
ENDBRANCH   1   3
BRANCH   1   8
ATOM      8  C   UNL     1       0.247  -0.317   0.147  0.00  0.00    +0.003 C 
BRANCH   8   9
ATOM      9  C   UNL     1       0.256  -1.318  -0.980  0.00  0.00    +0.138 A 
ATOM     10  N   UNL     1      -0.154  -2.561  -0.925  0.00  0.00    -0.115 NA
ATOM     11  N   UNL     1       0.013  -3.087  -2.089  0.00  0.00    -0.023 NA
ATOM     12  N   UNL     1       0.526  -2.213  -2.883  0.00  0.00    -0.044 NA
ATOM     13  N   UNL     1       0.691  -1.109  -2.236  0.00  0.00    -0.228 N 
BRANCH  13  14
ATOM     14  C   UNL     1       1.246   0.137  -2.770  0.00  0.00    +0.111 C 
ATOM     15  C   UNL     1       0.382   0.624  -3.934  0.00  0.00    +0.027 C 
ATOM     16  C   UNL     1       0.962   1.925  -4.491  0.00  0.00    +0.002 C 
ATOM     17  C   UNL     1       2.389   1.678  -4.984  0.00  0.00    +0.000 C 
ATOM     18  C   UNL     1       3.253   1.191  -3.820  0.00  0.00    +0.002 C 
ATOM     19  C   UNL     1       2.673  -0.111  -3.263  0.00  0.00    +0.027 C 
ENDBRANCH  13  14
ENDBRANCH   8   9
BRANCH   8  21
ATOM     20  C   UNL     1       1.495   0.506   2.149  0.00  0.00    +0.002 C 
ATOM     21  C   UNL     1       1.445  -0.571   1.064  0.00  0.00    -0.011 C 
ENDBRANCH   8  21
ENDBRANCH   1   8
BRANCH   1  22
ATOM     22  C   UNL     1      -1.129  -1.813   1.462  0.00  0.00    -0.036 C 
BRANCH  22  23
ATOM     23  C   UNL     1      -2.145  -1.810   2.575  0.00  0.00    +0.001 A 
ATOM     24  C   UNL     1      -3.379  -2.330   2.365  0.00  0.00    +0.017 A 
ATOM     25  C   UNL     1      -4.341  -2.316   3.469  0.00  0.00    +0.002 A 
ATOM     26  C   UNL     1      -5.628  -2.843   3.314  0.00  0.00    -0.041 A 
ATOM     27  C   UNL     1      -6.503  -2.810   4.362  0.00  0.00    +0.007 A 
ATOM     28  C   UNL     1      -6.128  -2.258   5.579  0.00  0.00    -0.048 A 
ATOM     29  C   UNL     1      -4.866  -1.734   5.754  0.00  0.00    +0.029 A 
ATOM     30  C   UNL     1      -3.957  -1.756   4.701  0.00  0.00    +0.050 A 
ATOM     31  N   UNL     1      -2.688  -1.238   4.849  0.00  0.00    -0.322 N 
ATOM     32  H   UNL     1      -2.424  -0.853   5.699  0.00  0.00    +0.169 HD
ATOM     33  C   UNL     1      -1.809  -1.261   3.831  0.00  0.00    +0.251 A 
ATOM     34  O   UNL     1      -0.696  -0.794   3.997  0.00  0.00    -0.268 OA
ATOM     35  C   UNL     1      -7.111  -2.234   6.721  0.00  0.00    +0.044 C 
ATOM     36  C   UNL     1      -6.046  -3.443   1.996  0.00  0.00    +0.044 C 
ENDBRANCH  22  23
ENDBRANCH   1  22
TORSDOF 7
