REMARK  Name = ZINC18063431
REMARK  3 active torsions:
REMARK  status: ('A' for Active; 'I' for Inactive)
REMARK    1  A    between atoms: C_4  and  N_7
REMARK    2  A    between atoms: C_9  and  C_12
REMARK    3  A    between atoms: C_13  and  C_14
REMARK                            x       y       z     vdW  Elec       q    Type
REMARK                         _______ _______ _______ _____ _____    ______ ____
ROOT
ATOM      1  C   UNL     1      -1.213   2.267   0.020  0.00  0.00    +0.034 C 
ATOM      2  C   UNL     1      -2.440   1.714  -0.078  0.00  0.00    +0.084 C 
ATOM      3 CL   UNL     1      -2.616  -0.013  -0.086  0.00  0.00    -0.080 Cl
ENDROOT
BRANCH   2   4
ATOM      4  C   UNL     1      -3.622   2.571  -0.178  0.00  0.00    +0.153 A 
ATOM      5  N   UNL     1      -4.856   1.977  -0.276  0.00  0.00    -0.306 N 
ATOM      6  H   UNL     1      -4.926   1.010  -0.279  0.00  0.00    +0.170 HD
ATOM      7  C   UNL     1      -5.974   2.734  -0.370  0.00  0.00    +0.259 A 
ATOM      8  O   UNL     1      -7.075   2.224  -0.458  0.00  0.00    -0.267 OA
ATOM      9  C   UNL     1      -5.808   4.195  -0.361  0.00  0.00    +0.065 A 
ATOM     10  C   UNL     1      -6.899   5.058  -0.453  0.00  0.00    +0.015 A 
ATOM     11  C   UNL     1      -6.688   6.419  -0.439  0.00  0.00    +0.001 A 
ATOM     12  C   UNL     1      -5.402   6.934  -0.336  0.00  0.00    +0.002 A 
ATOM     13  C   UNL     1      -4.318   6.107  -0.246  0.00  0.00    +0.028 A 
ATOM     14  C   UNL     1      -4.499   4.720  -0.256  0.00  0.00    +0.079 A 
ATOM     15  N   UNL     1      -3.456   3.874  -0.164  0.00  0.00    -0.228 NA
ENDBRANCH   2   4
BRANCH   1  18
ATOM     16  N   UNL     1       2.033   0.714   0.482  0.00  0.00    -0.239 N 
ATOM     17  C   UNL     1       1.285   1.790   0.167  0.00  0.00    +0.122 A 
ATOM     18  C   UNL     1      -0.041   1.415   0.275  0.00  0.00    +0.014 A 
ATOM     19  C   UNL     1      -0.060   0.058   0.671  0.00  0.00    +0.142 A 
ATOM     20  N   UNL     1       1.175  -0.348   0.790  0.00  0.00    -0.174 NA
BRANCH  16  24
ATOM     21  C   UNL     1       6.199   0.571   0.527  0.00  0.00    +0.000 A 
ATOM     22  C   UNL     1       5.466  -0.555   0.856  0.00  0.00    +0.002 A 
ATOM     23  C   UNL     1       4.086  -0.511   0.842  0.00  0.00    +0.028 A 
ATOM     24  C   UNL     1       3.434   0.666   0.497  0.00  0.00    +0.065 A 
ATOM     25  C   UNL     1       4.172   1.793   0.162  0.00  0.00    +0.028 A 
ATOM     26  C   UNL     1       5.552   1.744   0.183  0.00  0.00    +0.002 A 
ENDBRANCH  16  24
ENDBRANCH   1  18
TORSDOF 3
