REMARK  Name = ZINC05824536
REMARK  5 active torsions:
REMARK  status: ('A' for Active; 'I' for Inactive)
REMARK    1  A    between atoms: C_1  and  C_2
REMARK    2  A    between atoms: C_7  and  C_8
REMARK    3  A    between atoms: C_7  and  N_53
REMARK    4  A    between atoms: C_9  and  O_29
REMARK    5  A    between atoms: C_16  and  C_17
REMARK                            x       y       z     vdW  Elec       q    Type
REMARK                         _______ _______ _______ _____ _____    ______ ____
ROOT
ATOM      1  C   UNL     1      -1.176   5.081  -2.508  0.00  0.00    +0.020 A 
ATOM      2  C   UNL     1      -2.136   5.929  -1.978  0.00  0.00    +0.122 A 
ATOM      3  C   UNL     1      -1.960   7.309  -2.016  0.00  0.00    +0.046 A 
ATOM      4  C   UNL     1      -0.841   7.844  -2.590  0.00  0.00    +0.019 A 
ATOM      5  C   UNL     1       0.130   7.004  -3.132  0.00  0.00    +0.068 A 
ATOM      6  C   UNL     1      -0.034   5.609  -3.093  0.00  0.00    +0.144 A 
ATOM      7  O   UNL     1       1.035   5.029  -3.679  0.00  0.00    -0.451 OA
ATOM      8  C   UNL     1       1.923   5.953  -4.116  0.00  0.00    +0.176 C 
ATOM      9  C   UNL     1       3.101   5.689  -4.748  0.00  0.00    +0.060 C 
ATOM     10  C   UNL     1       1.419   7.244  -3.805  0.00  0.00    +0.231 C 
ATOM     11  O   UNL     1       1.940   8.321  -4.045  0.00  0.00    -0.283 OA
ENDROOT
BRANCH   9  12
ATOM     12  C   UNL     1       3.498   4.307  -5.005  0.00  0.00    +0.004 A 
ATOM     13  C   UNL     1       2.799   3.168  -4.667  0.00  0.00    +0.091 A 
ATOM     14  N   UNL     1       3.489   2.075  -5.075  0.00  0.00    -0.360 N 
ATOM     15  H   UNL     1       3.196   1.159  -4.951  0.00  0.00    +0.165 HD
ATOM     16  C   UNL     1       4.669   2.447  -5.686  0.00  0.00    +0.047 A 
ATOM     17  C   UNL     1       4.733   3.850  -5.673  0.00  0.00    +0.007 A 
ATOM     18  C   UNL     1       5.827   4.505  -6.230  0.00  0.00    +0.010 A 
ATOM     19  C   UNL     1       6.847   3.770  -6.795  0.00  0.00    +0.001 A 
ATOM     20  C   UNL     1       6.786   2.385  -6.809  0.00  0.00    +0.002 A 
ATOM     21  C   UNL     1       5.708   1.724  -6.261  0.00  0.00    +0.026 A 
ENDBRANCH   9  12
BRANCH   2  22
ATOM     22  O   UNL     1      -3.255   5.408  -1.411  0.00  0.00    -0.506 OA
ATOM     23  H   UNL     1      -3.170   5.231  -0.464  0.00  0.00    +0.292 HD
ENDBRANCH   2  22
BRANCH   1  24
ATOM     24  C   UNL     1      -1.375   3.588  -2.454  0.00  0.00    -0.036 C 
BRANCH  24  31
ATOM     25  C   UNL     1       0.041   1.127   2.507  0.00  0.00    +0.007 C 
ATOM     26  C   UNL     1      -0.731   1.580   1.267  0.00  0.00    -0.018 C 
ATOM     27  C   UNL     1      -0.013   1.086   0.008  0.00  0.00    -0.016 C 
ATOM     28  C   UNL     1      -0.754   1.594  -1.231  0.00  0.00    -0.078 C 
ATOM     29  C   UNL     1      -1.520   3.559  -0.037  0.00  0.00    -0.078 C 
ATOM     30  C   UNL     1      -0.801   3.110   1.237  0.00  0.00    -0.016 C 
ATOM     31  N   UNL     1      -0.765   3.072  -1.211  0.00  0.00    +0.383 N 
ATOM     32  H   UNL     1       0.202   3.411  -1.149  0.00  0.00    -0.081 HD
ENDBRANCH  24  31
ENDBRANCH   1  24
TORSDOF 4
