REMARK  Name = ZINC32124672
REMARK  5 active torsions:
REMARK  status: ('A' for Active; 'I' for Inactive)
REMARK    1  A    between atoms: C_5  and  N_7
REMARK    2  A    between atoms: C_13  and  C_14
REMARK    3  A    between atoms: C_17  and  S_23
REMARK    4  A    between atoms: C_18  and  N_20
REMARK    5  A    between atoms: S_23  and  C_24
REMARK                            x       y       z     vdW  Elec       q    Type
REMARK                         _______ _______ _______ _____ _____    ______ ____
ROOT
ATOM      1  C   UNL     1      -4.030  -5.789  -0.260  0.00  0.00    -0.022 A 
ATOM      2  C   UNL     1      -4.558  -4.474  -0.265  0.00  0.00    +0.009 A 
ATOM      3  C   UNL     1      -5.894  -4.282  -0.133  0.00  0.00    +0.018 A 
ATOM      4  C   UNL     1      -6.755  -5.385   0.009  0.00  0.00    +0.043 A 
ATOM      5  C   UNL     1      -6.236  -6.692   0.014  0.00  0.00    +0.140 A 
ATOM      6  C   UNL     1      -4.902  -6.896  -0.123  0.00  0.00    +0.041 A 
ENDROOT
BRANCH   1  13
ATOM      7  N   UNL     1       1.426  -3.130   1.438  0.00  0.00    -0.224 NA
ATOM      8  C   UNL     1       0.259  -3.676   1.143  0.00  0.00    +0.166 C 
ATOM      9  N   UNL     1      -0.987  -3.328   1.607  0.00  0.00    -0.260 N 
ATOM     10  C   UNL     1      -2.030  -4.020   1.172  0.00  0.00    +0.256 C 
ATOM     11  O   UNL     1      -3.161  -3.769   1.539  0.00  0.00    -0.269 OA
ATOM     12  C   UNL     1      -1.747  -5.114   0.216  0.00  0.00    +0.078 C 
ATOM     13  C   UNL     1      -2.649  -5.993  -0.397  0.00  0.00    +0.028 C 
ATOM     14  S   UNL     1      -0.076  -5.035   0.041  0.00  0.00    -0.049 S 
ATOM     15  H   UNL     1      -1.099  -2.598   2.236  0.00  0.00    +0.157 HD
BRANCH   7  20
ATOM     16  C   UNL     1       0.978  -1.385   4.586  0.00  0.00    +0.002 A 
ATOM     17  C   UNL     1       1.650  -0.200   4.319  0.00  0.00    +0.002 A 
ATOM     18  C   UNL     1       2.249   0.007   3.086  0.00  0.00    +0.022 A 
ATOM     19  C   UNL     1       2.182  -0.966   2.112  0.00  0.00    +0.066 A 
ATOM     20  C   UNL     1       1.500  -2.171   2.379  0.00  0.00    +0.085 A 
ATOM     21  C   UNL     1       0.898  -2.363   3.637  0.00  0.00    +0.029 A 
ATOM     22 CL   UNL     1       2.930  -0.709   0.567  0.00  0.00    -0.081 Cl
ENDBRANCH   7  20
ENDBRANCH   1  13
BRANCH   5  23
ATOM     23  N   UNL     1      -7.148  -7.848   0.164  0.00  0.00    +0.058 N 
ATOM     24  O   UNL     1      -6.664  -9.073   0.169  0.00  0.00    -0.126 OA
ATOM     25  O   UNL     1      -8.444  -7.652   0.292  0.00  0.00    -0.126 OA
ENDBRANCH   5  23
BRANCH   4  26
ATOM     26  S   UNL     1      -8.490  -5.128   0.180  0.00  0.00    -0.087 S 
BRANCH  26  27
ATOM     27  C   UNL     1      -8.689  -3.393  -0.051  0.00  0.00    +0.013 A 
ATOM     28  C   UNL     1      -8.857  -2.874  -1.333  0.00  0.00    +0.016 A 
ATOM     29  C   UNL     1      -9.012  -1.515  -1.510  0.00  0.00    +0.021 A 
ATOM     30  C   UNL     1      -9.001  -0.666  -0.415  0.00  0.00    +0.041 A 
ATOM     31  C   UNL     1      -8.834  -1.178   0.861  0.00  0.00    +0.021 A 
ATOM     32  C   UNL     1      -8.684  -2.536   1.048  0.00  0.00    +0.016 A 
ATOM     33 CL   UNL     1      -9.195   1.044  -0.644  0.00  0.00    -0.084 Cl
ENDBRANCH  26  27
ENDBRANCH   4  26
TORSDOF 5
