REMARK  Name = ZINC34890291
REMARK  9 active torsions:
REMARK  status: ('A' for Active; 'I' for Inactive)
REMARK    1  A    between atoms: C_1  and  C_2
REMARK    2  A    between atoms: C_7  and  N_12
REMARK    3  A    between atoms: C_9  and  C_11
REMARK    4  A    between atoms: C_14  and  C_19
REMARK    5  A    between atoms: N_21  and  C_22
REMARK    6  A    between atoms: C_22  and  C_23
REMARK    7  A    between atoms: C_23  and  C_24
REMARK    8  A    between atoms: C_27  and  S_30
REMARK    9  A    between atoms: S_30  and  N_33
REMARK                            x       y       z     vdW  Elec       q    Type
REMARK                         _______ _______ _______ _____ _____    ______ ____
ROOT
ATOM      1  C   UNL     1       1.736  -4.118   5.692  0.00  0.00    +0.218 C 
ATOM      2  O   UNL     1       0.647  -3.776   6.102  0.00  0.00    -0.275 OA
ATOM      3  N   UNL     1       2.651  -4.617   6.547  0.00  0.00    -0.315 N 
ATOM      4  H   UNL     1       3.522  -4.890   6.220  0.00  0.00    +0.149 HD
ENDROOT
BRANCH   1   7
ATOM      5  N   UNL     1       1.471  -2.526   2.420  0.00  0.00    -0.297 N 
ATOM      6  C   UNL     1       0.875  -3.392   3.444  0.00  0.00    +0.121 C 
ATOM      7  C   UNL     1       2.067  -3.984   4.228  0.00  0.00    +0.101 C 
ATOM      8  C   UNL     1       3.157  -2.911   4.002  0.00  0.00    +0.110 C 
ATOM      9  C   UNL     1       2.753  -2.240   2.708  0.00  0.00    +0.217 C 
ATOM     10  O   UNL     1       3.478  -1.544   2.030  0.00  0.00    -0.276 OA
BRANCH   5  16
ATOM     11  C   UNL     1      -0.019   1.526   0.010  0.00  0.00    +0.008 C 
ATOM     12  C   UNL     1       0.002  -0.004   0.002  0.00  0.00    -0.009 C 
ATOM     13  C   UNL     1       0.718  -0.497  -1.257  0.00  0.00    +0.003 C 
ATOM     14  C   UNL     1       0.739  -2.027  -1.265  0.00  0.00    +0.002 C 
ATOM     15  C   UNL     1       1.479  -2.534  -0.026  0.00  0.00    +0.023 C 
ATOM     16  C   UNL     1       0.763  -2.041   1.233  0.00  0.00    +0.079 C 
ATOM     17  C   UNL     1       0.742  -0.511   1.242  0.00  0.00    +0.009 C 
ATOM     18  C   UNL     1       0.026  -0.018   2.500  0.00  0.00    +0.009 C 
ENDBRANCH   5  16
ENDBRANCH   1   7
BRANCH   3  19
ATOM     19  C   UNL     1       2.330  -4.747   7.970  0.00  0.00    +0.109 C 
BRANCH  19  20
ATOM     20  C   UNL     1       3.531  -5.336   8.713  0.00  0.00    +0.054 C 
BRANCH  20  21
ATOM     21  C   UNL     1       3.201  -5.470  10.177  0.00  0.00    -0.046 A 
ATOM     22  C   UNL     1       3.463  -4.425  11.043  0.00  0.00    +0.005 A 
ATOM     23  C   UNL     1       3.160  -4.548  12.386  0.00  0.00    +0.029 A 
ATOM     24  C   UNL     1       2.594  -5.715  12.863  0.00  0.00    +0.105 A 
ATOM     25  C   UNL     1       2.330  -6.760  11.996  0.00  0.00    +0.029 A 
ATOM     26  C   UNL     1       2.629  -6.635  10.653  0.00  0.00    +0.005 A 
BRANCH  24  27
ATOM     27  S   UNL     1       2.208  -5.872  14.575  0.00  0.00    +0.056 S 
ATOM     28  O   UNL     1       2.189  -7.264  14.861  0.00  0.00    -0.153 OA
ATOM     29  O   UNL     1       3.054  -4.964  15.267  0.00  0.00    -0.153 OA
BRANCH  27  30
ATOM     30  N   UNL     1       0.658  -5.327  14.780  0.00  0.00    -0.204 NA
ATOM     31  H   UNL     1       0.153  -5.002  14.018  0.00  0.00    +0.144 HD
ATOM     32  H   UNL     1       0.255  -5.331  15.662  0.00  0.00    +0.144 HD
ENDBRANCH  27  30
ENDBRANCH  24  27
ENDBRANCH  20  21
ENDBRANCH  19  20
ENDBRANCH   3  19
TORSDOF 7
