REMARK  Name = ZINC39777844
REMARK  3 active torsions:
REMARK  status: ('A' for Active; 'I' for Inactive)
REMARK    1  A    between atoms: C_8  and  S_13
REMARK    2  A    between atoms: C_10  and  O_12
REMARK    3  A    between atoms: S_13  and  C_14
REMARK                            x       y       z     vdW  Elec       q    Type
REMARK                         _______ _______ _______ _____ _____    ______ ____
ROOT
ATOM      1  S   UNL     1       3.787  -3.675   0.362  0.00  0.00    -0.104 S 
ENDROOT
BRANCH   1   2
ATOM      2  C   UNL     1       2.939  -5.146  -0.277  0.00  0.00    +0.290 C 
ATOM      3  N   UNL     1       2.084  -5.741   0.762  0.00  0.00    -0.147 NA
ATOM      4  N   UNL     1       2.482  -6.885   0.990  0.00  0.00    -0.112 NA
ATOM      5  C   UNL     1       3.562  -7.251   0.238  0.00  0.00    +0.253 A 
ATOM      6  N   UNL     1       3.907  -6.205  -0.587  0.00  0.00    -0.274 N 
ATOM      7  C   UNL     1       4.990  -6.593  -1.333  0.00  0.00    +0.073 A 
ATOM      8  C   UNL     1       5.765  -5.981  -2.312  0.00  0.00    +0.028 A 
ATOM      9  C   UNL     1       6.815  -6.667  -2.881  0.00  0.00    +0.002 A 
ATOM     10  C   UNL     1       7.108  -7.965  -2.485  0.00  0.00    +0.002 A 
ATOM     11  C   UNL     1       6.361  -8.585  -1.526  0.00  0.00    +0.030 A 
ATOM     12  C   UNL     1       5.287  -7.910  -0.931  0.00  0.00    +0.091 A 
ATOM     13  N   UNL     1       4.389  -8.252   0.022  0.00  0.00    -0.209 NA
ENDBRANCH   1   2
BRANCH   1  21
ATOM     14  C   UNL     1      -0.017   1.377   0.010  0.00  0.00    +0.000 A 
ATOM     15  C   UNL     1       1.172   2.083   0.002  0.00  0.00    +0.000 A 
ATOM     16  C   UNL     1       2.376   1.406  -0.013  0.00  0.00    +0.006 A 
ATOM     17  C   UNL     1       2.396   0.021  -0.021  0.00  0.00    -0.015 A 
ATOM     18  C   UNL     1       1.208  -0.685  -0.013  0.00  0.00    -0.041 A 
ATOM     19  C   UNL     1       0.002  -0.004   0.002  0.00  0.00    +0.004 A 
ATOM     20  C   UNL     1       1.496  -2.171  -0.025  0.00  0.00    +0.052 C 
ATOM     21  C   UNL     1       2.966  -2.294  -0.480  0.00  0.00    +0.088 C 
ATOM     22  C   UNL     1       3.564  -0.942  -0.037  0.00  0.00    +0.158 C 
BRANCH  22  23
ATOM     23  O   UNL     1       4.552  -0.507  -0.973  0.00  0.00    -0.386 OA
ATOM     24  H   UNL     1       4.933   0.358  -0.770  0.00  0.00    +0.210 HD
ENDBRANCH  22  23
ENDBRANCH   1  21
TORSDOF 3
