REMARK  Name = ZINC63744008
REMARK  5 active torsions:
REMARK  status: ('A' for Active; 'I' for Inactive)
REMARK    1  A    between atoms: C_6  and  C_10
REMARK    2  A    between atoms: C_10  and  S_11
REMARK    3  A    between atoms: S_11  and  C_12
REMARK    4  A    between atoms: C_15  and  C_19
REMARK    5  A    between atoms: N_17  and  N_18
REMARK                            x       y       z     vdW  Elec       q    Type
REMARK                         _______ _______ _______ _____ _____    ______ ____
ROOT
ATOM      1  C   UNL     1       3.527  -2.867  -4.119  0.00  0.00    +0.189 C 
ATOM      2  N   UNL     1       4.255  -3.925  -3.989  0.00  0.00    -0.161 NA
ATOM      3  N   UNL     1       4.600  -4.466  -5.233  0.00  0.00    -0.241 N 
ATOM      4  C   UNL     1       3.980  -3.593  -6.246  0.00  0.00    +0.223 C 
ATOM      5  N   UNL     1       3.286  -2.566  -5.451  0.00  0.00    -0.221 N 
ATOM      6  H   UNL     1       5.138  -5.256  -5.396  0.00  0.00    +0.171 HD
ENDROOT
BRANCH   4   7
ATOM      7  C   UNL     1       2.994  -4.369  -7.081  0.00  0.00    -0.007 A 
ATOM      8  C   UNL     1       1.882  -3.736  -7.603  0.00  0.00    +0.008 A 
ATOM      9  C   UNL     1       0.977  -4.447  -8.368  0.00  0.00    +0.020 A 
ATOM     10  C   UNL     1       1.185  -5.793  -8.612  0.00  0.00    +0.041 A 
ATOM     11  C   UNL     1       2.299  -6.426  -8.089  0.00  0.00    +0.020 A 
ATOM     12  C   UNL     1       3.206  -5.713  -7.329  0.00  0.00    +0.008 A 
ATOM     13 CL   UNL     1       0.049  -6.687  -9.573  0.00  0.00    -0.084 Cl
ENDBRANCH   4   7
BRANCH   5  14
ATOM     14  N   UNL     1       2.551  -1.520  -5.932  0.00  0.00    -0.250 NA
ATOM     15  H   UNL     1       2.183  -0.960  -5.178  0.00  0.00    +0.141 HD
ATOM     16  H   UNL     1       3.096  -0.957  -6.568  0.00  0.00    +0.141 HD
ENDBRANCH   5  14
BRANCH   1  17
ATOM     17  S   UNL     1       2.908  -1.923  -2.766  0.00  0.00    -0.084 S 
BRANCH  17  18
ATOM     18  C   UNL     1       3.542  -2.787  -1.302  0.00  0.00    +0.124 C 
BRANCH  18  24
ATOM     19  C   UNL     1      -0.016   1.344   0.009  0.00  0.00    +0.002 A 
ATOM     20  C   UNL     1       1.158   2.118   0.002  0.00  0.00    +0.002 A 
ATOM     21  C   UNL     1       2.389   1.570  -0.013  0.00  0.00    +0.027 A 
ATOM     22  C   UNL     1       2.533   0.108  -0.022  0.00  0.00    +0.060 A 
ATOM     23  N   UNL     1       3.569  -0.680  -0.036  0.00  0.00    -0.363 N 
ATOM     24  C   UNL     1       3.071  -2.062  -0.039  0.00  0.00    +0.184 C 
ATOM     25  N   UNL     1       1.606  -1.974  -0.024  0.00  0.00    -0.363 N 
ATOM     26  C   UNL     1       1.290  -0.712  -0.014  0.00  0.00    +0.060 A 
ATOM     27  C   UNL     1       0.002  -0.004   0.002  0.00  0.00    +0.027 A 
ATOM     28  H   UNL     1       4.499  -0.405  -0.045  0.00  0.00    +0.162 HD
ATOM     29  H   UNL     1       0.987  -2.721  -0.022  0.00  0.00    +0.162 HD
ENDBRANCH  18  24
ENDBRANCH  17  18
ENDBRANCH   1  17
TORSDOF 5
