REMARK  Name = ZINC02231259
REMARK  8 active torsions:
REMARK  status: ('A' for Active; 'I' for Inactive)
REMARK    1  A    between atoms: C_1  and  C_2
REMARK    2  A    between atoms: C_2  and  C_3
REMARK    3  A    between atoms: C_10  and  C_21
REMARK    4  A    between atoms: C_11  and  N_20
REMARK    5  A    between atoms: C_26  and  C_36
REMARK    6  A    between atoms: C_26  and  C_37
REMARK    7  A    between atoms: C_28  and  C_29
REMARK    8  A    between atoms: C_28  and  C_30
REMARK                            x       y       z     vdW  Elec       q    Type
REMARK                         _______ _______ _______ _____ _____    ______ ____
ROOT
ATOM      1  C   UNL     1      -4.705   3.457   1.301  0.00  0.00    -0.047 A 
ATOM      2  C   UNL     1      -4.221   2.800   0.179  0.00  0.00    +0.010 A 
ATOM      3  C   UNL     1      -2.957   2.261   0.172  0.00  0.00    -0.015 A 
ATOM      4  C   UNL     1      -2.203   2.410   1.336  0.00  0.00    +0.046 A 
ATOM      5  C   UNL     1      -2.684   3.064   2.462  0.00  0.00    -0.001 A 
ATOM      6  C   UNL     1      -3.952   3.604   2.464  0.00  0.00    +0.010 A 
ATOM      7  C   UNL     1      -1.574   2.993   3.461  0.00  0.00    +0.144 C 
ATOM      8  C   UNL     1      -1.994   2.232   4.684  0.00  0.00    +0.110 C 
ATOM      9  C   UNL     1      -2.261   2.895   5.838  0.00  0.00    +0.199 C 
ATOM     10  O   UNL     1      -2.165   4.231   5.914  0.00  0.00    -0.445 OA
ATOM     11  C   UNL     1      -1.415   4.907   5.024  0.00  0.00    +0.115 C 
ATOM     12  C   UNL     1      -1.093   4.372   3.830  0.00  0.00    +0.058 C 
ATOM     13  C   UNL     1      -0.304   5.077   2.901  0.00  0.00    +0.164 C 
ATOM     14  O   UNL     1      -0.052   4.569   1.827  0.00  0.00    -0.292 OA
ATOM     15  C   UNL     1       0.232   6.447   3.215  0.00  0.00    +0.080 C 
ATOM     16  C   UNL     1       0.405   6.575   4.733  0.00  0.00    +0.016 C 
ATOM     17  C   UNL     1      -0.942   6.291   5.400  0.00  0.00    +0.075 C 
ATOM     18  C   UNL     1      -0.462   2.242   2.745  0.00  0.00    +0.241 C 
ATOM     19  O   UNL     1       0.627   1.967   3.203  0.00  0.00    -0.273 OA
ATOM     20  N   UNL     1      -0.904   1.939   1.516  0.00  0.00    -0.264 N 
ATOM     21  C   UNL     1      -0.219   1.223   0.426  0.00  0.00    +0.038 C 
ATOM     22  C   UNL     1      -0.797   1.705  -0.909  0.00  0.00    +0.041 C 
ATOM     23  C   UNL     1      -2.317   1.528  -0.970  0.00  0.00    +0.022 C 
ATOM     24  C   UNL     1      -2.660   0.040  -0.875  0.00  0.00    +0.021 C 
ATOM     25  C   UNL     1      -0.449  -0.282   0.574  0.00  0.00    +0.032 C 
ATOM     26  C   UNL     1       1.281   1.522   0.476  0.00  0.00    +0.032 C 
ENDROOT
BRANCH  23  27
ATOM     27  C   UNL     1      -2.835   2.079  -2.273  0.00  0.00    -0.037 A 
ATOM     28  C   UNL     1      -3.378   1.228  -3.217  0.00  0.00    +0.004 A 
ATOM     29  C   UNL     1      -3.857   1.734  -4.410  0.00  0.00    +0.000 A 
ATOM     30  C   UNL     1      -3.784   3.091  -4.664  0.00  0.00    +0.000 A 
ATOM     31  C   UNL     1      -3.237   3.942  -3.723  0.00  0.00    +0.000 A 
ATOM     32  C   UNL     1      -2.762   3.436  -2.527  0.00  0.00    +0.004 A 
ENDBRANCH  23  27
BRANCH   9  33
ATOM     33  N   UNL     1      -2.637   2.183   6.950  0.00  0.00    -0.328 N 
ATOM     34  H   UNL     1      -2.830   2.647   7.780  0.00  0.00    +0.145 HD
ATOM     35  H   UNL     1      -2.709   1.217   6.907  0.00  0.00    +0.145 HD
ENDBRANCH   9  33
BRANCH   1  37
ATOM     36  C   UNL     1      -6.038   5.473   0.747  0.00  0.00    +0.009 C 
ATOM     37  C   UNL     1      -6.096   4.033   1.260  0.00  0.00    +0.032 C 
ENDBRANCH   1  37
BRANCH   8  38
ATOM     38  C   UNL     1      -2.114   0.806   4.635  0.00  0.00    +0.102 C 
ATOM     39  N   UNL     1      -2.209  -0.325   4.595  0.00  0.00    -0.191 NA
ENDBRANCH   8  38
TORSDOF 4
