REMARK  Name = ZINC14549678
REMARK  6 active torsions:
REMARK  status: ('A' for Active; 'I' for Inactive)
REMARK    1  A    between atoms: C_1  and  C_2
REMARK    2  A    between atoms: C_5  and  N_9
REMARK    3  A    between atoms: C_6  and  C_8
REMARK    4  A    between atoms: N_9  and  S_10
REMARK    5  A    between atoms: S_10  and  C_13
REMARK    6  A    between atoms: C_26  and  C_29
REMARK                            x       y       z     vdW  Elec       q    Type
REMARK                         _______ _______ _______ _____ _____    ______ ____
ROOT
ATOM      1  C   UNL     1      -1.641  -0.497   3.345  0.00  0.00    +0.109 A 
ATOM      2  C   UNL     1      -0.692  -1.327   3.914  0.00  0.00    +0.030 A 
ATOM      3  C   UNL     1       0.387  -1.749   3.164  0.00  0.00    +0.025 A 
ATOM      4  C   UNL     1       0.516  -1.338   1.842  0.00  0.00    +0.031 A 
ATOM      5  C   UNL     1      -0.429  -0.506   1.270  0.00  0.00    -0.018 A 
ATOM      6  C   UNL     1      -1.511  -0.088   2.034  0.00  0.00    +0.034 A 
ATOM      7  C   UNL     1      -0.340  -0.025  -0.153  0.00  0.00    +0.049 C 
ATOM      8  C   UNL     1      -0.289   1.497  -0.119  0.00  0.00    -0.023 C 
ATOM      9  C   UNL     1       0.951   1.914  -0.185  0.00  0.00    -0.030 C 
ATOM     10  C   UNL     1       1.903   0.735  -0.279  0.00  0.00    +0.033 C 
ATOM     11  C   UNL     1       0.998  -0.398  -0.816  0.00  0.00    +0.029 C 
ATOM     12  C   UNL     1       1.500  -1.757  -0.367  0.00  0.00    +0.105 C 
ATOM     13  N   UNL     1       1.615  -1.780   1.095  0.00  0.00    -0.336 N 
ATOM     14  H   UNL     1       2.424  -2.090   1.530  0.00  0.00    +0.147 HD
ENDROOT
BRANCH  12  15
ATOM     15  C   UNL     1       0.532  -2.823  -0.811  0.00  0.00    -0.027 A 
ATOM     16  C   UNL     1      -0.621  -3.055  -0.084  0.00  0.00    +0.008 A 
ATOM     17  C   UNL     1      -1.513  -4.028  -0.494  0.00  0.00    +0.038 A 
ATOM     18  C   UNL     1      -1.246  -4.779  -1.626  0.00  0.00    +0.123 A 
ATOM     19  C   UNL     1      -0.088  -4.550  -2.350  0.00  0.00    +0.038 A 
ATOM     20  C   UNL     1       0.799  -3.572  -1.942  0.00  0.00    +0.008 A 
ATOM     21  F   UNL     1      -2.114  -5.735  -2.023  0.00  0.00    -0.205 F 
ENDBRANCH  12  15
BRANCH   1  22
ATOM     22  S   UNL     1      -3.020   0.042   4.299  0.00  0.00    +0.072 S 
ATOM     23  O   UNL     1      -4.050   0.369   3.376  0.00  0.00    -0.150 OA
ATOM     24  O   UNL     1      -3.200  -0.918   5.332  0.00  0.00    -0.150 OA
BRANCH  22  25
ATOM     25  N   UNL     1      -2.581   1.457   5.040  0.00  0.00    -0.216 N 
ATOM     26  H   UNL     1      -2.576   1.516   6.008  0.00  0.00    +0.174 HD
BRANCH  25  31
ATOM     27  C   UNL     1      -1.110   5.956   1.917  0.00  0.00    +0.044 C 
ATOM     28  C   UNL     1      -1.501   4.760   2.747  0.00  0.00    -0.050 A 
ATOM     29  C   UNL     1      -2.496   3.908   2.303  0.00  0.00    +0.005 A 
ATOM     30  C   UNL     1      -2.857   2.812   3.061  0.00  0.00    +0.025 A 
ATOM     31  C   UNL     1      -2.219   2.564   4.270  0.00  0.00    +0.051 A 
ATOM     32  C   UNL     1      -1.223   3.425   4.715  0.00  0.00    -0.028 A 
ATOM     33  C   UNL     1      -0.863   4.517   3.949  0.00  0.00    +0.008 A 
ATOM     34  C   UNL     1      -0.532   3.164   6.029  0.00  0.00    +0.046 C 
ENDBRANCH  25  31
ENDBRANCH  22  25
ENDBRANCH   1  22
TORSDOF 4
