REMARK  Name = ZINC39838450
REMARK  4 active torsions:
REMARK  status: ('A' for Active; 'I' for Inactive)
REMARK    1  A    between atoms: C_1  and  C_2
REMARK    2  A    between atoms: C_2  and  C_3
REMARK    3  A    between atoms: C_6  and  C_9
REMARK    4  A    between atoms: C_27  and  C_31
REMARK                            x       y       z     vdW  Elec       q    Type
REMARK                         _______ _______ _______ _____ _____    ______ ____
ROOT
ATOM      1  C   UNL     1      -5.419  -2.005   0.043  0.00  0.00    +0.151 C 
ATOM      2  C   UNL     1      -6.381  -0.893  -0.216  0.00  0.00    +0.072 A 
ATOM      3  C   UNL     1      -6.658   0.339   0.529  0.00  0.00    +0.199 A 
ATOM      4  O   UNL     1      -5.967   0.729   1.454  0.00  0.00    -0.287 OA
ATOM      5  C   UNL     1      -7.861   1.066   0.051  0.00  0.00    +0.066 A 
ATOM      6  C   UNL     1      -8.371   2.142   0.777  0.00  0.00    +0.035 A 
ATOM      7  C   UNL     1      -9.491   2.802   0.320  0.00  0.00    +0.042 A 
ATOM      8  C   UNL     1     -10.108   2.395  -0.856  0.00  0.00    +0.023 A 
ATOM      9  C   UNL     1      -9.612   1.335  -1.581  0.00  0.00    +0.048 A 
ATOM     10  C   UNL     1      -8.478   0.653  -1.142  0.00  0.00    +0.140 A 
ATOM     11  O   UNL     1      -8.006  -0.379  -1.879  0.00  0.00    -0.450 OA
ATOM     12  C   UNL     1      -7.062  -1.190  -1.363  0.00  0.00    +0.199 A 
ATOM     13  C   UNL     1      -6.573  -2.484  -1.868  0.00  0.00    +0.288 C 
ATOM     14  O   UNL     1      -6.976  -3.036  -2.873  0.00  0.00    -0.266 OA
ATOM     15  N   UNL     1      -5.612  -2.969  -1.053  0.00  0.00    -0.238 N 
ATOM     16  C   UNL     1      -4.925  -4.168  -1.218  0.00  0.00    +0.129 A 
ATOM     17  C   UNL     1      -4.035  -4.593  -0.237  0.00  0.00    +0.047 A 
ATOM     18  C   UNL     1      -3.358  -5.787  -0.414  0.00  0.00    -0.046 A 
ATOM     19  C   UNL     1      -3.596  -6.518  -1.571  0.00  0.00    +0.023 A 
ATOM     20  C   UNL     1      -4.493  -6.035  -2.503  0.00  0.00    +0.113 A 
ATOM     21  N   UNL     1      -5.128  -4.896  -2.305  0.00  0.00    -0.240 NA
ATOM     22  C   UNL     1      -2.385  -6.283   0.624  0.00  0.00    +0.044 C 
ATOM     23 CL   UNL     1     -10.133   4.144   1.216  0.00  0.00    -0.084 Cl
ENDROOT
BRANCH   1  27
ATOM     24  C   UNL     1      -1.412  -0.526   0.013  0.00  0.00    -0.048 A 
ATOM     25  C   UNL     1      -2.051  -0.766   1.215  0.00  0.00    +0.004 A 
ATOM     26  C   UNL     1      -3.348  -1.244   1.225  0.00  0.00    +0.006 A 
ATOM     27  C   UNL     1      -4.006  -1.482   0.032  0.00  0.00    -0.022 A 
ATOM     28  C   UNL     1      -3.367  -1.241  -1.170  0.00  0.00    +0.006 A 
ATOM     29  C   UNL     1      -2.072  -0.758  -1.179  0.00  0.00    +0.004 A 
BRANCH  24  31
ATOM     30  C   UNL     1      -0.019   1.526   0.010  0.00  0.00    +0.009 C 
ATOM     31  C   UNL     1       0.002  -0.004   0.002  0.00  0.00    +0.032 C 
ENDBRANCH  24  31
ENDBRANCH   1  27
TORSDOF 2
