REMARK  Name = ZINC22389932
REMARK  7 active torsions:
REMARK  status: ('A' for Active; 'I' for Inactive)
REMARK    1  A    between atoms: C_3  and  S_6
REMARK    2  A    between atoms: S_6  and  N_9
REMARK    3  A    between atoms: N_9  and  C_10
REMARK    4  A    between atoms: N_9  and  C_30
REMARK    5  A    between atoms: C_10  and  C_11
REMARK    6  A    between atoms: N_13  and  C_14
REMARK    7  A    between atoms: C_17  and  C_20
REMARK                            x       y       z     vdW  Elec       q    Type
REMARK                         _______ _______ _______ _____ _____    ______ ____
ROOT
ATOM      1  C   UNL     1      -0.146   1.407   0.735  0.00  0.00    +0.236 C 
ATOM      2  O   UNL     1      -0.256   0.386   1.379  0.00  0.00    -0.274 OA
ATOM      3  N   UNL     1      -1.191   1.867   0.018  0.00  0.00    -0.284 N 
ATOM      4  H   UNL     1      -1.121   2.837  -0.496  0.00  0.00    +0.155 HD
ENDROOT
BRANCH   3   5
ATOM      5  C   UNL     1      -2.364   1.109  -0.073  0.00  0.00    +0.033 A 
ATOM      6  C   UNL     1      -2.298  -0.278  -0.079  0.00  0.00    +0.023 A 
ATOM      7  C   UNL     1      -3.458  -1.022  -0.164  0.00  0.00    +0.006 A 
ATOM      8  C   UNL     1      -4.684  -0.388  -0.254  0.00  0.00    -0.041 A 
ATOM      9  C   UNL     1      -4.752   0.994  -0.254  0.00  0.00    +0.006 A 
ATOM     10  C   UNL     1      -3.596   1.744  -0.164  0.00  0.00    +0.023 A 
BRANCH   8  11
ATOM     11  C   UNL     1      -5.947  -1.203  -0.353  0.00  0.00    -0.003 C 
ATOM     12  C   UNL     1      -6.669  -0.868  -1.659  0.00  0.00    +0.015 C 
ATOM     13  C   UNL     1      -7.952  -1.695  -1.760  0.00  0.00    -0.010 C 
ATOM     14  C   UNL     1      -7.601  -3.184  -1.739  0.00  0.00    +0.007 C 
ATOM     15  C   UNL     1      -6.879  -3.520  -0.433  0.00  0.00    -0.010 C 
ATOM     16  C   UNL     1      -5.596  -2.692  -0.332  0.00  0.00    +0.015 C 
ATOM     17  C   UNL     1      -7.790  -3.194   0.752  0.00  0.00    +0.007 C 
ATOM     18  C   UNL     1      -8.141  -1.705   0.731  0.00  0.00    -0.010 C 
ATOM     19  C   UNL     1      -8.864  -1.370  -0.575  0.00  0.00    +0.007 C 
ATOM     20  C   UNL     1      -6.859  -0.877   0.832  0.00  0.00    +0.015 C 
ENDBRANCH   8  11
ENDBRANCH   3   5
BRANCH   1  21
ATOM     21  C   UNL     1       1.159   2.160   0.732  0.00  0.00    +0.227 C 
BRANCH  21  22
ATOM     22  N   UNL     1       2.130   1.459   1.577  0.00  0.00    -0.194 N 
BRANCH  22  23
ATOM     23  C   UNL     1       2.887   0.409   1.047  0.00  0.00    +0.052 A 
ATOM     24  C   UNL     1       3.401  -0.570   1.887  0.00  0.00    +0.027 A 
ATOM     25  C   UNL     1       4.145  -1.608   1.362  0.00  0.00    +0.040 A 
ATOM     26  C   UNL     1       4.388  -1.667  -0.000  0.00  0.00    +0.124 A 
ATOM     27  C   UNL     1       3.881  -0.689  -0.839  0.00  0.00    +0.040 A 
ATOM     28  C   UNL     1       3.132   0.348  -0.318  0.00  0.00    +0.027 A 
ATOM     29  F   UNL     1       5.120  -2.680  -0.511  0.00  0.00    -0.205 F 
ENDBRANCH  22  23
BRANCH  22  30
ATOM     30  S   UNL     1       2.329   1.908   3.158  0.00  0.00    +0.081 S 
ATOM     31  O   UNL     1       3.680   1.624   3.494  0.00  0.00    -0.149 OA
ATOM     32  O   UNL     1       1.769   3.208   3.284  0.00  0.00    -0.149 OA
BRANCH  30  35
ATOM     33  C   UNL     1       0.699  -1.033   5.431  0.00  0.00    +0.010 A 
ATOM     34  C   UNL     1       1.655  -0.356   4.697  0.00  0.00    +0.036 A 
ATOM     35  C   UNL     1       1.330   0.834   4.135  0.00  0.00    +0.146 A 
ATOM     36  S   UNL     1      -0.368   1.034   4.648  0.00  0.00    -0.077 S 
ATOM     37  C   UNL     1      -0.534  -0.486   5.569  0.00  0.00    +0.047 A 
ENDBRANCH  30  35
ENDBRANCH  22  30
ENDBRANCH  21  22
ENDBRANCH   1  21
TORSDOF 7
