REMARK  Name = ZINC63699037
REMARK  3 active torsions:
REMARK  status: ('A' for Active; 'I' for Inactive)
REMARK    1  A    between atoms: C_1  and  C_2
REMARK    2  A    between atoms: C_4  and  C_23
REMARK    3  A    between atoms: N_12  and  C_14
REMARK                            x       y       z     vdW  Elec       q    Type
REMARK                         _______ _______ _______ _____ _____    ______ ____
ROOT
ATOM      1  C   UNL     1      -0.601   1.315   0.160  0.00  0.00    +0.062 C 
ATOM      2  C   UNL     1      -0.327  -0.164   0.071  0.00  0.00    +0.019 C 
ATOM      3  C   UNL     1      -1.250  -1.081   0.029  0.00  0.00    -0.007 C 
ATOM      4  C   UNL     1      -2.744  -0.995   0.221  0.00  0.00    +0.065 C 
ATOM      5  C   UNL     1      -3.067  -1.851   1.455  0.00  0.00    +0.109 C 
ATOM      6  C   UNL     1      -2.222  -3.081   1.516  0.00  0.00    +0.215 C 
ATOM      7  O   UNL     1      -2.636  -3.982   2.215  0.00  0.00    -0.276 OA
ATOM      8  N   UNL     1      -1.065  -3.305   0.892  0.00  0.00    -0.295 N 
ATOM      9  C   UNL     1      -0.550  -2.419  -0.144  0.00  0.00    +0.194 C 
ATOM     10  N   UNL     1       0.871  -2.092   0.016  0.00  0.00    -0.164 NA
ATOM     11  N   UNL     1       0.940  -0.723   0.017  0.00  0.00    -0.277 N 
ATOM     12  H   UNL     1      -0.546  -4.087   1.137  0.00  0.00    +0.151 HD
ATOM     13  H   UNL     1       1.765  -0.214  -0.013  0.00  0.00    +0.166 HD
ENDROOT
BRANCH  10  14
ATOM     14  C   UNL     1       1.403  -2.651   1.266  0.00  0.00    +0.270 C 
ATOM     15  N   UNL     1       0.821  -1.951   2.419  0.00  0.00    -0.350 N 
ATOM     16  C   UNL     1       1.801  -1.400   3.076  0.00  0.00    +0.061 A 
ATOM     17  C   UNL     1       1.850  -0.582   4.295  0.00  0.00    +0.027 A 
ATOM     18  C   UNL     1       3.039  -0.141   4.752  0.00  0.00    +0.002 A 
ATOM     19  C   UNL     1       4.255  -0.429   4.106  0.00  0.00    +0.002 A 
ATOM     20  C   UNL     1       4.322  -1.170   2.981  0.00  0.00    +0.027 A 
ATOM     21  C   UNL     1       3.087  -1.707   2.392  0.00  0.00    +0.061 A 
ATOM     22  N   UNL     1       2.853  -2.435   1.339  0.00  0.00    -0.350 N 
ATOM     23  H   UNL     1      -0.120  -1.907   2.648  0.00  0.00    +0.163 HD
ATOM     24  H   UNL     1       3.515  -2.773   0.716  0.00  0.00    +0.163 HD
ENDBRANCH  10  14
BRANCH   4  25
ATOM     25  C   UNL     1      -3.155   0.435   0.457  0.00  0.00    -0.001 A 
ATOM     26  C   UNL     1      -3.610   1.351  -0.432  0.00  0.00    +0.013 A 
ATOM     27  C   UNL     1      -3.930   2.619   0.015  0.00  0.00    +0.023 A 
ATOM     28  C   UNL     1      -3.779   2.909   1.331  0.00  0.00    +0.055 A 
ATOM     29  S   UNL     1      -3.176   1.361   1.984  0.00  0.00    -0.086 S 
ATOM     30 BR   UNL     1      -4.125   4.531   2.240  0.00  0.00    -0.043 Br
ENDBRANCH   4  25
TORSDOF 2
