REMARK  Name = ZINC19927041
REMARK  6 active torsions:
REMARK  status: ('A' for Active; 'I' for Inactive)
REMARK    1  A    between atoms: C_1  and  C_2
REMARK    2  A    between atoms: C_5  and  C_8
REMARK    3  A    between atoms: N_9  and  N_10
REMARK    4  A    between atoms: C_11  and  C_13
REMARK    5  A    between atoms: C_14  and  C_24
REMARK    6  A    between atoms: C_24  and  N_25
REMARK                            x       y       z     vdW  Elec       q    Type
REMARK                         _______ _______ _______ _____ _____    ______ ____
ROOT
ATOM      1  C   UNL     1      -0.513   5.403  -0.050  0.00  0.00    +0.154 A 
ATOM      2  C   UNL     1       0.761   5.909  -0.055  0.00  0.00    +0.079 A 
ATOM      3  N   UNL     1       1.581   4.865   0.073  0.00  0.00    -0.135 NA
ATOM      4  N   UNL     1       0.889   3.785   0.159  0.00  0.00    -0.058 NA
ATOM      5  N   UNL     1      -0.370   4.045   0.095  0.00  0.00    -0.183 N 
ATOM      6  C   UNL     1      -1.407   3.110   0.157  0.00  0.00    +0.241 A 
ATOM      7  C   UNL     1      -1.248   1.653   0.191  0.00  0.00    +0.206 A 
ATOM      8  N   UNL     1      -2.434   1.112   0.253  0.00  0.00    -0.032 NA
ATOM      9  O   UNL     1      -3.389   2.159   0.255  0.00  0.00    -0.239 OA
ATOM     10  N   UNL     1      -2.681   3.385   0.190  0.00  0.00    -0.027 NA
ATOM     11  N   UNL     1      -0.041   0.965   0.167  0.00  0.00    -0.337 N 
ATOM     12  H   UNL     1      -0.033  -0.135   0.196  0.00  0.00    +0.144 HD
ATOM     13  H   UNL     1       0.908   1.520   0.118  0.00  0.00    +0.144 HD
ENDROOT
BRANCH   1  15
ATOM     14  N   UNL     1      -2.418   6.569   0.937  0.00  0.00    -0.202 N 
ATOM     15  C   UNL     1      -1.770   6.157  -0.171  0.00  0.00    +0.284 C 
ATOM     16  O   UNL     1      -2.225   6.409  -1.271  0.00  0.00    -0.267 OA
ATOM     17  H   UNL     1      -1.966   6.416   1.928  0.00  0.00    +0.178 HD
BRANCH  14  19
ATOM     18  C   UNL     1      -4.293   7.588   1.893  0.00  0.00    +0.138 C 
ATOM     19  N   UNL     1      -3.668   7.191   0.826  0.00  0.00    -0.187 NA
BRANCH  18  24
ATOM     20  C   UNL     1      -9.424  10.145   1.438  0.00  0.00    +0.044 C 
ATOM     21  C   UNL     1      -8.080   9.474   1.558  0.00  0.00    -0.050 A 
ATOM     22  C   UNL     1      -7.514   9.284   2.806  0.00  0.00    +0.004 A 
ATOM     23  C   UNL     1      -6.283   8.671   2.922  0.00  0.00    +0.010 A 
ATOM     24  C   UNL     1      -5.609   8.243   1.776  0.00  0.00    -0.005 A 
ATOM     25  C   UNL     1      -6.184   8.444   0.519  0.00  0.00    +0.010 A 
ATOM     26  C   UNL     1      -7.417   9.053   0.418  0.00  0.00    +0.004 A 
ENDBRANCH  18  24
ENDBRANCH  14  19
ENDBRANCH   1  15
BRANCH   2  27
ATOM     27  C   UNL     1       1.157   7.357  -0.187  0.00  0.00    -0.018 C 
BRANCH  27  28
ATOM     28  N   UNL     1       1.328   7.690  -1.608  0.00  0.00    +0.383 N 
ATOM     29  C   UNL     1       2.461   6.958  -2.188  0.00  0.00    -0.078 C 
ATOM     30  C   UNL     1       2.519   7.217  -3.695  0.00  0.00    -0.019 C 
ATOM     31  C   UNL     1       2.676   8.720  -3.945  0.00  0.00    -0.004 C 
ATOM     32  C   UNL     1       1.509   9.463  -3.289  0.00  0.00    -0.019 C 
ATOM     33  C   UNL     1       1.480   9.139  -1.793  0.00  0.00    -0.078 C 
ATOM     34  H   UNL     1       0.418   7.378  -2.141  0.00  0.00    -0.081 HD
ENDBRANCH  27  28
ENDBRANCH   2  27
TORSDOF 5
