REMARK  Name = ZINC00086225
REMARK  3 active torsions:
REMARK  status: ('A' for Active; 'I' for Inactive)
REMARK    1  A    between atoms: C_1  and  S_2
REMARK    2  A    between atoms: S_2  and  C_3
REMARK    3  A    between atoms: C_16  and  C_19
REMARK                            x       y       z     vdW  Elec       q    Type
REMARK                         _______ _______ _______ _____ _____    ______ ____
ROOT
ATOM      1  C   UNL     1       7.458  -0.589  -2.153  0.00  0.00    +0.212 A 
ATOM      2  N   UNL     1       6.154  -0.689  -1.912  0.00  0.00    -0.184 NA
ATOM      3  C   UNL     1       5.465   0.401  -1.621  0.00  0.00    +0.248 A 
ATOM      4  C   UNL     1       6.142   1.640  -1.571  0.00  0.00    +0.156 A 
ATOM      5  N   UNL     1       7.442   1.671  -1.824  0.00  0.00    -0.141 NA
ATOM      6  N   UNL     1       8.075   0.585  -2.106  0.00  0.00    -0.122 NA
ATOM      7  C   UNL     1       5.394   2.868  -1.232  0.00  0.00    +0.028 A 
ATOM      8  C   UNL     1       5.521   4.029  -1.985  0.00  0.00    +0.012 A 
ATOM      9  C   UNL     1       4.814   5.160  -1.628  0.00  0.00    +0.001 A 
ATOM     10  C   UNL     1       3.979   5.144  -0.524  0.00  0.00    +0.002 A 
ATOM     11  C   UNL     1       3.838   3.994   0.232  0.00  0.00    +0.024 A 
ATOM     12  C   UNL     1       4.535   2.852  -0.117  0.00  0.00    +0.039 A 
ATOM     13  N   UNL     1       4.390   1.663   0.602  0.00  0.00    -0.305 N 
ATOM     14  C   UNL     1       3.709   0.537  -0.030  0.00  0.00    +0.294 C 
ATOM     15  O   UNL     1       4.134   0.350  -1.375  0.00  0.00    -0.449 OA
ATOM     16  H   UNL     1       4.735   1.587   1.506  0.00  0.00    +0.150 HD
ENDROOT
BRANCH  14  17
ATOM     17  C   UNL     1       2.223   0.790  -0.015  0.00  0.00    +0.018 A 
ATOM     18  C   UNL     1       1.628   1.407   1.069  0.00  0.00    +0.016 A 
ATOM     19  C   UNL     1       0.289   1.620   1.051  0.00  0.00    +0.045 A 
ATOM     20  S   UNL     1      -0.171   0.939  -0.534  0.00  0.00    -0.105 S 
ATOM     21  C   UNL     1       1.451   0.416  -1.065  0.00  0.00    +0.054 A 
ENDBRANCH  14  17
BRANCH   1  23
ATOM     22  C   UNL     1      10.026  -1.314  -2.757  0.00  0.00    +0.093 C 
ATOM     23  S   UNL     1       8.382  -2.039  -2.539  0.00  0.00    -0.088 S 
ENDBRANCH   1  23
TORSDOF 2
