REMARK  Name = ZINC32655073
REMARK  9 active torsions:
REMARK  status: ('A' for Active; 'I' for Inactive)
REMARK    1  A    between atoms: C_1  and  C_2
REMARK    2  A    between atoms: C_2  and  O_3
REMARK    3  A    between atoms: O_3  and  C_4
REMARK    4  A    between atoms: C_7  and  C_10
REMARK    5  A    between atoms: C_23  and  C_31
REMARK    6  A    between atoms: C_24  and  C_25
REMARK    7  A    between atoms: C_25  and  O_27
REMARK    8  A    between atoms: O_27  and  C_28
REMARK    9  A    between atoms: C_28  and  C_29
REMARK                            x       y       z     vdW  Elec       q    Type
REMARK                         _______ _______ _______ _____ _____    ______ ____
ROOT
ATOM      1  C   UNL     1      -2.553   3.867   0.048  0.00  0.00    +0.096 C 
ATOM      2  C   UNL     1      -3.311   3.494   1.291  0.00  0.00    +0.067 A 
ATOM      3  C   UNL     1      -4.363   2.630   1.241  0.00  0.00    +0.113 A 
ATOM      4  N   UNL     1      -5.030   2.306   2.398  0.00  0.00    -0.295 N 
ATOM      5  H   UNL     1      -5.878   1.606   2.367  0.00  0.00    +0.172 HD
ATOM      6  C   UNL     1      -4.651   2.840   3.574  0.00  0.00    +0.328 A 
ATOM      7  O   UNL     1      -5.252   2.544   4.588  0.00  0.00    -0.247 OA
ATOM      8  N   UNL     1      -3.617   3.698   3.643  0.00  0.00    -0.275 N 
ATOM      9  H   UNL     1      -3.322   4.127   4.612  0.00  0.00    +0.173 HD
ATOM     10  C   UNL     1      -2.935   4.040   2.532  0.00  0.00    +0.260 A 
ATOM     11  O   UNL     1      -1.999   4.818   2.602  0.00  0.00    -0.267 OA
ATOM     12  N   UNL     1      -4.762   2.086   0.044  0.00  0.00    -0.304 N 
ATOM     13  C   UNL     1      -4.372   2.656  -1.137  0.00  0.00    +0.017 C 
ATOM     14  C   UNL     1      -3.335   3.507  -1.182  0.00  0.00    +0.065 C 
ATOM     15  C   UNL     1      -5.117   2.323  -2.404  0.00  0.00    +0.061 C 
ATOM     16  H   UNL     1      -5.397   1.188   0.032  0.00  0.00    +0.153 HD
ENDROOT
BRANCH   1  20
ATOM     17  C   UNL     1       1.179   1.786   0.000  0.00  0.00    +0.121 A 
ATOM     18  C   UNL     1      -0.013   1.076   0.008  0.00  0.00    +0.046 A 
ATOM     19  C   UNL     1      -1.218   1.751   0.017  0.00  0.00    +0.008 A 
ATOM     20  C   UNL     1      -1.237   3.133   0.031  0.00  0.00    -0.035 A 
ATOM     21  C   UNL     1      -0.051   3.844   0.023  0.00  0.00    +0.008 A 
ATOM     22  C   UNL     1       1.157   3.174   0.008  0.00  0.00    +0.046 A 
BRANCH  17  23
ATOM     23  O   UNL     1       2.366   1.125  -0.015  0.00  0.00    -0.492 OA
BRANCH  23  25
ATOM     24  C   UNL     1       4.780   1.007  -0.039  0.00  0.00    +0.048 C 
ATOM     25  C   UNL     1       3.553   1.921  -0.022  0.00  0.00    +0.225 C 
ENDBRANCH  23  25
ENDBRANCH  17  23
ENDBRANCH   1  20
BRANCH  14  26
ATOM     26  C   UNL     1      -2.970   4.081  -2.422  0.00  0.00    +0.338 C 
ATOM     27  O   UNL     1      -3.593   3.800  -3.429  0.00  0.00    -0.245 OA
BRANCH  26  28
ATOM     28  O   UNL     1      -1.931   4.939  -2.489  0.00  0.00    -0.457 OA
BRANCH  28  29
ATOM     29  C   UNL     1      -1.617   5.480  -3.774  0.00  0.00    +0.259 C 
BRANCH  29  30
ATOM     30  C   UNL     1      -0.438   6.410  -3.653  0.00  0.00    +0.006 C 
ATOM     31  C   UNL     1       0.537   6.348  -4.526  0.00  0.00    +0.007 C 
ENDBRANCH  29  30
ENDBRANCH  28  29
ENDBRANCH  26  28
ENDBRANCH  14  26
TORSDOF 7
