REMARK  Name = ZINC59170991
REMARK  3 active torsions:
REMARK  status: ('A' for Active; 'I' for Inactive)
REMARK    1  A    between atoms: C_3  and  N_8
REMARK    2  A    between atoms: C_10  and  C_20
REMARK    3  A    between atoms: C_20  and  N_22
REMARK                            x       y       z     vdW  Elec       q    Type
REMARK                         _______ _______ _______ _____ _____    ______ ____
ROOT
ATOM      1  N   UNL     1       3.493   2.524   0.169  0.00  0.00    -0.325 N 
ATOM      2  C   UNL     1       4.463   1.957   0.852  0.00  0.00    +0.209 A 
ATOM      3  C   UNL     1       5.861   2.414   0.710  0.00  0.00    +0.064 A 
ATOM      4  C   UNL     1       6.705   2.212   1.795  0.00  0.00    +0.027 A 
ATOM      5  C   UNL     1       6.135   1.567   2.980  0.00  0.00    +0.019 A 
ATOM      6  C   UNL     1       6.826   1.568   4.197  0.00  0.00    +0.026 A 
ATOM      7  C   UNL     1       6.267   0.957   5.298  0.00  0.00    +0.019 A 
ATOM      8  C   UNL     1       5.024   0.344   5.205  0.00  0.00    +0.019 A 
ATOM      9  C   UNL     1       4.332   0.335   4.011  0.00  0.00    +0.048 A 
ATOM     10  C   UNL     1       4.877   0.942   2.889  0.00  0.00    +0.137 A 
ATOM     11  O   UNL     1       4.211   0.938   1.712  0.00  0.00    -0.439 OA
ATOM     12 BR   UNL     1       7.196   0.953   6.945  0.00  0.00    -0.050 Br
ATOM     13  H   UNL     1       3.672   3.313  -0.365  0.00  0.00    +0.169 HD
ENDROOT
BRANCH   1  16
ATOM     14  C   UNL     1      -0.144   2.307   0.421  0.00  0.00    +0.003 A 
ATOM     15  C   UNL     1       1.127   2.841   0.378  0.00  0.00    +0.026 A 
ATOM     16  C   UNL     1       2.230   2.000   0.212  0.00  0.00    +0.043 A 
ATOM     17  C   UNL     1       2.037   0.622   0.091  0.00  0.00    +0.041 A 
ATOM     18  C   UNL     1       0.760   0.101   0.135  0.00  0.00    +0.020 A 
ATOM     19  C   UNL     1      -0.328   0.941   0.300  0.00  0.00    +0.015 A 
ATOM     20 BR   UNL     1       0.496  -1.764  -0.029  0.00  0.00    -0.050 Br
ENDBRANCH   1  16
BRANCH   3  21
ATOM     21  C   UNL     1       6.338   3.053  -0.526  0.00  0.00    +0.082 C 
ATOM     22  S   UNL     1       5.313   3.143  -1.894  0.00  0.00    -0.035 S 
BRANCH  21  23
ATOM     23  N   UNL     1       7.582   3.568  -0.581  0.00  0.00    -0.352 N 
ATOM     24  H   UNL     1       8.163   3.517   0.194  0.00  0.00    +0.143 HD
ATOM     25  H   UNL     1       7.897   3.989  -1.396  0.00  0.00    +0.143 HD
ENDBRANCH  21  23
ENDBRANCH   3  21
TORSDOF 3
