REMARK  Name = ZINC43255002
REMARK  7 active torsions:
REMARK  status: ('A' for Active; 'I' for Inactive)
REMARK    1  A    between atoms: C_6  and  C_11
REMARK    2  A    between atoms: C_11  and  N_12
REMARK    3  A    between atoms: C_20  and  C_21
REMARK    4  A    between atoms: C_21  and  C_23
REMARK    5  A    between atoms: C_21  and  N_31
REMARK    6  A    between atoms: C_23  and  C_24
REMARK    7  A    between atoms: C_27  and  O_30
REMARK                            x       y       z     vdW  Elec       q    Type
REMARK                         _______ _______ _______ _____ _____    ______ ____
ROOT
ATOM      1  N   UNL     1       5.450  -2.942   1.315  0.00  0.00    -0.324 N 
ATOM      2  C   UNL     1       6.226  -2.099   2.085  0.00  0.00    +0.069 A 
ATOM      3  C   UNL     1       6.809  -0.857   1.872  0.00  0.00    +0.028 A 
ATOM      4  C   UNL     1       7.546  -0.268   2.877  0.00  0.00    +0.002 A 
ATOM      5  C   UNL     1       7.709  -0.907   4.097  0.00  0.00    +0.002 A 
ATOM      6  C   UNL     1       7.144  -2.129   4.325  0.00  0.00    +0.030 A 
ATOM      7  C   UNL     1       6.391  -2.746   3.322  0.00  0.00    +0.089 A 
ATOM      8  N   UNL     1       5.722  -3.924   3.244  0.00  0.00    -0.234 NA
ATOM      9  C   UNL     1       5.167  -4.036   2.073  0.00  0.00    +0.097 A 
ENDROOT
BRANCH   1  10
ATOM     10  C   UNL     1       5.008  -2.700  -0.060  0.00  0.00    +0.158 C 
BRANCH  10  16
ATOM     11  C   UNL     1      -0.016   1.357   0.009  0.00  0.00    +0.001 A 
ATOM     12  C   UNL     1       1.169   2.091   0.002  0.00  0.00    +0.001 A 
ATOM     13  C   UNL     1       2.378   1.468  -0.013  0.00  0.00    +0.008 A 
ATOM     14  C   UNL     1       2.438   0.063  -0.021  0.00  0.00    -0.018 A 
ATOM     15  C   UNL     1       3.668  -0.615  -0.036  0.00  0.00    +0.014 A 
ATOM     16  C   UNL     1       3.687  -1.976  -0.043  0.00  0.00    -0.027 A 
ATOM     17  C   UNL     1       2.502  -2.710  -0.036  0.00  0.00    +0.006 A 
ATOM     18  C   UNL     1       1.292  -2.087  -0.021  0.00  0.00    +0.009 A 
ATOM     19  C   UNL     1       1.233  -0.683  -0.013  0.00  0.00    -0.018 A 
ATOM     20  C   UNL     1       0.002  -0.004   0.002  0.00  0.00    +0.008 A 
ENDBRANCH  10  16
ENDBRANCH   1  10
BRANCH   9  21
ATOM     21  C   UNL     1       4.334  -5.207   1.620  0.00  0.00    -0.003 C 
BRANCH  21  22
ATOM     22  N   UNL     1       4.999  -6.459   2.007  0.00  0.00    +0.385 N 
ATOM     23  H   UNL     1       5.103  -6.489   3.010  0.00  0.00    -0.089 HD
ATOM     24  H   UNL     1       4.441  -7.244   1.704  0.00  0.00    -0.089 HD
ATOM     25  H   UNL     1       5.908  -6.505   1.573  0.00  0.00    -0.089 HD
ENDBRANCH  21  22
BRANCH  21  26
ATOM     26  C   UNL     1       2.955  -5.138   2.279  0.00  0.00    +0.026 C 
BRANCH  26  27
ATOM     27  C   UNL     1       2.081  -6.238   1.733  0.00  0.00    -0.048 A 
ATOM     28  C   UNL     1       1.307  -6.012   0.610  0.00  0.00    +0.007 A 
ATOM     29  C   UNL     1       0.505  -7.019   0.108  0.00  0.00    +0.045 A 
ATOM     30  C   UNL     1       0.478  -8.258   0.732  0.00  0.00    +0.117 A 
ATOM     31  C   UNL     1       1.256  -8.482   1.858  0.00  0.00    +0.045 A 
ATOM     32  C   UNL     1       2.060  -7.474   2.353  0.00  0.00    +0.007 A 
BRANCH  30  33
ATOM     33  O   UNL     1      -0.310  -9.250   0.240  0.00  0.00    -0.507 OA
ATOM     34  H   UNL     1       0.126  -9.810  -0.416  0.00  0.00    +0.292 HD
ENDBRANCH  30  33
ENDBRANCH  26  27
ENDBRANCH  21  26
ENDBRANCH   9  21
TORSDOF 7
