REMARK  Name = ZINC36628992
REMARK  7 active torsions:
REMARK  status: ('A' for Active; 'I' for Inactive)
REMARK    1  A    between atoms: C_1  and  N_2
REMARK    2  A    between atoms: C_8  and  N_13
REMARK    3  A    between atoms: C_9  and  C_10
REMARK    4  A    between atoms: C_14  and  C_16
REMARK    5  A    between atoms: C_16  and  C_17
REMARK    6  A    between atoms: C_17  and  C_18
REMARK    7  A    between atoms: C_17  and  C_24
REMARK                            x       y       z     vdW  Elec       q    Type
REMARK                         _______ _______ _______ _____ _____    ______ ____
ROOT
ATOM      1  N   UNL     1       0.193  -5.730   3.376  0.00  0.00    -0.279 N 
ATOM      2  C   UNL     1       1.449  -6.036   3.755  0.00  0.00    +0.218 C 
ATOM      3  O   UNL     1       2.304  -5.176   3.772  0.00  0.00    -0.275 OA
ATOM      4  H   UNL     1      -0.491  -6.418   3.362  0.00  0.00    +0.155 HD
ENDROOT
BRANCH   1  12
ATOM      5  C   UNL     1      -1.059   1.553   1.225  0.00  0.00    -0.096 C 
ATOM      6  N   UNL     1      -1.143   0.090   1.318  0.00  0.00    +0.381 N 
ATOM      7  C   UNL     1      -2.410  -0.288   1.958  0.00  0.00    -0.074 C 
ATOM      8  C   UNL     1      -2.662  -1.789   1.786  0.00  0.00    +0.018 C 
ATOM      9  C   UNL     1      -1.418  -2.529   2.257  0.00  0.00    -0.027 A 
ATOM     10  C   UNL     1      -0.246  -1.869   2.395  0.00  0.00    -0.021 A 
ATOM     11  S   UNL     1       0.895  -3.096   2.955  0.00  0.00    -0.079 S 
ATOM     12  C   UNL     1      -0.123  -4.432   3.005  0.00  0.00    +0.084 A 
ATOM     13  C   UNL     1      -1.351  -3.938   2.591  0.00  0.00    +0.068 A 
ATOM     14  C   UNL     1      -0.013  -0.417   2.119  0.00  0.00    -0.036 C 
ATOM     15  H   UNL     1      -1.103  -0.309   0.392  0.00  0.00    -0.082 HD
BRANCH  13  16
ATOM     16  C   UNL     1      -2.531  -4.804   2.496  0.00  0.00    +0.244 C 
ATOM     17  O   UNL     1      -2.773  -5.388   1.456  0.00  0.00    -0.270 OA
ATOM     18  N   UNL     1      -3.346  -4.952   3.558  0.00  0.00    -0.325 N 
ATOM     19  H   UNL     1      -3.152  -4.486   4.387  0.00  0.00    +0.145 HD
ATOM     20  H   UNL     1      -4.126  -5.525   3.495  0.00  0.00    +0.145 HD
ENDBRANCH  13  16
ENDBRANCH   1  12
BRANCH   2  21
ATOM     21  C   UNL     1       1.792  -7.447   4.158  0.00  0.00    +0.109 C 
BRANCH  21  22
ATOM     22  C   UNL     1       3.272  -7.523   4.540  0.00  0.00    +0.058 C 
BRANCH  22  23
ATOM     23  C   UNL     1       3.586  -8.903   5.059  0.00  0.00    -0.040 A 
ATOM     24  C   UNL     1       4.212  -9.055   6.282  0.00  0.00    +0.004 A 
ATOM     25  C   UNL     1       4.501 -10.320   6.758  0.00  0.00    +0.000 A 
ATOM     26  C   UNL     1       4.163 -11.433   6.012  0.00  0.00    +0.000 A 
ATOM     27  C   UNL     1       3.536 -11.281   4.789  0.00  0.00    +0.000 A 
ATOM     28  C   UNL     1       3.243 -10.016   4.315  0.00  0.00    +0.004 A 
ENDBRANCH  22  23
BRANCH  22  29
ATOM     29  C   UNL     1       4.119  -7.238   3.327  0.00  0.00    -0.040 A 
ATOM     30  C   UNL     1       3.901  -7.934   2.152  0.00  0.00    +0.004 A 
ATOM     31  C   UNL     1       4.679  -7.672   1.040  0.00  0.00    +0.000 A 
ATOM     32  C   UNL     1       5.674  -6.714   1.102  0.00  0.00    +0.000 A 
ATOM     33  C   UNL     1       5.891  -6.018   2.276  0.00  0.00    +0.000 A 
ATOM     34  C   UNL     1       5.111  -6.277   3.387  0.00  0.00    +0.004 A 
ENDBRANCH  22  29
ENDBRANCH  21  22
ENDBRANCH   2  21
TORSDOF 6
