REMARK  Name = ZINC35639743
REMARK  8 active torsions:
REMARK  status: ('A' for Active; 'I' for Inactive)
REMARK    1  A    between atoms: C_1  and  C_2
REMARK    2  A    between atoms: C_7  and  C_8
REMARK    3  A    between atoms: C_11  and  C_26
REMARK    4  A    between atoms: C_21  and  C_23
REMARK    5  A    between atoms: C_23  and  C_24
REMARK    6  A    between atoms: C_23  and  C_25
REMARK    7  A    between atoms: N_28  and  C_29
REMARK    8  A    between atoms: C_29  and  C_30
REMARK                            x       y       z     vdW  Elec       q    Type
REMARK                         _______ _______ _______ _____ _____    ______ ____
ROOT
ATOM      1  C   UNL     1       0.359  -0.299   2.709  0.00  0.00    +0.250 C 
ATOM      2  O   UNL     1       0.363   0.714   2.038  0.00  0.00    -0.270 OA
ATOM      3  N   UNL     1       0.324  -0.216   4.054  0.00  0.00    -0.255 N 
ATOM      4  C   UNL     1       0.297  -1.342   5.015  0.00  0.00    +0.190 C 
ATOM      5  C   UNL     1      -0.283  -0.687   6.293  0.00  0.00    +0.194 C 
ATOM      6  O   UNL     1       0.295   0.639   6.251  0.00  0.00    -0.353 OA
ATOM      7  C   UNL     1       0.310   1.011   4.864  0.00  0.00    +0.142 C 
ATOM      8  C   UNL     1      -0.944   1.826   4.544  0.00  0.00    +0.074 C 
ATOM      9  C   UNL     1      -0.943   2.194   3.056  0.00  0.00    +0.112 C 
ATOM     10  N   UNL     1       0.321   2.872   2.738  0.00  0.00    -0.301 N 
ATOM     11  C   UNL     1       1.585   2.206   3.080  0.00  0.00    +0.112 C 
ATOM     12  C   UNL     1       1.562   1.838   4.567  0.00  0.00    +0.074 C 
ATOM     13  C   UNL     1       0.321   4.081   2.143  0.00  0.00    +0.218 C 
ATOM     14  O   UNL     1       1.369   4.597   1.818  0.00  0.00    -0.275 OA
ENDROOT
BRANCH   1  21
ATOM     15  C   UNL     1      -1.504  -0.881   0.574  0.00  0.00    +0.044 C 
ATOM     16  C   UNL     1      -0.502  -1.915   1.020  0.00  0.00    -0.038 A 
ATOM     17  C   UNL     1      -0.462  -3.149   0.405  0.00  0.00    +0.004 A 
ATOM     18  C   UNL     1       0.457  -4.099   0.814  0.00  0.00    +0.000 A 
ATOM     19  C   UNL     1       1.342  -3.818   1.839  0.00  0.00    +0.001 A 
ATOM     20  C   UNL     1       1.313  -2.587   2.461  0.00  0.00    +0.013 A 
ATOM     21  C   UNL     1       0.392  -1.622   2.051  0.00  0.00    +0.040 A 
ENDBRANCH   1  21
BRANCH   4  22
ATOM     22  C   UNL     1      -0.603  -2.445   4.520  0.00  0.00    +0.236 C 
ATOM     23  O   UNL     1      -1.548  -2.182   3.806  0.00  0.00    -0.274 OA
ATOM     24  N   UNL     1      -0.359  -3.723   4.871  0.00  0.00    -0.311 N 
ATOM     25  H   UNL     1       0.397  -3.933   5.442  0.00  0.00    +0.149 HD
BRANCH  24  26
ATOM     26  C   UNL     1      -1.234  -4.795   4.390  0.00  0.00    +0.135 C 
BRANCH  26  27
ATOM     27  C   UNL     1      -0.739  -6.138   4.930  0.00  0.00    +0.135 C 
ATOM     28  C   UNL     1      -1.581  -7.285   4.332  0.00  0.00    +0.035 C 
ATOM     29  C   UNL     1      -1.737  -8.245   5.543  0.00  0.00    +0.031 C 
ATOM     30  C   UNL     1      -1.807  -7.233   6.714  0.00  0.00    +0.160 C 
ATOM     31  O   UNL     1      -0.897  -6.178   6.353  0.00  0.00    -0.375 OA
ENDBRANCH  26  27
ENDBRANCH  24  26
ENDBRANCH   4  22
BRANCH  13  32
ATOM     32  C   UNL     1      -0.982   4.792   1.882  0.00  0.00    +0.069 C 
ATOM     33  C   UNL     1      -0.698   6.215   1.398  0.00  0.00    +0.017 C 
ATOM     34  C   UNL     1      -1.769   4.036   0.810  0.00  0.00    +0.017 C 
ENDBRANCH  13  32
TORSDOF 5
