REMARK  Name = ZINC41585561
REMARK  7 active torsions:
REMARK  status: ('A' for Active; 'I' for Inactive)
REMARK    1  A    between atoms: C_1  and  C_2
REMARK    2  A    between atoms: C_4  and  O_35
REMARK    3  A    between atoms: C_5  and  C_21
REMARK    4  A    between atoms: C_11  and  C_12
REMARK    5  A    between atoms: C_13  and  C_14
REMARK    6  A    between atoms: C_21  and  N_22
REMARK    7  A    between atoms: N_25  and  C_28
REMARK                            x       y       z     vdW  Elec       q    Type
REMARK                         _______ _______ _______ _____ _____    ______ ____
ROOT
ATOM      1  C   UNL     1       0.027   1.521   0.035  0.00  0.00    +0.045 C 
ATOM      2  C   UNL     1       0.037   0.014   0.017  0.00  0.00    -0.033 A 
ATOM      3  C   UNL     1       0.044  -0.656  -1.174  0.00  0.00    +0.050 A 
ATOM      4  C   UNL     1       0.054  -2.048  -1.193  0.00  0.00    +0.122 A 
ATOM      5  C   UNL     1       0.056  -2.769  -0.010  0.00  0.00    +0.020 A 
ATOM      6  C   UNL     1       0.049  -2.103   1.210  0.00  0.00    +0.145 A 
ATOM      7  C   UNL     1       0.045  -0.699   1.216  0.00  0.00    +0.071 A 
ATOM      8  C   UNL     1       0.044  -0.291   2.633  0.00  0.00    +0.232 C 
ATOM      9  O   UNL     1       0.037   0.842   3.083  0.00  0.00    -0.283 OA
ATOM     10  C   UNL     1       0.055  -1.554   3.380  0.00  0.00    +0.176 C 
ATOM     11  C   UNL     1       0.058  -1.686   4.739  0.00  0.00    +0.050 C 
ATOM     12  O   UNL     1       0.049  -2.564   2.479  0.00  0.00    -0.451 OA
ENDROOT
BRANCH  11  13
ATOM     13  C   UNL     1       0.069  -2.968   5.321  0.00  0.00    +0.004 C 
ATOM     14  C   UNL     1       0.072  -3.099   6.670  0.00  0.00    +0.008 C 
BRANCH  14  15
ATOM     15  C   UNL     1       0.082  -4.438   7.278  0.00  0.00    -0.025 A 
ATOM     16  C   UNL     1       0.095  -5.579   6.467  0.00  0.00    +0.008 A 
ATOM     17  C   UNL     1       0.106  -6.830   7.046  0.00  0.00    +0.001 A 
ATOM     18  C   UNL     1       0.103  -6.960   8.424  0.00  0.00    +0.000 A 
ATOM     19  C   UNL     1       0.090  -5.836   9.233  0.00  0.00    +0.001 A 
ATOM     20  C   UNL     1       0.086  -4.578   8.670  0.00  0.00    +0.008 A 
ENDBRANCH  14  15
ENDBRANCH  11  13
BRANCH   4  21
ATOM     21  O   UNL     1       0.061  -2.704  -2.381  0.00  0.00    -0.506 OA
ATOM     22  H   UNL     1       0.946  -2.888  -2.724  0.00  0.00    +0.292 HD
ENDBRANCH   4  21
BRANCH   5  23
ATOM     23  C   UNL     1       0.065  -4.276  -0.046  0.00  0.00    -0.035 C 
BRANCH  23  24
ATOM     24  N   UNL     1       1.453  -4.757  -0.055  0.00  0.00    +0.385 N 
ATOM     25  C   UNL     1       2.111  -4.324  -1.294  0.00  0.00    -0.059 C 
ATOM     26  C   UNL     1       3.590  -4.726  -1.253  0.00  0.00    +0.086 C 
ATOM     27  N   UNL     1       3.673  -6.172  -0.994  0.00  0.00    -0.333 N 
ATOM     28  C   UNL     1       2.908  -6.718   0.138  0.00  0.00    +0.086 C 
ATOM     29  C   UNL     1       1.462  -6.223   0.031  0.00  0.00    -0.059 C 
ATOM     30  H   UNL     1       1.946  -4.372   0.737  0.00  0.00    -0.081 HD
BRANCH  27  31
ATOM     31  C   UNL     1       4.457  -7.003  -1.800  0.00  0.00    +0.030 A 
ATOM     32  C   UNL     1       5.082  -6.488  -2.929  0.00  0.00    +0.026 A 
ATOM     33  C   UNL     1       5.857  -7.311  -3.723  0.00  0.00    +0.040 A 
ATOM     34  C   UNL     1       6.010  -8.647  -3.395  0.00  0.00    +0.124 A 
ATOM     35  C   UNL     1       5.388  -9.162  -2.270  0.00  0.00    +0.040 A 
ATOM     36  C   UNL     1       4.617  -8.342  -1.470  0.00  0.00    +0.026 A 
ATOM     37  F   UNL     1       6.768  -9.450  -4.174  0.00  0.00    -0.205 F 
ENDBRANCH  27  31
ENDBRANCH  23  24
ENDBRANCH   5  23
TORSDOF 6
