REMARK  Name = ZINC39355943
REMARK  8 active torsions:
REMARK  status: ('A' for Active; 'I' for Inactive)
REMARK    1  A    between atoms: C_1  and  C_2
REMARK    2  A    between atoms: C_6  and  C_13
REMARK    3  A    between atoms: C_13  and  C_30
REMARK    4  A    between atoms: C_14  and  C_15
REMARK    5  A    between atoms: C_18  and  C_20
REMARK    6  A    between atoms: C_24  and  C_26
REMARK    7  A    between atoms: C_26  and  O_28
REMARK    8  A    between atoms: O_28  and  C_29
REMARK                            x       y       z     vdW  Elec       q    Type
REMARK                         _______ _______ _______ _____ _____    ______ ____
ROOT
ATOM      1  C   UNL     1      -1.841  -5.020   1.050  0.00  0.00    +0.071 C 
ATOM      2  C   UNL     1      -2.454  -6.228   0.964  0.00  0.00    +0.064 C 
ENDROOT
BRANCH   1   8
ATOM      3  C   UNL     1      -0.018   1.503   0.010  0.00  0.00    +0.044 C 
ATOM      4  C   UNL     1       0.002  -0.004   0.002  0.00  0.00    -0.049 C 
ATOM      5  C   UNL     1      -1.178  -0.663   0.004  0.00  0.00    +0.028 C 
ATOM      6  C   UNL     1      -1.166  -2.083   0.015  0.00  0.00    +0.059 C 
ATOM      7  N   UNL     1      -1.983  -3.016  -0.340  0.00  0.00    -0.262 NA
ATOM      8  C   UNL     1      -1.348  -4.336  -0.199  0.00  0.00    +0.214 C 
ATOM      9  N   UNL     1       0.114  -4.069  -0.099  0.00  0.00    -0.279 NA
ATOM     10  C   UNL     1       0.116  -2.732   0.510  0.00  0.00    +0.128 C 
ATOM     11  C   UNL     1       1.398  -1.998   0.230  0.00  0.00    -0.002 C 
ATOM     12  C   UNL     1       1.294  -0.681  -0.014  0.00  0.00    +0.001 C 
ATOM     13  H   UNL     1       0.564  -4.742   0.504  0.00  0.00    +0.125 HD
ENDBRANCH   1   8
BRANCH   2  14
ATOM     14  C   UNL     1      -2.917  -6.871   2.137  0.00  0.00    +0.130 A 
ATOM     15  C   UNL     1      -3.550  -8.097   2.194  0.00  0.00    +0.050 A 
ATOM     16  C   UNL     1      -3.830  -8.344   3.541  0.00  0.00    +0.050 A 
ATOM     17  C   UNL     1      -3.365  -7.274   4.251  0.00  0.00    +0.136 A 
ATOM     18  O   UNL     1      -2.812  -6.396   3.395  0.00  0.00    -0.455 OA
BRANCH  17  19
ATOM     19  C   UNL     1      -3.450  -7.111   5.716  0.00  0.00    +0.018 A 
ATOM     20  C   UNL     1      -4.042  -8.107   6.499  0.00  0.00    +0.011 A 
ATOM     21  C   UNL     1      -4.121  -7.956   7.868  0.00  0.00    +0.001 A 
ATOM     22  C   UNL     1      -3.618  -6.822   8.475  0.00  0.00    +0.015 A 
ATOM     23  C   UNL     1      -3.025  -5.819   7.706  0.00  0.00    +0.060 A 
ATOM     24  C   UNL     1      -2.935  -5.966   6.323  0.00  0.00    +0.026 A 
BRANCH  23  25
ATOM     25  C   UNL     1      -2.487  -4.606   8.357  0.00  0.00    +0.339 C 
ATOM     26  O   UNL     1      -1.972  -3.734   7.686  0.00  0.00    -0.245 OA
BRANCH  25  27
ATOM     27  O   UNL     1      -2.570  -4.467   9.694  0.00  0.00    -0.464 OA
ATOM     28  C   UNL     1      -2.030  -3.269  10.257  0.00  0.00    +0.280 C 
ENDBRANCH  25  27
ENDBRANCH  23  25
ENDBRANCH  17  19
ENDBRANCH   2  14
BRANCH   1  29
ATOM     29  C   UNL     1      -1.662  -4.397   2.326  0.00  0.00    +0.098 C 
ATOM     30  N   UNL     1      -1.520  -3.902   3.339  0.00  0.00    -0.191 NA
ENDBRANCH   1  29
TORSDOF 6
