REMARK  Name = ZINC24656179
REMARK  5 active torsions:
REMARK  status: ('A' for Active; 'I' for Inactive)
REMARK    1  A    between atoms: C_5  and  N_7
REMARK    2  A    between atoms: N_10  and  C_14
REMARK    3  A    between atoms: C_14  and  N_15
REMARK    4  A    between atoms: N_15  and  C_16
REMARK    5  A    between atoms: N_15  and  C_21
REMARK                            x       y       z     vdW  Elec       q    Type
REMARK                         _______ _______ _______ _____ _____    ______ ____
ROOT
ATOM      1  N   UNL     1       0.371   0.676  -1.201  0.00  0.00    -0.292 N 
ATOM      2  C   UNL     1       1.668   1.141  -1.023  0.00  0.00    +0.158 A 
ATOM      3  N   UNL     1       2.715   0.503  -0.567  0.00  0.00    -0.279 N 
ATOM      4  N   UNL     1       3.931   1.139  -0.467  0.00  0.00    -0.289 N 
ATOM      5  C   UNL     1       4.016   2.441  -0.840  0.00  0.00    +0.141 A 
ATOM      6  S   UNL     1       5.369   3.490  -0.824  0.00  0.00    -0.023 S 
ATOM      7  S   UNL     1       2.335   2.764  -1.350  0.00  0.00    -0.028 S 
ATOM      8  H   UNL     1       0.087  -0.318  -0.827  0.00  0.00    +0.154 HD
ATOM      9  H   UNL     1       2.627  -0.550  -0.260  0.00  0.00    +0.189 HD
ENDROOT
BRANCH   1  14
ATOM     10  C   UNL     1      -1.100   3.181  -3.455  0.00  0.00    +0.002 A 
ATOM     11  C   UNL     1      -2.443   3.052  -3.152  0.00  0.00    +0.003 A 
ATOM     12  C   UNL     1      -2.855   2.136  -2.202  0.00  0.00    +0.040 A 
ATOM     13  C   UNL     1      -1.925   1.342  -1.556  0.00  0.00    +0.144 A 
ATOM     14  C   UNL     1      -0.573   1.474  -1.855  0.00  0.00    +0.068 A 
ATOM     15  C   UNL     1      -0.164   2.395  -2.810  0.00  0.00    +0.026 A 
ATOM     16  F   UNL     1      -2.328   0.443  -0.631  0.00  0.00    -0.204 F 
ENDBRANCH   1  14
BRANCH   4  17
ATOM     17  C   UNL     1       5.108   0.427   0.037  0.00  0.00    +0.069 C 
BRANCH  17  18
ATOM     18  N   UNL     1       5.205   0.611   1.491  0.00  0.00    +0.396 N 
ATOM     19  H   UNL     1       5.016   1.672   1.712  0.00  0.00    -0.078 HD
BRANCH  18  20
ATOM     20  C   UNL     1       6.553   0.282   1.974  0.00  0.00    -0.066 C 
ATOM     21  C   UNL     1       6.681   0.643   3.469  0.00  0.00    -0.015 C 
ATOM     22  C   UNL     1       8.129   1.176   3.608  0.00  0.00    -0.002 C 
ATOM     23  C   UNL     1       8.329   1.970   2.294  0.00  0.00    -0.002 C 
ATOM     24  C   UNL     1       7.601   1.126   1.227  0.00  0.00    -0.015 C 
ENDBRANCH  18  20
BRANCH  18  25
ATOM     25  C   UNL     1       4.187  -0.184   2.191  0.00  0.00    -0.066 C 
ATOM     26  C   UNL     1       2.879   0.516   2.566  0.00  0.00    -0.017 C 
ATOM     27  C   UNL     1       3.899   0.166   3.652  0.00  0.00    -0.017 C 
ENDBRANCH  18  25
ENDBRANCH  17  18
ENDBRANCH   4  17
TORSDOF 5
