REMARK  Name = ZINC09150176
REMARK  8 active torsions:
REMARK  status: ('A' for Active; 'I' for Inactive)
REMARK    1  A    between atoms: C_1  and  C_2
REMARK    2  A    between atoms: C_5  and  S_8
REMARK    3  A    between atoms: S_8  and  C_11
REMARK    4  A    between atoms: C_11  and  C_12
REMARK    5  A    between atoms: C_12  and  C_13
REMARK    6  A    between atoms: C_13  and  N_15
REMARK    7  A    between atoms: N_17  and  C_27
REMARK    8  A    between atoms: C_19  and  C_26
REMARK                            x       y       z     vdW  Elec       q    Type
REMARK                         _______ _______ _______ _____ _____    ______ ____
ROOT
ATOM      1  C   UNL     1       0.406   1.177   2.660  0.00  0.00    +0.240 C 
ATOM      2  O   UNL     1       1.475   0.607   2.768  0.00  0.00    -0.274 OA
ENDROOT
BRANCH   1   3
ATOM      3  N   UNL     1      -0.301   1.474   3.745  0.00  0.00    -0.156 NA
ATOM      4  C   UNL     1      -0.713   0.503   4.558  0.00  0.00    +0.166 A 
ATOM      5  N   UNL     1      -0.654  -0.841   4.363  0.00  0.00    -0.324 N 
ATOM      6  C   UNL     1      -1.136  -1.704   5.330  0.00  0.00    +0.060 A 
ATOM      7  C   UNL     1      -1.162  -3.107   5.310  0.00  0.00    -0.024 A 
ATOM      8  C   UNL     1      -1.682  -3.816   6.367  0.00  0.00    +0.025 A 
ATOM      9  C   UNL     1      -2.197  -3.171   7.480  0.00  0.00    +0.042 A 
ATOM     10  C   UNL     1      -2.185  -1.787   7.525  0.00  0.00    +0.037 A 
ATOM     11  C   UNL     1      -1.664  -1.078   6.469  0.00  0.00    +0.041 A 
ATOM     12  S   UNL     1      -1.447   0.649   6.122  0.00  0.00    -0.052 S 
ATOM     13 CL   UNL     1      -2.849  -4.087   8.803  0.00  0.00    -0.083 Cl
ATOM     14  C   UNL     1      -0.611  -3.845   4.117  0.00  0.00    +0.046 C 
ATOM     15  C   UNL     1      -0.077  -1.376   3.127  0.00  0.00    +0.151 C 
ENDBRANCH   1   3
BRANCH   1  16
ATOM     16  C   UNL     1      -0.117   1.546   1.295  0.00  0.00    +0.121 C 
BRANCH  16  17
ATOM     17  C   UNL     1       0.882   1.095   0.228  0.00  0.00    +0.181 C 
BRANCH  17  18
ATOM     18  S   UNL     1       0.253   1.539  -1.415  0.00  0.00    -0.003 S 
ATOM     19  O   UNL     1      -0.902   0.771  -1.721  0.00  0.00    -0.169 OA
ATOM     20  O   UNL     1       0.245   2.952  -1.570  0.00  0.00    -0.169 OA
BRANCH  18  25
ATOM     21  C   UNL     1       4.465  -0.411  -5.270  0.00  0.00    +0.044 C 
ATOM     22  C   UNL     1       3.413   0.076  -4.307  0.00  0.00    -0.050 A 
ATOM     23  C   UNL     1       2.374  -0.758  -3.938  0.00  0.00    +0.005 A 
ATOM     24  C   UNL     1       1.409  -0.311  -3.055  0.00  0.00    +0.027 A 
ATOM     25  C   UNL     1       1.483   0.970  -2.540  0.00  0.00    +0.088 A 
ATOM     26  C   UNL     1       2.519   1.806  -2.913  0.00  0.00    +0.027 A 
ATOM     27  C   UNL     1       3.486   1.357  -3.793  0.00  0.00    +0.005 A 
ENDBRANCH  18  25
ENDBRANCH  17  18
ENDBRANCH  16  17
ENDBRANCH   1  16
TORSDOF 5
