REMARK  Name = ZINC56034516
REMARK  7 active torsions:
REMARK  status: ('A' for Active; 'I' for Inactive)
REMARK    1  A    between atoms: C_1  and  C_2
REMARK    2  A    between atoms: C_4  and  C_15
REMARK    3  A    between atoms: C_6  and  C_12
REMARK    4  A    between atoms: N_9  and  C_11
REMARK    5  A    between atoms: C_12  and  C_13
REMARK    6  A    between atoms: C_12  and  C_14
REMARK    7  A    between atoms: C_21  and  C_23
REMARK                            x       y       z     vdW  Elec       q    Type
REMARK                         _______ _______ _______ _____ _____    ______ ____
ROOT
ATOM      1  C   UNL     1      -1.795   1.043  -0.693  0.00  0.00    +0.068 C 
ATOM      2  C   UNL     1      -1.430  -0.418  -0.649  0.00  0.00    +0.070 A 
ATOM      3  C   UNL     1      -0.668  -1.106  -1.618  0.00  0.00    +0.054 A 
ATOM      4  C   UNL     1      -0.049  -0.724  -2.829  0.00  0.00    +0.051 A 
ATOM      5  C   UNL     1       0.639  -1.702  -3.544  0.00  0.00    +0.037 A 
ATOM      6  C   UNL     1       0.691  -2.997  -3.048  0.00  0.00    +0.047 A 
ATOM      7  N   UNL     1       0.106  -3.327  -1.918  0.00  0.00    -0.232 NA
ATOM      8  C   UNL     1      -0.563  -2.444  -1.190  0.00  0.00    +0.159 A 
ATOM      9  N   UNL     1      -1.248  -2.525  -0.005  0.00  0.00    -0.249 N 
ATOM     10  N   UNL     1      -1.759  -1.256   0.291  0.00  0.00    -0.174 NA
ATOM     11  C   UNL     1      -1.411  -3.730   0.812  0.00  0.00    +0.174 C 
ENDROOT
BRANCH   4  12
ATOM     12  C   UNL     1      -0.129   0.667  -3.322  0.00  0.00    +0.248 C 
ATOM     13  O   UNL     1       0.021   1.595  -2.551  0.00  0.00    -0.270 OA
ATOM     14  N   UNL     1      -0.368   0.907  -4.627  0.00  0.00    -0.294 N 
ATOM     15  C   UNL     1      -0.696  -0.111  -5.642  0.00  0.00    +0.108 C 
ATOM     16  C   UNL     1      -1.461   0.661  -6.745  0.00  0.00    +0.021 C 
ATOM     17  C   UNL     1      -0.705   2.016  -6.760  0.00  0.00    +0.024 C 
ATOM     18  C   UNL     1      -0.352   2.228  -5.272  0.00  0.00    +0.079 C 
BRANCH  18  19
ATOM     19  C   UNL     1       1.042   2.847  -5.155  0.00  0.00    +0.010 C 
ATOM     20  C   UNL     1       1.321   3.246  -3.691  0.00  0.00    +0.005 C 
ATOM     21  C   UNL     1       2.121   4.568  -3.803  0.00  0.00    +0.000 C 
ATOM     22  C   UNL     1       1.438   5.281  -4.996  0.00  0.00    +0.000 C 
ATOM     23  C   UNL     1       1.116   4.141  -5.984  0.00  0.00    +0.005 C 
ENDBRANCH  18  19
ENDBRANCH   4  12
BRANCH   6  24
ATOM     24  C   UNL     1       1.437  -4.051  -3.824  0.00  0.00    +0.032 C 
ATOM     25  C   UNL     1       0.515  -4.646  -4.891  0.00  0.00    +0.014 C 
ATOM     26  C   UNL     1       2.657  -3.421  -4.498  0.00  0.00    +0.014 C 
ENDBRANCH   6  24
TORSDOF 3
