REMARK  Name = ZINC20150825
REMARK  15 active torsions:
REMARK  status: ('A' for Active; 'I' for Inactive)
REMARK    1  A    between atoms: C_1  and  C_2
REMARK    2  A    between atoms: C_2  and  C_4
REMARK    3  A    between atoms: C_8  and  N_10
REMARK    4  A    between atoms: C_15  and  C_31
REMARK    5  A    between atoms: C_18  and  C_23
REMARK    6  A    between atoms: C_18  and  C_27
REMARK    7  A    between atoms: C_23  and  C_24
REMARK    8  A    between atoms: C_24  and  S_25
REMARK    9  A    between atoms: S_25  and  C_26
REMARK   10  A    between atoms: C_27  and  O_29
REMARK   11  A    between atoms: O_29  and  C_30
REMARK   12  A    between atoms: C_34  and  O_39
REMARK   13  A    between atoms: C_36  and  O_37
REMARK   14  A    between atoms: O_37  and  C_38
REMARK   15  A    between atoms: O_39  and  C_40
REMARK                            x       y       z     vdW  Elec       q    Type
REMARK                         _______ _______ _______ _____ _____    ______ ____
ROOT
ATOM      1  N   UNL     1      -2.432  -4.258   0.013  0.00  0.00    -0.210 N 
ATOM      2  C   UNL     1      -1.305  -4.973  -0.088  0.00  0.00    +0.232 C 
ATOM      3  O   UNL     1      -0.189  -4.512  -0.188  0.00  0.00    -0.274 OA
ATOM      4  C   UNL     1      -1.643  -6.447  -0.058  0.00  0.00    +0.111 C 
ATOM      5  C   UNL     1      -1.349  -7.063  -1.442  0.00  0.00    +0.101 C 
ATOM      6  N   UNL     1      -2.542  -7.893  -1.746  0.00  0.00    -0.293 NA
ATOM      7  C   UNL     1      -3.686  -7.080  -1.259  0.00  0.00    +0.130 C 
ATOM      8  C   UNL     1      -3.189  -6.458   0.081  0.00  0.00    +0.120 C 
ATOM      9  C   UNL     1      -3.547  -4.990   0.118  0.00  0.00    +0.232 C 
ATOM     10  O   UNL     1      -4.669  -4.545   0.224  0.00  0.00    -0.274 OA
ATOM     11  H   UNL     1      -2.619  -8.068  -2.736  0.00  0.00    +0.124 HD
ENDROOT
BRANCH   1  16
ATOM     12  C   UNL     1      -2.100  -0.762  -1.122  0.00  0.00    +0.019 A 
ATOM     13  C   UNL     1      -2.468  -0.077   0.041  0.00  0.00    +0.011 A 
ATOM     14  C   UNL     1      -2.817  -0.782   1.174  0.00  0.00    +0.003 A 
ATOM     15  C   UNL     1      -2.805  -2.165   1.165  0.00  0.00    +0.024 A 
ATOM     16  C   UNL     1      -2.442  -2.855   0.015  0.00  0.00    +0.045 A 
ATOM     17  C   UNL     1      -2.094  -2.159  -1.131  0.00  0.00    +0.035 A 
BRANCH  12  19
ATOM     18  C   UNL     1      -1.735   1.493  -2.321  0.00  0.00    +0.091 C 
ATOM     19  C   UNL     1      -1.727  -0.013  -2.334  0.00  0.00    +0.160 C 
ATOM     20  O   UNL     1      -1.414  -0.610  -3.342  0.00  0.00    -0.292 OA
ENDBRANCH  12  19
ENDBRANCH   1  16
BRANCH   5  21
ATOM     21  C   UNL     1      -0.111  -7.920  -1.383  0.00  0.00    +0.012 A 
ATOM     22  C   UNL     1      -0.227  -9.294  -1.287  0.00  0.00    +0.012 A 
ATOM     23  C   UNL     1       0.906 -10.083  -1.233  0.00  0.00    +0.046 A 
ATOM     24  C   UNL     1       2.164  -9.497  -1.275  0.00  0.00    +0.124 A 
ATOM     25  C   UNL     1       2.282  -8.119  -1.371  0.00  0.00    +0.091 A 
ATOM     26  C   UNL     1       1.144  -7.330  -1.431  0.00  0.00    +0.128 A 
BRANCH  26  27
ATOM     27  O   UNL     1       1.257  -5.980  -1.531  0.00  0.00    -0.495 OA
ATOM     28  C   UNL     1       2.579  -5.441  -1.575  0.00  0.00    +0.277 C 
ENDBRANCH  26  27
BRANCH  24  29
ATOM     29  O   UNL     1       3.278 -10.273  -1.221  0.00  0.00    -0.495 OA
ATOM     30  C   UNL     1       3.081 -11.685  -1.122  0.00  0.00    +0.277 C 
ENDBRANCH  24  29
ENDBRANCH   5  21
BRANCH   7  31
ATOM     31  C   UNL     1      -4.886  -7.957  -1.010  0.00  0.00    +0.328 C 
ATOM     32  O   UNL     1      -5.622  -7.723  -0.081  0.00  0.00    -0.249 OA
BRANCH  31  33
ATOM     33  O   UNL     1      -5.136  -8.998  -1.819  0.00  0.00    -0.467 OA
ATOM     34  C   UNL     1      -6.290  -9.787  -1.523  0.00  0.00    +0.280 C 
ENDBRANCH  31  33
ENDBRANCH   7  31
BRANCH   7  35
ATOM     35  C   UNL     1      -4.027  -5.983  -2.269  0.00  0.00    +0.045 C 
BRANCH  35  36
ATOM     36  C   UNL     1      -4.439  -6.622  -3.597  0.00  0.00    +0.071 C 
BRANCH  36  37
ATOM     37  S   UNL     1      -4.843  -5.321  -4.795  0.00  0.00    -0.164 S 
ATOM     38  C   UNL     1      -5.304  -6.232  -6.294  0.00  0.00    +0.084 C 
ENDBRANCH  36  37
ENDBRANCH  35  36
ENDBRANCH   7  35
TORSDOF 10
