REMARK  Name = ZINC04026226
REMARK  8 active torsions:
REMARK  status: ('A' for Active; 'I' for Inactive)
REMARK    1  A    between atoms: C_1  and  C_2
REMARK    2  A    between atoms: C_2  and  C_4
REMARK    3  A    between atoms: C_4  and  O_29
REMARK    4  A    between atoms: C_9  and  C_28
REMARK    5  A    between atoms: C_20  and  O_26
REMARK    6  A    between atoms: C_24  and  C_25
REMARK    7  A    between atoms: O_29  and  C_30
REMARK    8  A    between atoms: C_30  and  C_32
REMARK                            x       y       z     vdW  Elec       q    Type
REMARK                         _______ _______ _______ _____ _____    ______ ____
ROOT
ATOM      1  C   UNL     1      -0.686   1.871   1.667  0.00  0.00    +0.176 C 
ATOM      2  C   UNL     1       0.522   2.326   2.511  0.00  0.00    +0.057 C 
ATOM      3  C   UNL     1       1.772   2.141   1.623  0.00  0.00    +0.009 C 
ATOM      4  C   UNL     1       1.210   2.203   0.172  0.00  0.00    +0.006 C 
ATOM      5  C   UNL     1      -0.112   1.425   0.316  0.00  0.00    +0.018 C 
ATOM      6  C   UNL     1      -1.080   1.679  -0.817  0.00  0.00    +0.011 C 
ATOM      7  C   UNL     1      -1.313   3.154  -1.061  0.00  0.00    +0.005 C 
ATOM      8  C   UNL     1       0.037   3.814  -1.355  0.00  0.00    +0.006 C 
ATOM      9  C   UNL     1       0.924   3.676  -0.125  0.00  0.00    +0.021 C 
ATOM     10  C   UNL     1       2.218   4.432  -0.300  0.00  0.00    -0.003 C 
ATOM     11  C   UNL     1       2.090   5.738  -0.672  0.00  0.00    +0.041 C 
ATOM     12  C   UNL     1       0.678   6.167  -0.886  0.00  0.00    -0.025 C 
ATOM     13  C   UNL     1       0.243   7.265  -0.302  0.00  0.00    +0.009 C 
ATOM     14  C   UNL     1      -1.200   7.685  -0.415  0.00  0.00    +0.138 C 
ATOM     15  C   UNL     1      -2.053   6.414  -0.524  0.00  0.00    +0.036 C 
ATOM     16  C   UNL     1      -1.630   5.653  -1.779  0.00  0.00    +0.014 C 
ATOM     17  C   UNL     1      -0.168   5.271  -1.737  0.00  0.00    -0.002 C 
ATOM     18  C   UNL     1       0.348   5.418  -3.170  0.00  0.00    +0.016 C 
ATOM     19 CL   UNL     1       3.450   6.795  -0.891  0.00  0.00    -0.084 Cl
ATOM     20  C   UNL     1       0.198  -0.072   0.379  0.00  0.00    +0.016 C 
ENDROOT
BRANCH   1  22
ATOM     21  C   UNL     1      -2.819   0.404   1.999  0.00  0.00    +0.090 C 
ATOM     22  C   UNL     1      -1.385   0.718   2.340  0.00  0.00    +0.174 C 
ATOM     23  O   UNL     1      -0.796   0.046   3.153  0.00  0.00    -0.293 OA
ENDBRANCH   1  22
BRANCH  14  24
ATOM     24  O   UNL     1      -1.581   8.425   0.746  0.00  0.00    -0.388 OA
ATOM     25  H   UNL     1      -1.063   9.229   0.888  0.00  0.00    +0.210 HD
ENDBRANCH  14  24
BRANCH   1  26
ATOM     26  O   UNL     1      -1.609   2.976   1.478  0.00  0.00    -0.450 OA
BRANCH  26  27
ATOM     27  C   UNL     1      -2.189   3.480   2.579  0.00  0.00    +0.305 C 
ATOM     28  O   UNL     1      -1.864   3.078   3.671  0.00  0.00    -0.251 OA
ATOM     29  C   UNL     1      -3.245   4.548   2.453  0.00  0.00    +0.136 C 
ENDBRANCH  26  27
ENDBRANCH   1  26
TORSDOF 4
