REMARK  Name = ZINC00682320
REMARK  7 active torsions:
REMARK  status: ('A' for Active; 'I' for Inactive)
REMARK    1  A    between atoms: C_1  and  C_2
REMARK    2  A    between atoms: C_2  and  C_4
REMARK    3  A    between atoms: C_2  and  O_22
REMARK    4  A    between atoms: N_6  and  C_7
REMARK    5  A    between atoms: C_10  and  S_13
REMARK    6  A    between atoms: S_13  and  N_16
REMARK    7  A    between atoms: O_22  and  C_23
REMARK                            x       y       z     vdW  Elec       q    Type
REMARK                         _______ _______ _______ _____ _____    ______ ____
ROOT
ATOM      1  C   UNL     1       2.758   1.043  -0.644  0.00  0.00    +0.258 C 
ATOM      2  O   UNL     1       3.876   1.490  -0.788  0.00  0.00    -0.271 OA
ATOM      3  N   UNL     1       2.342   0.011  -1.405  0.00  0.00    -0.282 N 
ATOM      4  H   UNL     1       1.423  -0.293  -1.349  0.00  0.00    +0.155 HD
ENDROOT
BRANCH   3   5
ATOM      5  C   UNL     1       3.237  -0.622  -2.275  0.00  0.00    +0.034 A 
ATOM      6  C   UNL     1       2.786  -1.133  -3.485  0.00  0.00    +0.025 A 
ATOM      7  C   UNL     1       3.672  -1.752  -4.345  0.00  0.00    +0.030 A 
ATOM      8  C   UNL     1       5.005  -1.871  -3.997  0.00  0.00    +0.109 A 
ATOM      9  C   UNL     1       5.456  -1.368  -2.791  0.00  0.00    +0.030 A 
ATOM     10  C   UNL     1       4.576  -0.744  -1.929  0.00  0.00    +0.025 A 
BRANCH   8  11
ATOM     11  S   UNL     1       6.132  -2.667  -5.094  0.00  0.00    +0.074 S 
ATOM     12  O   UNL     1       5.571  -2.566  -6.396  0.00  0.00    -0.150 OA
ATOM     13  O   UNL     1       7.425  -2.168  -4.780  0.00  0.00    -0.150 OA
BRANCH  11  14
ATOM     14  N   UNL     1       6.139  -4.277  -4.705  0.00  0.00    -0.194 N 
ATOM     15  C   UNL     1       4.994  -5.037  -4.880  0.00  0.00    +0.177 A 
ATOM     16  N   UNL     1       3.812  -4.664  -5.333  0.00  0.00    -0.232 NA
ATOM     17  C   UNL     1       2.819  -5.527  -5.442  0.00  0.00    +0.120 A 
ATOM     18  C   UNL     1       3.034  -6.810  -5.066  0.00  0.00    +0.068 A 
ATOM     19  S   UNL     1       4.743  -6.724  -4.553  0.00  0.00    -0.059 S 
ATOM     20  H   UNL     1       6.945  -4.688  -4.354  0.00  0.00    +0.176 HD
ENDBRANCH  11  14
ENDBRANCH   8  11
ENDBRANCH   3   5
BRANCH   1  22
ATOM     21  C   UNL     1       1.539   0.603   1.470  0.00  0.00    +0.062 C 
ATOM     22  C   UNL     1       1.834   1.641   0.385  0.00  0.00    +0.256 C 
BRANCH  22  23
ATOM     23  O   UNL     1       2.455   2.784   0.976  0.00  0.00    -0.478 OA
BRANCH  23  24
ATOM     24  C   UNL     1       1.632   3.725   1.512  0.00  0.00    +0.141 A 
ATOM     25  C   UNL     1       0.266   3.498   1.574  0.00  0.00    +0.068 A 
ATOM     26  C   UNL     1      -0.569   4.455   2.121  0.00  0.00    +0.063 A 
ATOM     27  C   UNL     1      -0.041   5.640   2.606  0.00  0.00    +0.061 A 
ATOM     28  C   UNL     1       1.322   5.868   2.544  0.00  0.00    +0.045 A 
ATOM     29  C   UNL     1       2.161   4.910   2.004  0.00  0.00    +0.084 A 
ATOM     30 CL   UNL     1       3.872   5.194   1.933  0.00  0.00    -0.080 Cl
ATOM     31 CL   UNL     1      -1.090   6.841   3.291  0.00  0.00    -0.082 Cl
ATOM     32 CL   UNL     1      -2.280   4.172   2.199  0.00  0.00    -0.082 Cl
ENDBRANCH  23  24
ENDBRANCH  22  23
ENDBRANCH   1  22
TORSDOF 6
