REMARK  Name = ZINC28850381
REMARK  12 active torsions:
REMARK  status: ('A' for Active; 'I' for Inactive)
REMARK    1  A    between atoms: C_1  and  C_2
REMARK    2  A    between atoms: C_2  and  O_3
REMARK    3  A    between atoms: O_3  and  C_4
REMARK    4  A    between atoms: C_4  and  C_6
REMARK    5  A    between atoms: C_7  and  C_34
REMARK    6  A    between atoms: C_8  and  C_30
REMARK    7  A    between atoms: C_10  and  N_11
REMARK    8  A    between atoms: C_12  and  C_14
REMARK    9  A    between atoms: C_14  and  S_15
REMARK   10  A    between atoms: S_15  and  C_16
REMARK   11  A    between atoms: C_27  and  C_29
REMARK   12  A    between atoms: N_32  and  C_33
REMARK                            x       y       z     vdW  Elec       q    Type
REMARK                         _______ _______ _______ _____ _____    ______ ____
ROOT
ATOM      1  N   UNL     1      -1.118   5.347   0.042  0.00  0.00    -0.279 N 
ATOM      2  C   UNL     1      -2.454   5.522   0.055  0.00  0.00    +0.228 C 
ATOM      3  O   UNL     1      -3.191   4.559   0.057  0.00  0.00    -0.275 OA
ATOM      4  H   UNL     1      -0.449   6.221   0.040  0.00  0.00    +0.155 HD
ENDROOT
BRANCH   1   9
ATOM      5  C   UNL     1       0.757   3.687   0.015  0.00  0.00    +0.091 A 
ATOM      6  C   UNL     1       1.039   2.329   0.005  0.00  0.00    -0.015 A 
ATOM      7  C   UNL     1      -0.018   1.460   0.010  0.00  0.00    +0.079 A 
ATOM      8  S   UNL     1      -1.425   2.554   0.021  0.00  0.00    -0.068 S 
ATOM      9  C   UNL     1      -0.588   4.072   0.030  0.00  0.00    +0.087 A 
ATOM     10  C   UNL     1       2.460   1.828  -0.011  0.00  0.00    +0.046 C 
BRANCH   7  11
ATOM     11  C   UNL     1       0.002  -0.004   0.002  0.00  0.00    +0.251 C 
ATOM     12  O   UNL     1       1.064  -0.598  -0.011  0.00  0.00    -0.270 OA
ATOM     13  N   UNL     1      -1.156  -0.694   0.009  0.00  0.00    -0.314 N 
ATOM     14  C   UNL     1      -1.136  -2.159   0.001  0.00  0.00    +0.128 C 
ATOM     15  H   UNL     1      -2.116  -0.157   0.021  0.00  0.00    +0.149 HD
ENDBRANCH   7  11
BRANCH   5  16
ATOM     16  C   UNL     1       1.832   4.685   0.010  0.00  0.00    +0.342 C 
ATOM     17  O   UNL     1       2.268   5.105  -1.045  0.00  0.00    -0.245 OA
BRANCH  16  18
ATOM     18  O   UNL     1       2.337   5.138   1.176  0.00  0.00    -0.461 OA
BRANCH  18  20
ATOM     19  C   UNL     1       3.840   6.515   2.507  0.00  0.00    +0.048 C 
ATOM     20  C   UNL     1       3.399   6.125   1.095  0.00  0.00    +0.229 C 
ENDBRANCH  18  20
ENDBRANCH  16  18
ENDBRANCH   5  16
ENDBRANCH   1   9
BRANCH   2  21
ATOM     21  C   UNL     1      -3.033   6.913   0.068  0.00  0.00    +0.173 C 
BRANCH  21  22
ATOM     22  S   UNL     1      -4.840   6.815   0.085  0.00  0.00    -0.076 S 
BRANCH  22  23
ATOM     23  C   UNL     1      -5.239   8.532   0.098  0.00  0.00    +0.197 A 
ATOM     24  N   UNL     1      -4.385   9.531   0.095  0.00  0.00    -0.122 NA
ATOM     25  N   UNL     1      -5.013  10.653   0.106  0.00  0.00    -0.129 NA
ATOM     26  C   UNL     1      -6.316  10.437   0.118  0.00  0.00    +0.162 A 
ATOM     27  N   UNL     1      -6.492   9.071   0.107  0.00  0.00    -0.270 N 
ATOM     28  C   UNL     1      -7.761   8.519   0.110  0.00  0.00    +0.058 A 
ATOM     29  C   UNL     1      -7.941   7.142   0.102  0.00  0.00    +0.027 A 
ATOM     30  C   UNL     1      -9.215   6.614   0.104  0.00  0.00    +0.002 A 
ATOM     31  C   UNL     1     -10.325   7.447   0.115  0.00  0.00    +0.001 A 
ATOM     32  C   UNL     1     -10.169   8.815   0.123  0.00  0.00    +0.010 A 
ATOM     33  C   UNL     1      -8.884   9.365   0.121  0.00  0.00    +0.002 A 
ATOM     34  C   UNL     1      -8.686  10.818   0.129  0.00  0.00    -0.038 A 
ATOM     35  C   UNL     1      -7.428  11.312   0.134  0.00  0.00    +0.052 A 
ATOM     36  C   UNL     1      -9.871  11.749   0.141  0.00  0.00    +0.044 C 
ENDBRANCH  22  23
ENDBRANCH  21  22
ENDBRANCH   2  21
TORSDOF 8
