REMARK  Name = ZINC15730283
REMARK  8 active torsions:
REMARK  status: ('A' for Active; 'I' for Inactive)
REMARK    1  A    between atoms: C_1  and  C_2
REMARK    2  A    between atoms: C_10  and  S_15
REMARK    3  A    between atoms: S_15  and  N_18
REMARK    4  A    between atoms: N_18  and  C_19
REMARK    5  A    between atoms: C_22  and  O_27
REMARK    6  A    between atoms: C_24  and  O_25
REMARK    7  A    between atoms: O_25  and  C_26
REMARK    8  A    between atoms: O_27  and  C_28
REMARK                            x       y       z     vdW  Elec       q    Type
REMARK                         _______ _______ _______ _____ _____    ______ ____
ROOT
ATOM      1  S   UNL     1       2.391   4.339  -0.715  0.00  0.00    +0.073 S 
ATOM      2  O   UNL     1       2.140   5.715  -0.463  0.00  0.00    -0.150 OA
ATOM      3  O   UNL     1       3.604   3.703  -0.334  0.00  0.00    -0.150 OA
ENDROOT
BRANCH   1  12
ATOM      4  C   UNL     1       3.554   5.510  -7.621  0.00  0.00    +0.020 C 
ATOM      5  C   UNL     1       3.444   3.985  -7.562  0.00  0.00    +0.057 C 
ATOM      6  C   UNL     1       4.497   3.421  -6.592  0.00  0.00    +0.110 C 
ATOM      7  C   UNL     1       4.131   2.029  -6.173  0.00  0.00    +0.218 C 
ATOM      8  O   UNL     1       4.521   1.087  -6.831  0.00  0.00    -0.275 OA
ATOM      9  N   UNL     1       3.383   1.804  -5.085  0.00  0.00    -0.284 N 
ATOM     10  C   UNL     1       2.738   2.869  -4.438  0.00  0.00    +0.049 A 
ATOM     11  C   UNL     1       2.873   3.052  -3.072  0.00  0.00    +0.053 A 
ATOM     12  C   UNL     1       2.227   4.108  -2.454  0.00  0.00    +0.110 A 
ATOM     13  C   UNL     1       1.458   4.987  -3.195  0.00  0.00    +0.030 A 
ATOM     14  C   UNL     1       1.322   4.813  -4.561  0.00  0.00    +0.018 A 
ATOM     15  C   UNL     1       1.961   3.754  -5.184  0.00  0.00    +0.029 A 
ATOM     16  S   UNL     1       1.804   3.506  -6.923  0.00  0.00    -0.120 S 
ATOM     17  H   UNL     1       3.287   0.902  -4.743  0.00  0.00    +0.155 HD
ENDBRANCH   1  12
BRANCH   1  18
ATOM     18  N   UNL     1       1.165   3.494   0.009  0.00  0.00    -0.213 N 
ATOM     19  H   UNL     1       0.512   3.958   0.555  0.00  0.00    +0.174 HD
BRANCH  18  20
ATOM     20  C   UNL     1       1.072   2.106  -0.166  0.00  0.00    +0.090 A 
ATOM     21  C   UNL     1       2.223   1.338  -0.255  0.00  0.00    +0.032 A 
ATOM     22  C   UNL     1       2.131  -0.030  -0.429  0.00  0.00    +0.048 A 
ATOM     23  C   UNL     1       0.888  -0.638  -0.515  0.00  0.00    +0.124 A 
ATOM     24  C   UNL     1      -0.267   0.125  -0.427  0.00  0.00    +0.093 A 
ATOM     25  C   UNL     1      -0.178   1.496  -0.253  0.00  0.00    +0.146 A 
BRANCH  25  26
ATOM     26  O   UNL     1      -1.309   2.248  -0.173  0.00  0.00    -0.493 OA
ATOM     27  C   UNL     1      -2.555   1.557  -0.275  0.00  0.00    +0.277 C 
ENDBRANCH  25  26
BRANCH  23  28
ATOM     28  O   UNL     1       0.800  -1.985  -0.685  0.00  0.00    -0.495 OA
ATOM     29  C   UNL     1       2.029  -2.709  -0.768  0.00  0.00    +0.277 C 
ENDBRANCH  23  28
ENDBRANCH  18  20
ENDBRANCH   1  18
TORSDOF 5
