REMARK  Name = ZINC16875578
REMARK  11 active torsions:
REMARK  status: ('A' for Active; 'I' for Inactive)
REMARK    1  A    between atoms: C_1  and  C_2
REMARK    2  A    between atoms: C_4  and  C_32
REMARK    3  A    between atoms: C_6  and  C_8
REMARK    4  A    between atoms: N_10  and  C_14
REMARK    5  A    between atoms: C_14  and  N_61
REMARK    6  A    between atoms: C_15  and  N_61
REMARK    7  A    between atoms: C_16  and  C_17
REMARK    8  A    between atoms: C_16  and  N_61
REMARK    9  A    between atoms: C_18  and  C_31
REMARK   10  A    between atoms: N_20  and  C_23
REMARK   11  A    between atoms: C_21  and  C_22
REMARK                            x       y       z     vdW  Elec       q    Type
REMARK                         _______ _______ _______ _____ _____    ______ ____
ROOT
ATOM      1  C   UNL     1       0.827  -0.525   1.100  0.00  0.00    -0.093 C 
ATOM      2  N   UNL     1      -0.025  -0.013   0.006  0.00  0.00    +0.394 N 
ATOM      3  H   UNL     1      -0.987  -0.343   0.150  0.00  0.00    -0.079 HD
ENDROOT
BRANCH   2   4
ATOM      4  C   UNL     1      -0.018   1.465   0.010  0.00  0.00    +0.073 C 
BRANCH   4   7
ATOM      5  C   UNL     1      -1.056   2.611   3.264  0.00  0.00    +0.247 A 
ATOM      6  N   UNL     1      -0.114   2.217   2.457  0.00  0.00    -0.131 NA
ATOM      7  N   UNL     1      -0.704   1.937   1.215  0.00  0.00    -0.240 N 
ATOM      8  C   UNL     1      -2.023   2.192   1.343  0.00  0.00    +0.265 A 
ATOM      9  S   UNL     1      -3.210   2.022   0.120  0.00  0.00    +0.011 S 
ATOM     10  O   UNL     1      -2.235   2.601   2.605  0.00  0.00    -0.412 OA
BRANCH   5  16
ATOM     11  C   UNL     1       1.952   3.314   7.184  0.00  0.00    +0.044 C 
ATOM     12  C   UNL     1       0.578   3.347   6.565  0.00  0.00    -0.049 A 
ATOM     13  C   UNL     1      -0.509   3.749   7.321  0.00  0.00    +0.006 A 
ATOM     14  C   UNL     1      -1.774   3.781   6.761  0.00  0.00    -0.049 A 
ATOM     15  C   UNL     1      -1.958   3.413   5.444  0.00  0.00    +0.016 A 
ATOM     16  C   UNL     1      -0.866   3.007   4.676  0.00  0.00    +0.039 A 
ATOM     17  C   UNL     1       0.407   2.971   5.249  0.00  0.00    +0.016 A 
ATOM     18  C   UNL     1      -2.953   4.220   7.591  0.00  0.00    +0.044 C 
ENDBRANCH   5  16
ENDBRANCH   4   7
ENDBRANCH   2   4
BRANCH   2  19
ATOM     19  C   UNL     1       0.466  -0.517  -1.294  0.00  0.00    -0.037 C 
BRANCH  19  20
ATOM     20  C   UNL     1       0.243  -2.006  -1.354  0.00  0.00    -0.021 A 
ATOM     21  C   UNL     1       1.152  -2.991  -0.956  0.00  0.00    +0.062 A 
ATOM     22  N   UNL     1       0.601  -4.161  -1.154  0.00  0.00    -0.176 NA
ATOM     23  N   UNL     1      -0.675  -3.957  -1.695  0.00  0.00    -0.263 N 
ATOM     24  C   UNL     1      -0.871  -2.627  -1.807  0.00  0.00    +0.038 A 
ATOM     25  C   UNL     1      -2.108  -1.953  -2.343  0.00  0.00    +0.065 C 
ATOM     26  C   UNL     1       2.528  -2.748  -0.391  0.00  0.00    +0.068 C 
BRANCH  23  27
ATOM     27  C   UNL     1      -1.629  -5.004  -2.072  0.00  0.00    +0.130 C 
ATOM     28  C   UNL     1      -1.009  -5.907  -3.151  0.00  0.00    +0.051 C 
ATOM     29  C   UNL     1      -1.863  -7.186  -3.323  0.00  0.00    +0.168 C 
ATOM     30  S   UNL     1      -2.620  -7.393  -1.659  0.00  0.00    -0.029 S 
ATOM     31  O   UNL     1      -4.031  -7.276  -1.776  0.00  0.00    -0.174 OA
ATOM     32  O   UNL     1      -2.062  -8.543  -1.038  0.00  0.00    -0.174 OA
ATOM     33  C   UNL     1      -1.959  -5.885  -0.833  0.00  0.00    +0.192 C 
ENDBRANCH  23  27
ENDBRANCH  19  20
ENDBRANCH   2  19
TORSDOF 6
