REMARK  Name = ZINC13687429
REMARK  8 active torsions:
REMARK  status: ('A' for Active; 'I' for Inactive)
REMARK    1  A    between atoms: C_1  and  C_2
REMARK    2  A    between atoms: C_2  and  C_34
REMARK    3  A    between atoms: C_3  and  C_21
REMARK    4  A    between atoms: C_12  and  O_19
REMARK    5  A    between atoms: C_13  and  O_17
REMARK    6  A    between atoms: O_17  and  C_18
REMARK    7  A    between atoms: O_19  and  C_20
REMARK    8  A    between atoms: C_21  and  N_23
REMARK                            x       y       z     vdW  Elec       q    Type
REMARK                         _______ _______ _______ _____ _____    ______ ____
ROOT
ATOM      1  C   UNL     1      -0.044   1.544   0.002  0.00  0.00    +0.025 C 
ATOM      2  C   UNL     1      -0.018   0.014   0.005  0.00  0.00    +0.040 C 
ATOM      3  C   UNL     1       0.847  -0.529  -1.158  0.00  0.00    +0.181 C 
ATOM      4  N   UNL     1       1.893  -1.455  -0.721  0.00  0.00    -0.268 N 
ATOM      5  C   UNL     1       2.458  -1.048   0.599  0.00  0.00    +0.167 C 
ATOM      6  S   UNL     1       0.893  -0.630   1.476  0.00  0.00    -0.125 S 
ATOM      7  C   UNL     1       3.083  -2.289   1.169  0.00  0.00    -0.001 A 
ATOM      8  C   UNL     1       3.543  -2.634   2.417  0.00  0.00    +0.011 A 
ATOM      9  C   UNL     1       4.101  -3.884   2.634  0.00  0.00    +0.050 A 
ATOM     10  C   UNL     1       4.197  -4.795   1.596  0.00  0.00    +0.162 A 
ATOM     11  C   UNL     1       3.727  -4.463   0.329  0.00  0.00    +0.174 A 
ATOM     12  C   UNL     1       3.157  -3.203   0.110  0.00  0.00    +0.088 A 
ATOM     13  C   UNL     1       2.535  -2.591  -1.069  0.00  0.00    +0.252 C 
ATOM     14  O   UNL     1       2.608  -3.034  -2.199  0.00  0.00    -0.270 OA
ATOM     15  C   UNL     1      -1.437  -0.555  -0.054  0.00  0.00    +0.025 C 
ENDROOT
BRANCH  11  16
ATOM     16  O   UNL     1       3.821  -5.355  -0.689  0.00  0.00    -0.491 OA
ATOM     17  C   UNL     1       2.720  -6.248  -0.874  0.00  0.00    +0.277 C 
ENDBRANCH  11  16
BRANCH  10  18
ATOM     18  O   UNL     1       4.752  -6.017   1.815  0.00  0.00    -0.491 OA
ATOM     19  C   UNL     1       5.215  -6.292   3.139  0.00  0.00    +0.277 C 
ENDBRANCH  10  18
BRANCH   3  20
ATOM     20  C   UNL     1       1.498   0.635  -1.860  0.00  0.00    +0.261 C 
ATOM     21  O   UNL     1       2.656   0.918  -1.621  0.00  0.00    -0.271 OA
BRANCH  20  22
ATOM     22  N   UNL     1       0.806   1.351  -2.740  0.00  0.00    -0.145 NA
ATOM     23  C   UNL     1       1.346   2.440  -3.283  0.00  0.00    +0.198 A 
ATOM     24  N   UNL     1       2.629   2.853  -3.107  0.00  0.00    -0.326 N 
ATOM     25  H   UNL     1       3.301   2.407  -2.568  0.00  0.00    +0.169 HD
ATOM     26  C   UNL     1       2.812   4.026  -3.833  0.00  0.00    +0.065 A 
ATOM     27  C   UNL     1       3.901   4.866  -4.015  0.00  0.00    +0.028 A 
ATOM     28  C   UNL     1       3.779   5.986  -4.814  0.00  0.00    +0.002 A 
ATOM     29  C   UNL     1       2.576   6.274  -5.434  0.00  0.00    +0.002 A 
ATOM     30  C   UNL     1       1.486   5.444  -5.260  0.00  0.00    +0.028 A 
ATOM     31  C   UNL     1       1.598   4.316  -4.459  0.00  0.00    +0.065 A 
ATOM     32  N   UNL     1       0.704   3.311  -4.104  0.00  0.00    -0.326 N 
ATOM     33  H   UNL     1      -0.220   3.244  -4.393  0.00  0.00    +0.169 HD
ENDBRANCH  20  22
ENDBRANCH   3  20
TORSDOF 4
