REMARK  Name = ZINC08927640
REMARK  6 active torsions:
REMARK  status: ('A' for Active; 'I' for Inactive)
REMARK    1  A    between atoms: C_1  and  C_2
REMARK    2  A    between atoms: C_2  and  N_45
REMARK    3  A    between atoms: C_10  and  O_24
REMARK    4  A    between atoms: C_12  and  C_15
REMARK    5  A    between atoms: C_18  and  O_22
REMARK    6  A    between atoms: O_22  and  C_23
REMARK                            x       y       z     vdW  Elec       q    Type
REMARK                         _______ _______ _______ _____ _____    ______ ____
ROOT
ATOM      1  C   UNL     1      -1.951   4.931  -0.129  0.00  0.00    -0.074 C 
ATOM      2  C   UNL     1      -1.129   3.672  -0.418  0.00  0.00    +0.018 C 
ATOM      3  C   UNL     1       0.341   3.999  -0.184  0.00  0.00    -0.027 A 
ATOM      4  C   UNL     1       0.748   5.291  -0.141  0.00  0.00    -0.021 A 
ATOM      5  S   UNL     1       2.494   5.209   0.148  0.00  0.00    -0.080 S 
ATOM      6  C   UNL     1       2.673   3.508   0.213  0.00  0.00    +0.080 A 
ATOM      7  C   UNL     1       1.381   3.006  -0.001  0.00  0.00    +0.067 A 
ATOM      8  C   UNL     1       1.217   1.530  -0.001  0.00  0.00    +0.220 C 
ATOM      9  N   UNL     1       2.297   0.798  -0.016  0.00  0.00    -0.223 NA
ATOM     10  C   UNL     1       3.653   1.321  -0.127  0.00  0.00    +0.224 C 
ATOM     11  N   UNL     1       3.757   2.688   0.414  0.00  0.00    -0.313 N 
ATOM     12  C   UNL     1      -0.115   6.502  -0.309  0.00  0.00    -0.035 C 
ATOM     13  H   UNL     1       4.548   2.993   0.887  0.00  0.00    +0.149 HD
ATOM     14  N   UNL     1      -1.402   6.064  -0.902  0.00  0.00    +0.383 N 
ATOM     15  H   UNL     1      -1.238   5.760  -1.869  0.00  0.00    -0.081 HD
ENDROOT
BRANCH  10  16
ATOM     16  C   UNL     1       4.058   1.335  -1.578  0.00  0.00    -0.004 A 
ATOM     17  C   UNL     1       4.945   2.290  -2.038  0.00  0.00    +0.011 A 
ATOM     18  C   UNL     1       5.321   2.302  -3.368  0.00  0.00    +0.047 A 
ATOM     19  C   UNL     1       4.800   1.361  -4.244  0.00  0.00    +0.134 A 
ATOM     20  C   UNL     1       3.905   0.407  -3.781  0.00  0.00    +0.060 A 
ATOM     21  C   UNL     1       3.535   0.396  -2.449  0.00  0.00    +0.026 A 
ATOM     22 BR   UNL     1       3.191  -0.877  -4.971  0.00  0.00    -0.047 Br
BRANCH  19  23
ATOM     23  O   UNL     1       5.164   1.374  -5.553  0.00  0.00    -0.494 OA
ATOM     24  C   UNL     1       6.089   2.385  -5.959  0.00  0.00    +0.277 C 
ENDBRANCH  19  23
ENDBRANCH  10  16
BRANCH  14  26
ATOM     25  C   UNL     1      -2.715   7.597   0.523  0.00  0.00    -0.017 C 
ATOM     26  C   UNL     1      -2.364   7.187  -0.908  0.00  0.00    -0.082 C 
ENDBRANCH  14  26
BRANCH   8  27
ATOM     27  O   UNL     1      -0.011   0.963   0.007  0.00  0.00    -0.492 OA
ATOM     28  H   UNL     1       0.002  -0.004   0.002  0.00  0.00    +0.294 HD
ENDBRANCH   8  27
TORSDOF 4
