REMARK  Name = ZINC39454219
REMARK  5 active torsions:
REMARK  status: ('A' for Active; 'I' for Inactive)
REMARK    1  A    between atoms: C_1  and  C_2
REMARK    2  A    between atoms: C_2  and  O_3
REMARK    3  A    between atoms: O_3  and  N_4
REMARK    4  A    between atoms: C_13  and  C_19
REMARK    5  A    between atoms: C_19  and  C_20
REMARK                            x       y       z     vdW  Elec       q    Type
REMARK                         _______ _______ _______ _____ _____    ______ ____
ROOT
ATOM      1  N   UNL     1       0.769  -1.889   1.248  0.00  0.00    -0.138 N 
ATOM      2  C   UNL     1      -0.246  -2.576   1.904  0.00  0.00    +0.149 A 
ATOM      3  C   UNL     1      -0.214  -3.951   2.021  0.00  0.00    +0.085 A 
ATOM      4  C   UNL     1       0.906  -4.711   1.438  0.00  0.00    +0.100 A 
ATOM      5  C   UNL     1       1.929  -3.984   0.773  0.00  0.00    +0.070 A 
ATOM      6  C   UNL     1       1.818  -2.518   0.691  0.00  0.00    +0.293 A 
ATOM      7  O   UNL     1       2.679  -1.875   0.120  0.00  0.00    -0.264 OA
ATOM      8  C   UNL     1       3.007  -4.649   0.209  0.00  0.00    +0.025 A 
ATOM      9  C   UNL     1       3.044  -6.048   0.322  0.00  0.00    +0.005 A 
ATOM     10  C   UNL     1       4.097  -6.808  -0.214  0.00  0.00    -0.034 A 
ATOM     11  C   UNL     1       4.082  -8.162  -0.076  0.00  0.00    +0.004 A 
ATOM     12  C   UNL     1       3.045  -8.815   0.585  0.00  0.00    +0.002 A 
ATOM     13  C   UNL     1       1.998  -8.135   1.125  0.00  0.00    +0.028 A 
ATOM     14  C   UNL     1       1.953  -6.732   1.020  0.00  0.00    +0.072 A 
ATOM     15  N   UNL     1       0.948  -6.027   1.537  0.00  0.00    -0.245 NA
ATOM     16  N   UNL     1      -1.228  -4.611   2.688  0.00  0.00    -0.328 N 
ATOM     17  C   UNL     1      -1.967  -3.881   3.729  0.00  0.00    +0.146 C 
ATOM     18  C   UNL     1      -2.471  -2.564   3.126  0.00  0.00    +0.115 C 
ATOM     19  C   UNL     1      -1.324  -1.849   2.462  0.00  0.00    +0.187 C 
ATOM     20  O   UNL     1      -1.324  -0.636   2.404  0.00  0.00    -0.290 OA
ATOM     21 BR   UNL     1      -0.777  -3.503   5.248  0.00  0.00    -0.067 Br
ATOM     22  H   UNL     1      -1.446  -5.532   2.476  0.00  0.00    +0.147 HD
ENDROOT
BRANCH   1  23
ATOM     23  O   UNL     1       0.693  -0.477   1.160  0.00  0.00    -0.408 OA
BRANCH  23  25
ATOM     24  C   UNL     1      -0.019   1.526   0.010  0.00  0.00    +0.051 C 
ATOM     25  C   UNL     1       0.002  -0.004   0.002  0.00  0.00    +0.257 C 
ENDBRANCH  23  25
ENDBRANCH   1  23
BRANCH  10  26
ATOM     26  C   UNL     1       5.233  -6.130  -0.936  0.00  0.00    +0.071 C 
BRANCH  26  27
ATOM     27  C   UNL     1       6.265  -5.677   0.065  0.00  0.00    -0.043 A 
ATOM     28  C   UNL     1       6.173  -4.419   0.631  0.00  0.00    +0.004 A 
ATOM     29  C   UNL     1       7.120  -4.004   1.548  0.00  0.00    +0.000 A 
ATOM     30  C   UNL     1       8.158  -4.846   1.900  0.00  0.00    +0.000 A 
ATOM     31  C   UNL     1       8.249  -6.104   1.335  0.00  0.00    +0.000 A 
ATOM     32  C   UNL     1       7.300  -6.521   0.420  0.00  0.00    +0.004 A 
ENDBRANCH  26  27
ENDBRANCH  10  26
TORSDOF 4
