REMARK  Name = ZINC54368428
REMARK  5 active torsions:
REMARK  status: ('A' for Active; 'I' for Inactive)
REMARK    1  A    between atoms: C_1  and  C_2
REMARK    2  A    between atoms: C_5  and  C_20
REMARK    3  A    between atoms: C_6  and  O_8
REMARK    4  A    between atoms: O_8  and  S_9
REMARK    5  A    between atoms: S_9  and  C_12
REMARK                            x       y       z     vdW  Elec       q    Type
REMARK                         _______ _______ _______ _____ _____    ______ ____
ROOT
ATOM      1  C   UNL     1      -0.018   1.503   0.010  0.00  0.00    +0.044 C 
ATOM      2  C   UNL     1       0.002  -0.004   0.002  0.00  0.00    -0.047 A 
ATOM      3  C   UNL     1       0.006  -0.686  -1.204  0.00  0.00    +0.004 A 
ATOM      4  C   UNL     1       0.024  -2.064  -1.224  0.00  0.00    +0.017 A 
ATOM      5  C   UNL     1       0.040  -2.777  -0.022  0.00  0.00    +0.081 A 
ATOM      6  C   UNL     1       0.036  -2.084   1.195  0.00  0.00    +0.169 A 
ATOM      7  C   UNL     1       0.023  -0.697   1.196  0.00  0.00    +0.052 A 
ENDROOT
BRANCH   5   8
ATOM      8  C   UNL     1       0.059  -4.252  -0.036  0.00  0.00    +0.245 C 
ATOM      9  O   UNL     1       0.072  -4.870   1.011  0.00  0.00    -0.270 OA
ATOM     10  N   UNL     1       0.062  -4.915  -1.209  0.00  0.00    -0.325 N 
ATOM     11  H   UNL     1       0.051  -4.423  -2.045  0.00  0.00    +0.145 HD
ATOM     12  H   UNL     1       0.075  -5.885  -1.218  0.00  0.00    +0.145 HD
ENDBRANCH   5   8
BRANCH   6  13
ATOM     13  O   UNL     1       0.050  -2.766   2.368  0.00  0.00    -0.342 OA
BRANCH  13  14
ATOM     14  S   UNL     1       1.447  -3.058   2.897  0.00  0.00    +0.151 S 
ATOM     15  O   UNL     1       1.288  -3.943   3.997  0.00  0.00    -0.131 OA
ATOM     16  O   UNL     1       2.249  -3.382   1.769  0.00  0.00    -0.131 OA
BRANCH  14  17
ATOM     17  C   UNL     1       2.083  -1.551   3.550  0.00  0.00    +0.131 A 
ATOM     18  C   UNL     1       2.790  -0.688   2.734  0.00  0.00    +0.050 A 
ATOM     19  C   UNL     1       3.290   0.496   3.247  0.00  0.00    +0.044 A 
ATOM     20  C   UNL     1       3.083   0.816   4.577  0.00  0.00    +0.040 A 
ATOM     21  C   UNL     1       2.375  -0.048   5.393  0.00  0.00    +0.044 A 
ATOM     22  C   UNL     1       1.871  -1.229   4.878  0.00  0.00    +0.050 A 
ATOM     23 CL   UNL     1       2.115   0.352   7.062  0.00  0.00    -0.083 Cl
ATOM     24 CL   UNL     1       4.178   1.580   2.222  0.00  0.00    -0.083 Cl
ENDBRANCH  14  17
ENDBRANCH  13  14
ENDBRANCH   6  13
TORSDOF 4
