REMARK  Name = ZINC62158733
REMARK  9 active torsions:
REMARK  status: ('A' for Active; 'I' for Inactive)
REMARK    1  A    between atoms: C_1  and  C_2
REMARK    2  A    between atoms: C_4  and  O_25
REMARK    3  A    between atoms: C_5  and  C_24
REMARK    4  A    between atoms: C_7  and  S_8
REMARK    5  A    between atoms: S_8  and  N_11
REMARK    6  A    between atoms: N_11  and  C_12
REMARK    7  A    between atoms: C_12  and  C_13
REMARK    8  A    between atoms: C_20  and  C_23
REMARK    9  A    between atoms: O_25  and  C_26
REMARK                            x       y       z     vdW  Elec       q    Type
REMARK                         _______ _______ _______ _____ _____    ______ ____
ROOT
ATOM      1  N   UNL     1       1.176   1.032   2.914  0.00  0.00    -0.186 NA
ATOM      2  H   UNL     1       1.876   0.862   3.564  0.00  0.00    +0.148 HD
ENDROOT
BRANCH   1   3
ATOM      3  S   UNL     1      -0.065  -0.049   2.732  0.00  0.00    +0.059 S 
ATOM      4  O   UNL     1      -1.269   0.703   2.787  0.00  0.00    -0.153 OA
ATOM      5  O   UNL     1       0.202  -1.126   3.619  0.00  0.00    -0.153 OA
BRANCH   3  12
ATOM      6  C   UNL     1       2.238  -1.734   1.734  0.00  0.00    +0.046 C 
ATOM      7  C   UNL     1       1.143  -1.463   0.735  0.00  0.00    -0.021 A 
ATOM      8  C   UNL     1       1.231  -1.980  -0.543  0.00  0.00    +0.051 A 
ATOM      9  C   UNL     1       0.223  -1.731  -1.462  0.00  0.00    +0.123 A 
ATOM     10  C   UNL     1      -0.872  -0.962  -1.096  0.00  0.00    -0.007 A 
ATOM     11  C   UNL     1      -0.956  -0.447   0.183  0.00  0.00    +0.035 A 
ATOM     12  C   UNL     1       0.048  -0.701   1.099  0.00  0.00    +0.109 A 
ATOM     13  C   UNL     1      -1.970  -0.689  -2.092  0.00  0.00    +0.047 C 
BRANCH   9  14
ATOM     14  O   UNL     1       0.307  -2.239  -2.720  0.00  0.00    -0.495 OA
ATOM     15  C   UNL     1       1.463  -3.020  -3.028  0.00  0.00    +0.277 C 
ENDBRANCH   9  14
ENDBRANCH   3  12
ENDBRANCH   1   3
BRANCH   1  16
ATOM     16  C   UNL     1       1.217   2.246   2.094  0.00  0.00    +0.141 C 
BRANCH  16  17
ATOM     17  C   UNL     1       2.192   3.225   2.695  0.00  0.00    -0.031 A 
ATOM     18  C   UNL     1       1.752   4.146   3.635  0.00  0.00    +0.007 A 
ATOM     19  C   UNL     1       2.627   5.051   4.196  0.00  0.00    +0.026 A 
ATOM     20  C   UNL     1       3.965   5.043   3.818  0.00  0.00    +0.047 A 
ATOM     21  C   UNL     1       4.407   4.107   2.865  0.00  0.00    +0.000 A 
ATOM     22  C   UNL     1       3.504   3.196   2.313  0.00  0.00    +0.015 A 
ATOM     23  C   UNL     1       5.839   4.355   2.688  0.00  0.00    +0.030 A 
ATOM     24  C   UNL     1       6.165   5.372   3.501  0.00  0.00    +0.014 A 
ATOM     25  N   UNL     1       5.058   5.796   4.184  0.00  0.00    -0.358 N 
ATOM     26  H   UNL     1       5.045   6.519   4.830  0.00  0.00    +0.166 HD
ATOM     27  C   UNL     1       7.546   5.960   3.640  0.00  0.00    +0.063 C 
ENDBRANCH  16  17
ENDBRANCH   1  16
TORSDOF 5
