REMARK  Name = ZINC50362440
REMARK  5 active torsions:
REMARK  status: ('A' for Active; 'I' for Inactive)
REMARK    1  A    between atoms: C_5  and  C_6
REMARK    2  A    between atoms: C_6  and  C_8
REMARK    3  A    between atoms: C_6  and  N_10
REMARK    4  A    between atoms: C_8  and  N_9
REMARK    5  A    between atoms: C_14  and  C_16
REMARK                            x       y       z     vdW  Elec       q    Type
REMARK                         _______ _______ _______ _____ _____    ______ ____
ROOT
ATOM      1  C   UNL     1      -2.089  -0.570  -0.097  0.00  0.00    -0.018 C 
ENDROOT
BRANCH   1   6
ATOM      2  C   UNL     1      -1.675   1.254  -1.815  0.00  0.00    +0.059 A 
ATOM      3  C   UNL     1      -0.535   1.900  -2.349  0.00  0.00    +0.070 A 
ATOM      4  C   UNL     1       0.539   1.355  -1.748  0.00  0.00    +0.184 A 
ATOM      5  O   UNL     1       0.112   0.420  -0.882  0.00  0.00    -0.454 OA
ATOM      6  C   UNL     1      -1.229   0.355  -0.919  0.00  0.00    +0.092 A 
ATOM      7 BR   UNL     1       2.343   1.827  -2.066  0.00  0.00    -0.007 Br
ATOM      8 BR   UNL     1      -0.524   3.265  -3.658  0.00  0.00    -0.046 Br
ENDBRANCH   1   6
BRANCH   1   9
ATOM      9  N   UNL     1      -1.234  -1.389   0.773  0.00  0.00    +0.387 N 
ATOM     10  C   UNL     1      -1.984  -2.579   1.229  0.00  0.00    -0.078 C 
ATOM     11  C   UNL     1      -1.502  -2.817   2.682  0.00  0.00    -0.020 C 
ATOM     12  C   UNL     1      -1.340  -1.363   3.200  0.00  0.00    -0.017 C 
ATOM     13  C   UNL     1      -0.832  -0.605   1.955  0.00  0.00    -0.065 C 
ATOM     14  H   UNL     1      -0.413  -1.682   0.264  0.00  0.00    -0.080 HD
BRANCH  13  15
ATOM     15  C   UNL     1      -1.467   0.785   1.898  0.00  0.00    -0.025 C 
ATOM     16  C   UNL     1      -0.737   1.657   0.856  0.00  0.00    +0.002 C 
ATOM     17  C   UNL     1      -0.721   3.071   1.488  0.00  0.00    +0.000 C 
ATOM     18  C   UNL     1      -0.484   2.772   2.989  0.00  0.00    +0.000 C 
ATOM     19  C   UNL     1      -1.307   1.494   3.254  0.00  0.00    +0.002 C 
ENDBRANCH  13  15
ENDBRANCH   1   9
BRANCH   1  20
ATOM     20  C   UNL     1      -2.893  -1.480  -1.026  0.00  0.00    -0.094 C 
BRANCH  20  21
ATOM     21  N   UNL     1      -3.961  -2.140  -0.263  0.00  0.00    +0.377 N 
ATOM     22  H   UNL     1      -4.727  -2.364  -0.880  0.00  0.00    -0.090 HD
ATOM     23  H   UNL     1      -3.603  -2.989   0.150  0.00  0.00    -0.090 HD
ATOM     24  H   UNL     1      -4.285  -1.522   0.466  0.00  0.00    -0.090 HD
ENDBRANCH  20  21
ENDBRANCH   1  20
TORSDOF 5
