REMARK  Name = ZINC12777445
REMARK  4 active torsions:
REMARK  status: ('A' for Active; 'I' for Inactive)
REMARK    1  A    between atoms: C_4  and  C_7
REMARK    2  A    between atoms: C_19  and  C_21
REMARK    3  A    between atoms: C_24  and  O_30
REMARK    4  A    between atoms: C_25  and  C_27
REMARK                            x       y       z     vdW  Elec       q    Type
REMARK                         _______ _______ _______ _____ _____    ______ ____
ROOT
ATOM      1  C   UNL     1       3.698  -0.688  -0.038  0.00  0.00    +0.004 A 
ATOM      2  C   UNL     1       4.657  -0.359  -0.935  0.00  0.00    +0.056 A 
ATOM      3  S   UNL     1       5.984  -1.487  -0.553  0.00  0.00    -0.076 S 
ATOM      4  C   UNL     1       5.228  -2.364   0.790  0.00  0.00    +0.117 A 
ATOM      5  C   UNL     1       3.964  -1.760   0.916  0.00  0.00    +0.082 A 
ATOM      6  C   UNL     1       3.123  -2.275   1.947  0.00  0.00    +0.284 A 
ATOM      7  O   UNL     1       2.008  -1.811   2.115  0.00  0.00    -0.265 OA
ATOM      8  N   UNL     1       3.564  -3.279   2.735  0.00  0.00    -0.171 N 
ATOM      9  C   UNL     1       4.820  -3.800   2.532  0.00  0.00    +0.194 A 
ATOM     10  N   UNL     1       5.611  -3.356   1.586  0.00  0.00    -0.214 NA
ATOM     11  S   UNL     1       5.340  -5.120   3.593  0.00  0.00    -0.080 S 
ATOM     12  C   UNL     1       4.534  -4.632   5.159  0.00  0.00    +0.135 C 
ATOM     13  C   UNL     1       3.082  -4.360   4.826  0.00  0.00    +0.079 C 
ATOM     14  N   UNL     1       2.733  -3.764   3.743  0.00  0.00    -0.165 NA
ENDROOT
BRANCH   1  18
ATOM     15  C   UNL     1      -0.017   1.379   0.010  0.00  0.00    +0.000 A 
ATOM     16  C   UNL     1       1.169   2.092   0.002  0.00  0.00    +0.001 A 
ATOM     17  C   UNL     1       2.377   1.427  -0.013  0.00  0.00    +0.008 A 
ATOM     18  C   UNL     1       2.403   0.033  -0.021  0.00  0.00    -0.017 A 
ATOM     19  C   UNL     1       1.205  -0.680  -0.013  0.00  0.00    +0.008 A 
ATOM     20  C   UNL     1       0.002  -0.004   0.002  0.00  0.00    +0.001 A 
ENDBRANCH   1  18
BRANCH  13  21
ATOM     21  C   UNL     1       2.037  -4.792   5.772  0.00  0.00    -0.000 A 
ATOM     22  C   UNL     1       2.394  -5.438   6.962  0.00  0.00    +0.013 A 
ATOM     23  C   UNL     1       1.423  -5.844   7.849  0.00  0.00    +0.047 A 
ATOM     24  C   UNL     1       0.082  -5.615   7.571  0.00  0.00    +0.129 A 
ATOM     25  C   UNL     1      -0.288  -4.968   6.383  0.00  0.00    +0.078 A 
ATOM     26  C   UNL     1       0.695  -4.552   5.486  0.00  0.00    +0.026 A 
BRANCH  25  27
ATOM     27  C   UNL     1      -1.713  -4.724   6.085  0.00  0.00    +0.245 C 
ATOM     28  O   UNL     1      -2.568  -5.084   6.870  0.00  0.00    -0.270 OA
ATOM     29  N   UNL     1      -2.065  -4.103   4.942  0.00  0.00    -0.325 N 
ATOM     30  H   UNL     1      -1.383  -3.816   4.315  0.00  0.00    +0.145 HD
ATOM     31  H   UNL     1      -3.002  -3.943   4.746  0.00  0.00    +0.145 HD
ENDBRANCH  25  27
BRANCH  24  32
ATOM     32  O   UNL     1      -0.871  -6.017   8.449  0.00  0.00    -0.506 OA
ATOM     33  H   UNL     1      -1.099  -5.352   9.114  0.00  0.00    +0.292 HD
ENDBRANCH  24  32
ENDBRANCH  13  21
TORSDOF 4
