REMARK  Name = ZINC14476549
REMARK  12 active torsions:
REMARK  status: ('A' for Active; 'I' for Inactive)
REMARK    1  A    between atoms: C_1  and  C_2
REMARK    2  A    between atoms: C_2  and  C_3
REMARK    3  A    between atoms: C_3  and  N_4
REMARK    4  A    between atoms: N_4  and  C_5
REMARK    5  A    between atoms: N_4  and  S_8
REMARK    6  A    between atoms: C_5  and  C_6
REMARK    7  A    between atoms: C_6  and  C_7
REMARK    8  A    between atoms: S_8  and  C_11
REMARK    9  A    between atoms: C_24  and  C_27
REMARK   10  A    between atoms: C_32  and  O_33
REMARK   11  A    between atoms: O_33  and  C_34
REMARK   12  A    between atoms: C_34  and  C_35
REMARK                            x       y       z     vdW  Elec       q    Type
REMARK                         _______ _______ _______ _____ _____    ______ ____
ROOT
ATOM      1  C   UNL     1       3.605   1.695  -3.295  0.00  0.00    +0.106 A 
ATOM      2  C   UNL     1       3.446   0.513  -3.996  0.00  0.00    +0.030 A 
ATOM      3  C   UNL     1       2.874  -0.579  -3.374  0.00  0.00    +0.025 A 
ATOM      4  C   UNL     1       2.461  -0.488  -2.050  0.00  0.00    +0.031 A 
ATOM      5  C   UNL     1       2.615   0.693  -1.347  0.00  0.00    -0.018 A 
ATOM      6  C   UNL     1       3.193   1.785  -1.981  0.00  0.00    +0.034 A 
ATOM      7  C   UNL     1       2.182   0.855   0.085  0.00  0.00    +0.049 C 
ATOM      8  C   UNL     1       1.154   1.978   0.144  0.00  0.00    -0.023 C 
ATOM      9  C   UNL     1      -0.060   1.487   0.126  0.00  0.00    -0.030 C 
ATOM     10  C   UNL     1      -0.019  -0.029   0.056  0.00  0.00    +0.033 C 
ATOM     11  C   UNL     1       1.391  -0.361   0.599  0.00  0.00    +0.029 C 
ATOM     12  C   UNL     1       1.899  -1.672   0.028  0.00  0.00    +0.108 C 
ATOM     13  N   UNL     1       1.893  -1.609  -1.434  0.00  0.00    -0.336 N 
ATOM     14  H   UNL     1       1.498  -2.323  -1.958  0.00  0.00    +0.147 HD
ENDROOT
BRANCH  12  15
ATOM     15  C   UNL     1       3.317  -1.902   0.485  0.00  0.00    +0.015 A 
ATOM     16  C   UNL     1       4.368  -1.666  -0.380  0.00  0.00    +0.009 A 
ATOM     17  C   UNL     1       5.669  -1.872   0.040  0.00  0.00    +0.001 A 
ATOM     18  C   UNL     1       5.921  -2.325   1.322  0.00  0.00    +0.004 A 
ATOM     19  C   UNL     1       4.873  -2.568   2.188  0.00  0.00    +0.046 A 
ATOM     20  C   UNL     1       3.567  -2.357   1.771  0.00  0.00    +0.126 A 
BRANCH  20  21
ATOM     21  O   UNL     1       2.534  -2.595   2.622  0.00  0.00    -0.487 OA
BRANCH  21  22
ATOM     22  C   UNL     1       2.865  -3.062   3.931  0.00  0.00    +0.264 C 
BRANCH  22  23
ATOM     23  C   UNL     1       1.602  -3.269   4.725  0.00  0.00    -0.010 A 
ATOM     24  C   UNL     1       1.084  -2.235   5.483  0.00  0.00    +0.007 A 
ATOM     25  C   UNL     1      -0.077  -2.424   6.208  0.00  0.00    +0.000 A 
ATOM     26  C   UNL     1      -0.716  -3.650   6.184  0.00  0.00    +0.000 A 
ATOM     27  C   UNL     1      -0.195  -4.686   5.431  0.00  0.00    +0.000 A 
ATOM     28  C   UNL     1       0.964  -4.495   4.702  0.00  0.00    +0.007 A 
ENDBRANCH  22  23
ENDBRANCH  21  22
ENDBRANCH  20  21
ENDBRANCH  12  15
BRANCH   1  29
ATOM     29  S   UNL     1       4.337   3.090  -4.083  0.00  0.00    +0.061 S 
ATOM     30  O   UNL     1       4.139   2.918  -5.480  0.00  0.00    -0.153 OA
ATOM     31  O   UNL     1       3.877   4.239  -3.385  0.00  0.00    -0.153 OA
BRANCH  29  32
ATOM     32  N   UNL     1       5.970   3.000  -3.822  0.00  0.00    -0.177 NA
BRANCH  32  33
ATOM     33  C   UNL     1       6.825   2.287  -4.773  0.00  0.00    +0.109 C 
BRANCH  33  35
ATOM     34  C   UNL     1       8.304   2.537  -6.771  0.00  0.00    +0.005 C 
ATOM     35  C   UNL     1       7.410   3.282  -5.778  0.00  0.00    +0.014 C 
ENDBRANCH  33  35
ENDBRANCH  32  33
BRANCH  32  36
ATOM     36  C   UNL     1       6.558   3.633  -2.639  0.00  0.00    +0.109 C 
BRANCH  36  37
ATOM     37  C   UNL     1       6.691   2.598  -1.519  0.00  0.00    +0.014 C 
ATOM     38  C   UNL     1       7.305   3.259  -0.284  0.00  0.00    +0.005 C 
ENDBRANCH  36  37
ENDBRANCH  32  36
ENDBRANCH  29  32
ENDBRANCH   1  29
TORSDOF 10
