REMARK  Name = ZINC59294118
REMARK  6 active torsions:
REMARK  status: ('A' for Active; 'I' for Inactive)
REMARK    1  A    between atoms: C_4  and  C_7
REMARK    2  A    between atoms: C_10  and  C_12
REMARK    3  A    between atoms: C_13  and  C_14
REMARK    4  A    between atoms: N_16  and  C_17
REMARK    5  A    between atoms: C_17  and  N_19
REMARK    6  A    between atoms: N_19  and  C_20
REMARK                            x       y       z     vdW  Elec       q    Type
REMARK                         _______ _______ _______ _____ _____    ______ ____
ROOT
ATOM      1  C   UNL     1       9.093   0.722   0.463  0.00  0.00    +0.242 C 
ATOM      2  O   UNL     1       9.837  -0.218   0.678  0.00  0.00    -0.270 OA
ATOM      3  N   UNL     1       9.606   1.943   0.209  0.00  0.00    -0.264 N 
ATOM      4  H   UNL     1       9.013   2.692   0.038  0.00  0.00    +0.157 HD
ENDROOT
BRANCH   1   6
ATOM      5  C   UNL     1       7.176  -0.697   0.736  0.00  0.00    +0.051 C 
ATOM      6  C   UNL     1       7.693   0.534   0.480  0.00  0.00    +0.071 C 
BRANCH   5  10
ATOM      7  C   UNL     1       3.619  -0.473   0.629  0.00  0.00    +0.136 A 
ATOM      8  C   UNL     1       3.752  -1.812   0.919  0.00  0.00    +0.050 A 
ATOM      9  C   UNL     1       5.122  -2.078   0.999  0.00  0.00    +0.050 A 
ATOM     10  C   UNL     1       5.776  -0.885   0.753  0.00  0.00    +0.129 A 
ATOM     11  O   UNL     1       4.846   0.067   0.528  0.00  0.00    -0.455 OA
BRANCH   7  15
ATOM     12  C   UNL     1      -0.051   1.599   0.120  0.00  0.00    +0.000 A 
ATOM     13  C   UNL     1       1.147   2.279  -0.011  0.00  0.00    +0.001 A 
ATOM     14  C   UNL     1       2.344   1.612   0.153  0.00  0.00    +0.011 A 
ATOM     15  C   UNL     1       2.343   0.247   0.453  0.00  0.00    +0.017 A 
ATOM     16  C   UNL     1       1.130  -0.432   0.584  0.00  0.00    +0.011 A 
ATOM     17  C   UNL     1      -0.059   0.248   0.417  0.00  0.00    +0.001 A 
ENDBRANCH   7  15
ENDBRANCH   5  10
ENDBRANCH   1   6
BRANCH   3  18
ATOM     18  C   UNL     1      10.941   2.123   0.193  0.00  0.00    +0.141 C 
ATOM     19  S   UNL     1      11.987   0.801   0.495  0.00  0.00    -0.018 S 
BRANCH  18  20
ATOM     20  N   UNL     1      11.454   3.343  -0.061  0.00  0.00    -0.297 N 
ATOM     21  H   UNL     1      10.866   4.073  -0.310  0.00  0.00    +0.154 HD
BRANCH  20  22
ATOM     22  C   UNL     1      12.832   3.556   0.036  0.00  0.00    +0.033 A 
ATOM     23  C   UNL     1      13.485   4.327  -0.918  0.00  0.00    +0.024 A 
ATOM     24  C   UNL     1      14.843   4.540  -0.826  0.00  0.00    +0.010 A 
ATOM     25  C   UNL     1      15.569   3.980   0.229  0.00  0.00    -0.014 A 
ATOM     26  C   UNL     1      14.908   3.209   1.182  0.00  0.00    -0.034 A 
ATOM     27  C   UNL     1      13.549   3.002   1.090  0.00  0.00    +0.027 A 
ATOM     28  C   UNL     1      15.937   2.745   2.184  0.00  0.00    +0.071 C 
ATOM     29  C   UNL     1      17.255   3.319   1.725  0.00  0.00    -0.035 A 
ATOM     30  C   UNL     1      17.013   4.048   0.563  0.00  0.00    -0.014 A 
ATOM     31  C   UNL     1      18.075   4.689  -0.076  0.00  0.00    +0.009 A 
ATOM     32  C   UNL     1      19.349   4.597   0.445  0.00  0.00    +0.001 A 
ATOM     33  C   UNL     1      19.580   3.870   1.599  0.00  0.00    +0.000 A 
ATOM     34  C   UNL     1      18.531   3.232   2.238  0.00  0.00    +0.004 A 
ENDBRANCH  20  22
ENDBRANCH  18  20
ENDBRANCH   3  18
TORSDOF 6
