REMARK  Name = ZINC48839606
REMARK  5 active torsions:
REMARK  status: ('A' for Active; 'I' for Inactive)
REMARK    1  A    between atoms: C_2  and  S_10
REMARK    2  A    between atoms: C_5  and  C_6
REMARK    3  A    between atoms: S_10  and  N_13
REMARK    4  A    between atoms: N_13  and  C_14
REMARK    5  A    between atoms: C_20  and  N_22
REMARK                            x       y       z     vdW  Elec       q    Type
REMARK                         _______ _______ _______ _____ _____    ______ ____
ROOT
ATOM      1  S   UNL     1       1.378   3.907  -0.045  0.00  0.00    +0.060 S 
ATOM      2  O   UNL     1       2.338   4.471  -0.928  0.00  0.00    -0.153 OA
ATOM      3  O   UNL     1       0.007   4.281  -0.071  0.00  0.00    -0.153 OA
ENDROOT
BRANCH   1   5
ATOM      4  C   UNL     1       2.279   1.617  -1.220  0.00  0.00    +0.052 A 
ATOM      5  C   UNL     1       1.429   2.163  -0.292  0.00  0.00    +0.127 A 
ATOM      6  C   UNL     1       0.627   1.341   0.434  0.00  0.00    +0.082 A 
ATOM      7  S   UNL     1       1.004  -0.199  -0.122  0.00  0.00    -0.073 S 
ATOM      8  C   UNL     1       2.239   0.232  -1.333  0.00  0.00    +0.103 A 
ATOM      9 BR   UNL     1      -0.626   1.820   1.767  0.00  0.00    -0.041 Br
BRANCH   8  10
ATOM     10  C   UNL     1       2.984  -0.616  -2.189  0.00  0.00    +0.393 C 
ATOM     11  O   UNL     1       3.800  -0.136  -2.968  0.00  0.00    -0.240 OA
ATOM     12  O   UNL     1       2.814  -1.828  -2.150  0.00  0.00    -0.240 OA
ENDBRANCH   8  10
ENDBRANCH   1   5
BRANCH   1  13
ATOM     13  N   UNL     1       1.919   4.200   1.492  0.00  0.00    -0.188 NA
ATOM     14  H   UNL     1       1.316   4.567   2.157  0.00  0.00    +0.148 HD
BRANCH  13  15
ATOM     15  C   UNL     1       3.309   3.904   1.848  0.00  0.00    +0.062 C 
ATOM     16  C   UNL     1       3.383   2.528   2.515  0.00  0.00    +0.019 C 
ATOM     17  C   UNL     1       2.522   2.528   3.779  0.00  0.00    +0.001 C 
ATOM     18  C   UNL     1       3.038   3.593   4.749  0.00  0.00    -0.001 C 
ATOM     19  C   UNL     1       2.964   4.968   4.082  0.00  0.00    -0.015 C 
ATOM     20  C   UNL     1       3.826   4.969   2.817  0.00  0.00    -0.056 C 
BRANCH  20  21
ATOM     21  N   UNL     1       3.755   6.289   2.177  0.00  0.00    +0.381 N 
ATOM     22  H   UNL     1       2.797   6.493   1.932  0.00  0.00    -0.090 HD
ATOM     23  H   UNL     1       4.095   6.992   2.817  0.00  0.00    -0.090 HD
ATOM     24  H   UNL     1       4.323   6.290   1.343  0.00  0.00    -0.090 HD
ENDBRANCH  20  21
ENDBRANCH  13  15
ENDBRANCH   1  13
TORSDOF 5
