REMARK  Name = ZINC12711085
REMARK  7 active torsions:
REMARK  status: ('A' for Active; 'I' for Inactive)
REMARK    1  A    between atoms: C_1  and  C_2
REMARK    2  A    between atoms: C_2  and  N_61
REMARK    3  A    between atoms: C_6  and  C_8
REMARK    4  A    between atoms: C_8  and  N_9
REMARK    5  A    between atoms: N_9  and  C_10
REMARK    6  A    between atoms: C_10  and  C_11
REMARK    7  A    between atoms: N_28  and  C_29
REMARK                            x       y       z     vdW  Elec       q    Type
REMARK                         _______ _______ _______ _____ _____    ______ ____
ROOT
ATOM      1  N   UNL     1      -1.925  -1.202   1.059  0.00  0.00    -0.282 N 
ATOM      2  C   UNL     1      -3.030  -0.575   1.507  0.00  0.00    +0.307 C 
ATOM      3  O   UNL     1      -3.610   0.220   0.792  0.00  0.00    -0.252 OA
ATOM      4  N   UNL     1      -3.494  -0.830   2.747  0.00  0.00    -0.269 N 
ATOM      5  H   UNL     1      -3.078  -1.519   3.288  0.00  0.00    +0.156 HD
ENDROOT
BRANCH   4   6
ATOM      6  C   UNL     1      -4.575  -0.098   3.254  0.00  0.00    +0.035 A 
ATOM      7  C   UNL     1      -4.738   1.235   2.902  0.00  0.00    +0.026 A 
ATOM      8  C   UNL     1      -5.809   1.953   3.399  0.00  0.00    +0.040 A 
ATOM      9  C   UNL     1      -6.712   1.348   4.257  0.00  0.00    +0.124 A 
ATOM     10  C   UNL     1      -6.547   0.020   4.613  0.00  0.00    +0.040 A 
ATOM     11  C   UNL     1      -5.481  -0.703   4.114  0.00  0.00    +0.026 A 
ATOM     12  F   UNL     1      -7.754   2.054   4.746  0.00  0.00    -0.205 F 
ENDBRANCH   4   6
BRANCH   1  13
ATOM     13  C   UNL     1      -1.226  -2.160   1.920  0.00  0.00    +0.094 C 
BRANCH  13  17
ATOM     14  C   UNL     1      -3.401  -5.049   2.337  0.00  0.00    -0.078 C 
ATOM     15  C   UNL     1      -2.202  -5.278   3.291  0.00  0.00    -0.020 C 
ATOM     16  C   UNL     1      -1.034  -4.585   2.552  0.00  0.00    -0.016 C 
ATOM     17  C   UNL     1      -1.704  -3.577   1.599  0.00  0.00    -0.051 C 
ATOM     18  N   UNL     1      -3.144  -3.691   1.828  0.00  0.00    +0.382 N 
ATOM     19  H   UNL     1      -3.439  -2.997   2.525  0.00  0.00    -0.081 HD
BRANCH  18  21
ATOM     20  C   UNL     1      -5.390  -3.672   0.791  0.00  0.00    -0.017 C 
ATOM     21  C   UNL     1      -3.894  -3.457   0.555  0.00  0.00    -0.082 C 
ENDBRANCH  18  21
ENDBRANCH  13  17
ENDBRANCH   1  13
BRANCH   1  22
ATOM     22  C   UNL     1      -1.421  -0.926  -0.288  0.00  0.00    +0.149 C 
BRANCH  22  23
ATOM     23  C   UNL     1      -0.340   0.122  -0.216  0.00  0.00    +0.035 A 
ATOM     24  C   UNL     1       0.964  -0.254  -0.181  0.00  0.00    +0.020 A 
ATOM     25  C   UNL     1       1.989   0.787  -0.110  0.00  0.00    +0.003 A 
ATOM     26  C   UNL     1       3.350   0.458  -0.071  0.00  0.00    +0.059 A 
ATOM     27  C   UNL     1       4.293   1.459  -0.004  0.00  0.00    +0.167 A 
ATOM     28  C   UNL     1       3.896   2.802   0.025  0.00  0.00    +0.168 A 
ATOM     29  C   UNL     1       2.554   3.136  -0.014  0.00  0.00    +0.075 A 
ATOM     30  C   UNL     1       1.591   2.137  -0.082  0.00  0.00    +0.053 A 
ATOM     31  N   UNL     1       0.247   2.452  -0.121  0.00  0.00    -0.322 N 
ATOM     32  H   UNL     1      -0.026   3.382  -0.102  0.00  0.00    +0.169 HD
ATOM     33  C   UNL     1      -0.687   1.488  -0.185  0.00  0.00    +0.254 A 
ATOM     34  O   UNL     1      -1.864   1.802  -0.223  0.00  0.00    -0.268 OA
ATOM     35  O   UNL     1       5.013   3.583   0.090  0.00  0.00    -0.453 OA
ATOM     36  C   UNL     1       6.072   2.706   0.515  0.00  0.00    +0.466 C 
ATOM     37  O   UNL     1       5.657   1.410   0.044  0.00  0.00    -0.453 OA
ENDBRANCH  22  23
ENDBRANCH   1  22
TORSDOF 6
