REMARK  Name = ZINC37666795
REMARK  15 active torsions:
REMARK  status: ('A' for Active; 'I' for Inactive)
REMARK    1  A    between atoms: C_1  and  C_2
REMARK    2  A    between atoms: C_9  and  C_20
REMARK    3  A    between atoms: C_10  and  N_11
REMARK    4  A    between atoms: N_11  and  C_12
REMARK    5  A    between atoms: C_12  and  C_13
REMARK    6  A    between atoms: C_12  and  C_14
REMARK    7  A    between atoms: C_12  and  C_15
REMARK    8  A    between atoms: C_15  and  C_16
REMARK    9  A    between atoms: C_16  and  C_17
REMARK   10  A    between atoms: C_16  and  C_18
REMARK   11  A    between atoms: C_16  and  C_19
REMARK   12  A    between atoms: C_25  and  O_26
REMARK   13  A    between atoms: O_26  and  C_27
REMARK   14  A    between atoms: C_27  and  C_29
REMARK   15  A    between atoms: C_32  and  C_34
REMARK                            x       y       z     vdW  Elec       q    Type
REMARK                         _______ _______ _______ _____ _____    ______ ____
ROOT
ATOM      1  C   UNL     1      -1.046   1.517  -3.760  0.00  0.00    +0.044 C 
ATOM      2  C   UNL     1      -1.154   0.127  -3.189  0.00  0.00    -0.046 A 
ATOM      3  C   UNL     1      -0.663  -0.974  -3.914  0.00  0.00    +0.021 A 
ATOM      4  C   UNL     1      -0.757  -2.220  -3.407  0.00  0.00    +0.094 A 
ATOM      5  N   UNL     1      -1.331  -2.433  -2.183  0.00  0.00    -0.289 N 
ATOM      6  C   UNL     1      -1.820  -1.376  -1.450  0.00  0.00    +0.117 A 
ATOM      7  C   UNL     1      -1.722  -0.067  -1.968  0.00  0.00    +0.048 A 
ATOM      8  N   UNL     1      -2.319  -1.843  -0.318  0.00  0.00    -0.338 N 
ATOM      9  C   UNL     1      -2.170  -3.180  -0.285  0.00  0.00    +0.090 A 
ATOM     10  C   UNL     1      -1.549  -3.569  -1.454  0.00  0.00    +0.129 A 
ATOM     11  H   UNL     1      -2.727  -1.306   0.380  0.00  0.00    +0.167 HD
ENDROOT
BRANCH   9  12
ATOM     12  C   UNL     1      -2.598  -4.077   0.814  0.00  0.00    +0.044 A 
ATOM     13  C   UNL     1      -3.952  -4.224   1.110  0.00  0.00    +0.014 A 
ATOM     14  C   UNL     1      -4.345  -5.062   2.134  0.00  0.00    +0.001 A 
ATOM     15  C   UNL     1      -3.400  -5.756   2.869  0.00  0.00    +0.004 A 
ATOM     16  C   UNL     1      -2.054  -5.617   2.583  0.00  0.00    +0.047 A 
ATOM     17  C   UNL     1      -1.645  -4.785   1.554  0.00  0.00    +0.141 A 
BRANCH  17  18
ATOM     18  O   UNL     1      -0.323  -4.652   1.269  0.00  0.00    -0.425 OA
BRANCH  18  19
ATOM     19  C   UNL     1       0.358  -3.669   1.879  0.00  0.00    +0.316 C 
ATOM     20  O   UNL     1      -0.183  -2.993   2.722  0.00  0.00    -0.250 OA
BRANCH  19  21
ATOM     21  C   UNL     1       1.796  -3.408   1.512  0.00  0.00    +0.106 C 
ATOM     22  C   UNL     1       2.862  -3.732   2.560  0.00  0.00    +0.024 C 
ATOM     23  C   UNL     1       2.518  -2.275   2.244  0.00  0.00    +0.034 C 
BRANCH  23  24
ATOM     24  C   UNL     1       3.528  -1.475   1.463  0.00  0.00    -0.043 A 
ATOM     25  C   UNL     1       4.625  -2.103   0.904  0.00  0.00    +0.004 A 
ATOM     26  C   UNL     1       5.552  -1.369   0.188  0.00  0.00    +0.000 A 
ATOM     27  C   UNL     1       5.382  -0.006   0.030  0.00  0.00    +0.000 A 
ATOM     28  C   UNL     1       4.285   0.622   0.589  0.00  0.00    +0.000 A 
ATOM     29  C   UNL     1       3.356  -0.113   1.302  0.00  0.00    +0.004 A 
ENDBRANCH  23  24
ENDBRANCH  19  21
ENDBRANCH  18  19
ENDBRANCH  17  18
ENDBRANCH   9  12
BRANCH  10  30
ATOM     30  N   UNL     1      -1.209  -4.872  -1.821  0.00  0.00    -0.323 N 
ATOM     31  H   UNL     1      -1.500  -5.621  -1.278  0.00  0.00    +0.148 HD
BRANCH  30  32
ATOM     32  C   UNL     1      -0.412  -5.108  -3.028  0.00  0.00    +0.028 C 
ATOM     33  C   UNL     1      -1.245  -4.763  -4.264  0.00  0.00    +0.031 C 
ATOM     34  C   UNL     1       0.839  -4.228  -2.993  0.00  0.00    +0.031 C 
BRANCH  32  35
ATOM     35  C   UNL     1       0.001  -6.580  -3.086  0.00  0.00    +0.031 C 
BRANCH  35  36
ATOM     36  C   UNL     1       0.743  -6.952  -1.801  0.00  0.00    -0.036 C 
ATOM     37  C   UNL     1       0.072  -6.269  -0.608  0.00  0.00    +0.010 C 
ATOM     38  C   UNL     1       0.702  -8.470  -1.610  0.00  0.00    +0.010 C 
ATOM     39  C   UNL     1       2.198  -6.491  -1.901  0.00  0.00    +0.010 C 
ENDBRANCH  35  36
ENDBRANCH  32  35
ENDBRANCH  30  32
ENDBRANCH  10  30
TORSDOF 9
