REMARK  Name = ZINC44558982
REMARK  5 active torsions:
REMARK  status: ('A' for Active; 'I' for Inactive)
REMARK    1  A    between atoms: C_6  and  C_7
REMARK    2  A    between atoms: C_10  and  C_12
REMARK    3  A    between atoms: C_12  and  N_13
REMARK    4  A    between atoms: C_18  and  C_20
REMARK    5  A    between atoms: C_20  and  N_21
REMARK                            x       y       z     vdW  Elec       q    Type
REMARK                         _______ _______ _______ _____ _____    ______ ____
ROOT
ATOM      1  C   UNL     1      -1.191  -1.637   0.369  0.00  0.00    +0.135 A 
ATOM      2  C   UNL     1      -1.562  -2.945   0.350  0.00  0.00    +0.050 A 
ATOM      3  C   UNL     1      -2.968  -2.967   0.264  0.00  0.00    +0.046 A 
ATOM      4  C   UNL     1      -3.382  -1.685   0.236  0.00  0.00    +0.120 A 
ATOM      5  O   UNL     1      -2.306  -0.885   0.304  0.00  0.00    -0.458 OA
ENDROOT
BRANCH   1  11
ATOM      6  C   UNL     1       0.437   0.245   0.471  0.00  0.00    +0.012 A 
ATOM      7  C   UNL     1       1.732   0.713   0.550  0.00  0.00    +0.016 A 
ATOM      8  C   UNL     1       2.791  -0.178   0.611  0.00  0.00    +0.018 A 
ATOM      9  C   UNL     1       2.556  -1.542   0.595  0.00  0.00    +0.016 A 
ATOM     10  C   UNL     1       1.266  -2.022   0.516  0.00  0.00    +0.012 A 
ATOM     11  C   UNL     1       0.194  -1.129   0.453  0.00  0.00    +0.017 A 
ATOM     12 BR   UNL     1       4.563   0.472   0.718  0.00  0.00    -0.050 Br
ENDBRANCH   1  11
BRANCH   4  13
ATOM     13  C   UNL     1      -4.815  -1.227   0.146  0.00  0.00    +0.159 C 
BRANCH  13  14
ATOM     14  N   UNL     1      -5.365  -1.074   1.500  0.00  0.00    -0.294 NA
ATOM     15  C   UNL     1      -4.737   0.053   2.200  0.00  0.00    +0.085 C 
ATOM     16  C   UNL     1      -5.227   0.092   3.649  0.00  0.00    +0.015 C 
ATOM     17  C   UNL     1      -6.750   0.243   3.664  0.00  0.00    +0.003 C 
ATOM     18  C   UNL     1      -7.378  -0.917   2.887  0.00  0.00    +0.017 C 
ATOM     19  C   UNL     1      -6.826  -0.927   1.460  0.00  0.00    +0.040 C 
BRANCH  19  20
ATOM     20  C   UNL     1      -7.435  -2.098   0.686  0.00  0.00    -0.067 C 
BRANCH  20  21
ATOM     21  N   UNL     1      -6.974  -3.364   1.270  0.00  0.00    +0.379 N 
ATOM     22  H   UNL     1      -7.347  -3.461   2.202  0.00  0.00    -0.090 HD
ATOM     23  H   UNL     1      -7.291  -4.133   0.699  0.00  0.00    -0.090 HD
ATOM     24  H   UNL     1      -5.965  -3.369   1.309  0.00  0.00    -0.090 HD
ENDBRANCH  20  21
ENDBRANCH  19  20
ENDBRANCH  13  14
ENDBRANCH   4  13
TORSDOF 5
