REMARK  Name = ZINC33936824
REMARK  10 active torsions:
REMARK  status: ('A' for Active; 'I' for Inactive)
REMARK    1  A    between atoms: C_1  and  C_2
REMARK    2  A    between atoms: C_12  and  C_14
REMARK    3  A    between atoms: C_14  and  C_16
REMARK    4  A    between atoms: C_14  and  N_28
REMARK    5  A    between atoms: N_20  and  C_21
REMARK    6  A    between atoms: C_21  and  C_22
REMARK    7  A    between atoms: N_28  and  C_29
REMARK    8  A    between atoms: N_28  and  C_35
REMARK    9  A    between atoms: C_29  and  C_30
REMARK   10  A    between atoms: C_35  and  C_36
REMARK                            x       y       z     vdW  Elec       q    Type
REMARK                         _______ _______ _______ _____ _____    ______ ____
ROOT
ATOM      1  C   UNL     1      -1.859  -3.705   5.530  0.00  0.00    +0.163 C 
ENDROOT
BRANCH   1  13
ATOM      2  C   UNL     1      -7.464  -3.753   2.097  0.00  0.00    +0.046 C 
ATOM      3  C   UNL     1      -7.077  -4.442   3.380  0.00  0.00    -0.026 A 
ATOM      4  C   UNL     1      -7.982  -5.254   4.030  0.00  0.00    +0.005 A 
ATOM      5  C   UNL     1      -7.638  -5.894   5.212  0.00  0.00    +0.001 A 
ATOM      6  C   UNL     1      -6.394  -5.731   5.754  0.00  0.00    +0.010 A 
ATOM      7  C   UNL     1      -5.460  -4.913   5.112  0.00  0.00    -0.001 A 
ATOM      8  C   UNL     1      -5.803  -4.266   3.910  0.00  0.00    +0.052 A 
ATOM      9  N   UNL     1      -4.877  -3.465   3.278  0.00  0.00    -0.322 N 
ATOM     10  H   UNL     1      -5.116  -3.017   2.452  0.00  0.00    +0.169 HD
ATOM     11  C   UNL     1      -3.646  -3.294   3.791  0.00  0.00    +0.254 A 
ATOM     12  O   UNL     1      -2.852  -2.578   3.206  0.00  0.00    -0.268 OA
ATOM     13  C   UNL     1      -3.249  -3.924   4.990  0.00  0.00    +0.042 A 
ATOM     14  C   UNL     1      -4.118  -4.716   5.665  0.00  0.00    +0.021 A 
ENDBRANCH   1  13
BRANCH   1  15
ATOM     15  C   UNL     1      -0.848  -4.043   4.464  0.00  0.00    +0.173 A 
ATOM     16  N   UNL     1      -0.729  -3.474   3.290  0.00  0.00    -0.111 NA
ATOM     17  N   UNL     1       0.249  -4.040   2.671  0.00  0.00    -0.023 NA
ATOM     18  N   UNL     1       0.757  -4.955   3.420  0.00  0.00    -0.044 NA
ATOM     19  N   UNL     1       0.112  -4.984   4.537  0.00  0.00    -0.225 N 
BRANCH  19  20
ATOM     20  C   UNL     1       0.371  -5.877   5.669  0.00  0.00    +0.179 C 
BRANCH  20  21
ATOM     21  C   UNL     1      -0.448  -7.158   5.507  0.00  0.00    +0.140 C 
ATOM     22  C   UNL     1      -0.120  -8.155   6.647  0.00  0.00    +0.035 C 
ATOM     23  C   UNL     1      -1.422  -9.000   6.684  0.00  0.00    +0.031 C 
ATOM     24  C   UNL     1      -2.501  -7.956   6.326  0.00  0.00    +0.160 C 
ATOM     25  O   UNL     1      -1.850  -6.875   5.646  0.00  0.00    -0.375 OA
ENDBRANCH  20  21
ENDBRANCH  19  20
ENDBRANCH   1  15
BRANCH   1  26
ATOM     26  N   UNL     1      -1.703  -2.299   5.924  0.00  0.00    -0.282 NA
BRANCH  26  27
ATOM     27  C   UNL     1      -0.319  -2.015   6.326  0.00  0.00    +0.128 C 
BRANCH  27  28
ATOM     28  C   UNL     1       0.438  -1.445   5.154  0.00  0.00    +0.004 A 
ATOM     29  C   UNL     1       0.226  -0.286   4.484  0.00  0.00    +0.012 A 
ATOM     30  C   UNL     1       1.056   0.039   3.427  0.00  0.00    +0.008 A 
ATOM     31  C   UNL     1       2.057  -0.811   3.093  0.00  0.00    +0.045 A 
ATOM     32  S   UNL     1       1.851  -2.116   4.294  0.00  0.00    -0.100 S 
ENDBRANCH  27  28
ENDBRANCH  26  27
BRANCH  26  33
ATOM     33  C   UNL     1      -2.645  -1.944   6.994  0.00  0.00    +0.117 C 
BRANCH  33  34
ATOM     34  C   UNL     1      -2.579  -0.438   7.254  0.00  0.00    +0.132 C 
ATOM     35  C   UNL     1      -3.739  -0.015   8.181  0.00  0.00    +0.035 C 
ATOM     36  C   UNL     1      -4.169   1.347   7.571  0.00  0.00    +0.031 C 
ATOM     37  C   UNL     1      -3.912   1.089   6.064  0.00  0.00    +0.160 C 
ATOM     38  O   UNL     1      -2.727   0.274   6.020  0.00  0.00    -0.375 OA
ENDBRANCH  33  34
ENDBRANCH  26  33
ENDBRANCH   1  26
TORSDOF 9
