REMARK  Name = ZINC24932906
REMARK  10 active torsions:
REMARK  status: ('A' for Active; 'I' for Inactive)
REMARK    1  A    between atoms: C_1  and  C_2
REMARK    2  A    between atoms: C_4  and  C_16
REMARK    3  A    between atoms: C_5  and  C_15
REMARK    4  A    between atoms: N_6  and  C_7
REMARK    5  A    between atoms: C_16  and  C_18
REMARK    6  A    between atoms: C_18  and  S_19
REMARK    7  A    between atoms: S_19  and  C_20
REMARK    8  A    between atoms: C_22  and  C_32
REMARK    9  A    between atoms: C_23  and  C_31
REMARK   10  A    between atoms: N_24  and  C_25
REMARK                            x       y       z     vdW  Elec       q    Type
REMARK                         _______ _______ _______ _____ _____    ______ ____
ROOT
ATOM      1  C   UNL     1       0.671  -3.237  -1.509  0.00  0.00    +0.175 C 
ATOM      2  O   UNL     1       1.008  -4.291  -1.011  0.00  0.00    -0.291 OA
ENDROOT
BRANCH   1   6
ATOM      3  C   UNL     1      -0.794   1.376   0.085  0.00  0.00    +0.063 C 
ATOM      4  C   UNL     1      -0.338  -0.060   0.035  0.00  0.00    +0.017 A 
ATOM      5  C   UNL     1      -0.115  -0.767  -1.085  0.00  0.00    +0.034 A 
ATOM      6  C   UNL     1       0.312  -2.104  -0.652  0.00  0.00    +0.039 A 
ATOM      7  C   UNL     1       0.306  -2.074   0.730  0.00  0.00    +0.027 A 
ATOM      8  N   UNL     1      -0.080  -0.846   1.120  0.00  0.00    -0.343 N 
ATOM      9  C   UNL     1       0.672  -3.217   1.641  0.00  0.00    +0.064 C 
BRANCH   8  10
ATOM     10  C   UNL     1      -0.208  -0.414   2.514  0.00  0.00    +0.110 C 
ATOM     11  C   UNL     1       1.101  -0.701   3.269  0.00  0.00    +0.049 C 
ATOM     12  C   UNL     1       0.875  -0.551   4.793  0.00  0.00    +0.168 C 
ATOM     13  S   UNL     1      -0.908  -0.960   4.979  0.00  0.00    -0.029 S 
ATOM     14  O   UNL     1      -1.030  -2.199   5.664  0.00  0.00    -0.174 OA
ATOM     15  O   UNL     1      -1.596   0.182   5.472  0.00  0.00    -0.174 OA
ATOM     16  C   UNL     1      -1.351  -1.209   3.208  0.00  0.00    +0.191 C 
ENDBRANCH   8  10
ENDBRANCH   1   6
BRANCH   1  17
ATOM     17  C   UNL     1       0.623  -3.093  -3.008  0.00  0.00    +0.157 C 
BRANCH  17  18
ATOM     18  S   UNL     1       1.120  -4.656  -3.782  0.00  0.00    -0.082 S 
BRANCH  18  19
ATOM     19  C   UNL     1       1.013  -4.330  -5.510  0.00  0.00    +0.148 A 
ATOM     20  N   UNL     1       0.655  -3.190  -6.055  0.00  0.00    -0.338 N 
ATOM     21  C   UNL     1       0.689  -3.308  -7.393  0.00  0.00    +0.034 A 
ATOM     22  C   UNL     1       1.079  -4.558  -7.698  0.00  0.00    +0.037 A 
ATOM     23  N   UNL     1       1.292  -5.214  -6.506  0.00  0.00    -0.321 N 
ATOM     24  C   UNL     1       1.254  -5.131  -9.081  0.00  0.00    +0.065 C 
ATOM     25  C   UNL     1       0.347  -2.225  -8.383  0.00  0.00    +0.065 C 
ATOM     26  H   UNL     1       0.405  -2.389  -5.569  0.00  0.00    +0.168 HD
BRANCH  23  27
ATOM     27  C   UNL     1       1.734  -6.601  -6.342  0.00  0.00    +0.089 C 
ATOM     28  C   UNL     1       3.054  -6.628  -5.569  0.00  0.00    +0.025 C 
ATOM     29  C   UNL     1       3.515  -8.076  -5.397  0.00  0.00    +0.002 C 
ATOM     30  C   UNL     1       2.455  -8.861  -4.622  0.00  0.00    +0.000 C 
ATOM     31  C   UNL     1       1.135  -8.834  -5.395  0.00  0.00    +0.002 C 
ATOM     32  C   UNL     1       0.673  -7.385  -5.567  0.00  0.00    +0.025 C 
ENDBRANCH  23  27
ENDBRANCH  18  19
ENDBRANCH  17  18
ENDBRANCH   1  17
TORSDOF 6
