REMARK  Name = ZINC65487940
REMARK  6 active torsions:
REMARK  status: ('A' for Active; 'I' for Inactive)
REMARK    1  A    between atoms: C_3  and  O_26
REMARK    2  A    between atoms: C_6  and  C_7
REMARK    3  A    between atoms: N_12  and  C_13
REMARK    4  A    between atoms: C_13  and  C_14
REMARK    5  A    between atoms: N_16  and  C_17
REMARK    6  A    between atoms: C_17  and  C_24
REMARK                            x       y       z     vdW  Elec       q    Type
REMARK                         _______ _______ _______ _____ _____    ______ ____
ROOT
ATOM      1  C   UNL     1      -1.293  -0.774   0.011  0.00  0.00    -0.037 C 
ATOM      2  C   UNL     1      -1.605  -1.322  -1.404  0.00  0.00    -0.013 C 
ATOM      3  C   UNL     1      -2.526  -2.527  -1.078  0.00  0.00    -0.020 C 
ATOM      4  C   UNL     1      -1.930  -3.075   0.235  0.00  0.00    -0.077 C 
ATOM      5  N   UNL     1      -1.173  -1.975   0.865  0.00  0.00    +0.390 N 
ATOM      6  H   UNL     1      -0.202  -2.236   0.949  0.00  0.00    -0.080 HD
ENDROOT
BRANCH   1  12
ATOM      7  C   UNL     1      -0.017   1.378   0.010  0.00  0.00    +0.005 A 
ATOM      8  C   UNL     1       1.169   2.087   0.002  0.00  0.00    +0.045 A 
ATOM      9  C   UNL     1       2.380   1.409  -0.013  0.00  0.00    +0.117 A 
ATOM     10  C   UNL     1       2.396   0.022  -0.021  0.00  0.00    +0.045 A 
ATOM     11  C   UNL     1       1.207  -0.681  -0.013  0.00  0.00    +0.005 A 
ATOM     12  C   UNL     1       0.002  -0.004   0.002  0.00  0.00    -0.061 A 
BRANCH   9  13
ATOM     13  O   UNL     1       3.548   2.104  -0.021  0.00  0.00    -0.507 OA
ATOM     14  H   UNL     1       3.895   2.300   0.860  0.00  0.00    +0.292 HD
ENDBRANCH   9  13
ENDBRANCH   1  12
BRANCH   5  15
ATOM     15  C   UNL     1      -1.724  -1.691   2.197  0.00  0.00    +0.019 C 
BRANCH  15  16
ATOM     16  C   UNL     1      -1.488  -2.874   3.100  0.00  0.00    +0.198 C 
ATOM     17  O   UNL     1      -0.918  -3.857   2.676  0.00  0.00    -0.278 OA
ATOM     18  N   UNL     1      -1.911  -2.840   4.379  0.00  0.00    -0.299 N 
ATOM     19  H   UNL     1      -2.368  -2.054   4.718  0.00  0.00    +0.150 HD
BRANCH  18  20
ATOM     20  C   UNL     1      -1.683  -3.990   5.257  0.00  0.00    +0.121 C 
ATOM     21  C   UNL     1      -2.321  -5.241   4.619  0.00  0.00    +0.041 C 
ATOM     22  C   UNL     1      -1.677  -6.463   5.214  0.00  0.00    +0.003 C 
ATOM     23  C   UNL     1      -2.467  -7.023   6.412  0.00  0.00    +0.000 C 
ATOM     24  C   UNL     1      -2.991  -5.919   7.350  0.00  0.00    +0.000 C 
ATOM     25  C   UNL     1      -1.977  -4.832   7.584  0.00  0.00    +0.003 C 
ATOM     26  C   UNL     1      -2.233  -3.696   6.572  0.00  0.00    +0.041 C 
BRANCH  20  27
ATOM     27  C   UNL     1      -0.233  -4.211   5.385  0.00  0.00    +0.088 C 
ATOM     28  N   UNL     1       0.886  -4.381   5.484  0.00  0.00    -0.194 NA
ENDBRANCH  20  27
ENDBRANCH  18  20
ENDBRANCH  15  16
ENDBRANCH   5  15
TORSDOF 6
