REMARK  Name = ZINC01591348
REMARK  10 active torsions:
REMARK  status: ('A' for Active; 'I' for Inactive)
REMARK    1  A    between atoms: C_1  and  C_2
REMARK    2  A    between atoms: C_3  and  C_28
REMARK    3  A    between atoms: C_4  and  C_16
REMARK    4  A    between atoms: C_18  and  O_26
REMARK    5  A    between atoms: C_19  and  O_24
REMARK    6  A    between atoms: C_20  and  O_22
REMARK    7  A    between atoms: O_22  and  C_23
REMARK    8  A    between atoms: O_24  and  C_25
REMARK    9  A    between atoms: O_26  and  C_27
REMARK   10  A    between atoms: C_28  and  C_30
REMARK                            x       y       z     vdW  Elec       q    Type
REMARK                         _______ _______ _______ _____ _____    ______ ____
ROOT
ATOM      1  C   UNL     1       0.329  -6.254  -0.908  0.00  0.00    +0.086 C 
ATOM      2  C   UNL     1      -0.062  -4.905  -0.362  0.00  0.00    +0.110 C 
ATOM      3  C   UNL     1      -1.349  -4.684  -0.046  0.00  0.00    +0.044 C 
ATOM      4  C   UNL     1      -1.804  -3.359   0.500  0.00  0.00    +0.089 C 
ATOM      5  C   UNL     1      -0.762  -2.305   0.228  0.00  0.00    +0.010 A 
ATOM      6  C   UNL     1      -1.105  -0.968   0.322  0.00  0.00    +0.057 A 
ATOM      7  C   UNL     1      -0.160   0.013   0.075  0.00  0.00    +0.167 A 
ATOM      8  C   UNL     1       1.141  -0.349  -0.270  0.00  0.00    +0.170 A 
ATOM      9  C   UNL     1       1.482  -1.687  -0.363  0.00  0.00    +0.096 A 
ATOM     10  C   UNL     1       0.531  -2.669  -0.114  0.00  0.00    +0.136 A 
ATOM     11  O   UNL     1       0.886  -3.974  -0.209  0.00  0.00    -0.460 OA
ATOM     12  O   UNL     1       1.873   0.787  -0.461  0.00  0.00    -0.452 OA
ATOM     13  C   UNL     1       1.120   1.841   0.168  0.00  0.00    +0.466 C 
ATOM     14  O   UNL     1      -0.241   1.376   0.100  0.00  0.00    -0.453 OA
ENDROOT
BRANCH   4  15
ATOM     15  C   UNL     1      -2.018  -3.478   1.986  0.00  0.00    -0.028 A 
ATOM     16  C   UNL     1      -0.966  -3.832   2.809  0.00  0.00    +0.054 A 
ATOM     17  C   UNL     1      -1.158  -3.937   4.178  0.00  0.00    +0.165 A 
ATOM     18  C   UNL     1      -2.414  -3.696   4.722  0.00  0.00    +0.204 A 
ATOM     19  C   UNL     1      -3.471  -3.345   3.891  0.00  0.00    +0.165 A 
ATOM     20  C   UNL     1      -3.269  -3.237   2.523  0.00  0.00    +0.054 A 
BRANCH  19  21
ATOM     21  O   UNL     1      -4.702  -3.107   4.419  0.00  0.00    -0.491 OA
ATOM     22  C   UNL     1      -5.741  -2.751   3.505  0.00  0.00    +0.277 C 
ENDBRANCH  19  21
BRANCH  18  23
ATOM     23  O   UNL     1      -2.608  -3.803   6.065  0.00  0.00    -0.488 OA
ATOM     24  C   UNL     1      -2.997  -5.084   6.564  0.00  0.00    +0.277 C 
ENDBRANCH  18  23
BRANCH  17  25
ATOM     25  O   UNL     1      -0.120  -4.280   4.987  0.00  0.00    -0.491 OA
ATOM     26  C   UNL     1       1.142  -4.514   4.359  0.00  0.00    +0.277 C 
ENDBRANCH  17  25
ENDBRANCH   4  15
BRANCH   3  27
ATOM     27  C   UNL     1      -2.290  -5.712  -0.230  0.00  0.00    +0.160 C 
ATOM     28  O   UNL     1      -1.957  -6.751  -0.765  0.00  0.00    -0.293 OA
ATOM     29  C   UNL     1      -3.711  -5.526   0.236  0.00  0.00    +0.091 C 
ENDBRANCH   3  27
TORSDOF 5
