REMARK  Name = ZINC56155014
REMARK  12 active torsions:
REMARK  status: ('A' for Active; 'I' for Inactive)
REMARK    1  A    between atoms: C_1  and  C_2
REMARK    2  A    between atoms: N_5  and  C_8
REMARK    3  A    between atoms: C_8  and  C_9
REMARK    4  A    between atoms: C_14  and  C_15
REMARK    5  A    between atoms: C_15  and  N_16
REMARK    6  A    between atoms: N_16  and  C_17
REMARK    7  A    between atoms: C_17  and  C_19
REMARK    8  A    between atoms: C_17  and  C_20
REMARK    9  A    between atoms: N_25  and  C_26
REMARK   10  A    between atoms: C_26  and  C_27
REMARK   11  A    between atoms: C_26  and  C_28
REMARK   12  A    between atoms: C_26  and  C_29
REMARK                            x       y       z     vdW  Elec       q    Type
REMARK                         _______ _______ _______ _____ _____    ______ ____
ROOT
ATOM      1  C   UNL     1      -2.307  -3.806   3.848  0.00  0.00    +0.117 C 
ENDROOT
BRANCH   1   7
ATOM      2  C   UNL     1      -0.143  -4.380   2.730  0.00  0.00    -0.060 A 
ATOM      3  C   UNL     1       1.161  -4.838   2.771  0.00  0.00    +0.002 A 
ATOM      4  C   UNL     1       1.718  -5.231   3.973  0.00  0.00    +0.000 A 
ATOM      5  C   UNL     1       0.971  -5.166   5.135  0.00  0.00    +0.000 A 
ATOM      6  C   UNL     1      -0.332  -4.708   5.094  0.00  0.00    +0.005 A 
ATOM      7  C   UNL     1      -0.888  -4.311   3.892  0.00  0.00    -0.032 A 
BRANCH   2   8
ATOM      8  C   UNL     1      -0.750  -3.952   1.419  0.00  0.00    -0.043 C 
BRANCH   8  13
ATOM      9  C   UNL     1      -0.019   1.526   0.010  0.00  0.00    +0.007 C 
ATOM     10  C   UNL     1       0.002  -0.004   0.002  0.00  0.00    -0.018 C 
ATOM     11  C   UNL     1      -1.434  -0.536   0.023  0.00  0.00    -0.016 C 
ATOM     12  C   UNL     1      -1.405  -2.064   0.095  0.00  0.00    -0.078 C 
ATOM     13  N   UNL     1      -0.707  -2.487   1.315  0.00  0.00    +0.382 N 
ATOM     14  C   UNL     1       0.691  -2.042   1.269  0.00  0.00    -0.078 C 
ATOM     15  C   UNL     1       0.743  -0.513   1.242  0.00  0.00    -0.016 C 
ATOM     16  H   UNL     1      -1.162  -2.082   2.119  0.00  0.00    -0.081 HD
ENDBRANCH   8  13
ENDBRANCH   2   8
ENDBRANCH   1   7
BRANCH   1  17
ATOM     17  N   UNL     1      -3.195  -4.881   3.387  0.00  0.00    -0.302 NA
ATOM     18  H   UNL     1      -2.896  -5.239   2.492  0.00  0.00    +0.123 HD
BRANCH  17  19
ATOM     19  C   UNL     1      -4.590  -4.425   3.331  0.00  0.00    +0.138 C 
ATOM     20  C   UNL     1      -5.232  -4.576   4.712  0.00  0.00    +0.034 C 
BRANCH  19  21
ATOM     21  C   UNL     1      -5.351  -5.255   2.330  0.00  0.00    +0.237 C 
ATOM     22  O   UNL     1      -4.787  -6.139   1.722  0.00  0.00    -0.274 OA
ATOM     23  N   UNL     1      -6.659  -5.014   2.110  0.00  0.00    -0.239 N 
ATOM     24  C   UNL     1      -7.340  -5.756   1.214  0.00  0.00    +0.306 C 
ATOM     25  O   UNL     1      -6.774  -6.643   0.605  0.00  0.00    -0.252 OA
ATOM     26  N   UNL     1      -8.647  -5.515   0.994  0.00  0.00    -0.294 N 
ATOM     27  H   UNL     1      -7.110  -4.306   2.596  0.00  0.00    +0.159 HD
ATOM     28  H   UNL     1      -9.098  -4.807   1.480  0.00  0.00    +0.151 HD
BRANCH  26  29
ATOM     29  C   UNL     1      -9.387  -6.322   0.020  0.00  0.00    +0.028 C 
ATOM     30  C   UNL     1      -9.348  -7.792   0.442  0.00  0.00    +0.031 C 
ATOM     31  C   UNL     1     -10.840  -5.846  -0.037  0.00  0.00    +0.031 C 
ATOM     32  C   UNL     1      -8.745  -6.170  -1.360  0.00  0.00    +0.031 C 
ENDBRANCH  26  29
ENDBRANCH  19  21
ENDBRANCH  17  19
ENDBRANCH   1  17
TORSDOF 7
