REMARK  Name = ZINC21581130
REMARK  7 active torsions:
REMARK  status: ('A' for Active; 'I' for Inactive)
REMARK    1  A    between atoms: C_1  and  O_2
REMARK    2  A    between atoms: O_2  and  C_3
REMARK    3  A    between atoms: C_6  and  C_9
REMARK    4  A    between atoms: N_14  and  C_15
REMARK    5  A    between atoms: C_15  and  C_16
REMARK    6  A    between atoms: N_21  and  S_24
REMARK    7  A    between atoms: S_24  and  C_27
REMARK                            x       y       z     vdW  Elec       q    Type
REMARK                         _______ _______ _______ _____ _____    ______ ____
ROOT
ATOM      1  C   UNL     1      -1.671  -1.475   5.578  0.00  0.00    +0.199 C 
ATOM      2  O   UNL     1      -2.483  -0.792   6.166  0.00  0.00    -0.278 OA
ATOM      3  N   UNL     1      -1.378  -1.214   4.289  0.00  0.00    -0.300 N 
ATOM      4  C   UNL     1      -2.034  -0.104   3.583  0.00  0.00    +0.125 C 
ATOM      5  C   UNL     1      -2.696  -0.655   2.314  0.00  0.00    +0.128 C 
ATOM      6  N   UNL     1      -1.714  -1.474   1.589  0.00  0.00    -0.173 NA
ATOM      7  C   UNL     1      -1.062  -2.586   2.293  0.00  0.00    +0.128 C 
ATOM      8  C   UNL     1      -0.396  -2.033   3.564  0.00  0.00    +0.125 C 
ENDROOT
BRANCH   6   9
ATOM      9  S   UNL     1      -1.353  -1.152   0.005  0.00  0.00    +0.067 S 
ATOM     10  O   UNL     1      -2.474  -0.465  -0.535  0.00  0.00    -0.152 OA
ATOM     11  O   UNL     1      -0.861  -2.362  -0.553  0.00  0.00    -0.152 OA
BRANCH   9  12
ATOM     12  C   UNL     1      -0.011  -0.011  -0.003  0.00  0.00    +0.144 A 
ATOM     13  C   UNL     1       1.321  -0.261  -0.014  0.00  0.00    +0.038 A 
ATOM     14  C   UNL     1       2.203   0.804  -0.019  0.00  0.00    +0.030 A 
ATOM     15  C   UNL     1       1.708   2.067  -0.012  0.00  0.00    +0.080 A 
ATOM     16  S   UNL     1      -0.053   1.774   0.002  0.00  0.00    -0.057 S 
ATOM     17 CL   UNL     1       2.565   3.577  -0.015  0.00  0.00    -0.076 Cl
ENDBRANCH   9  12
ENDBRANCH   6   9
BRANCH   1  18
ATOM     18  C   UNL     1      -0.990  -2.616   6.290  0.00  0.00    +0.020 C 
BRANCH  18  23
ATOM     19  C   UNL     1      -1.135  -3.989   8.284  0.00  0.00    -0.037 C 
ATOM     20  C   UNL     1      -0.323  -3.691   9.562  0.00  0.00    -0.013 C 
ATOM     21  C   UNL     1      -0.737  -2.237   9.909  0.00  0.00    -0.020 C 
ATOM     22  C   UNL     1      -0.897  -1.613   8.500  0.00  0.00    -0.077 C 
ATOM     23  N   UNL     1      -1.478  -2.692   7.673  0.00  0.00    +0.390 N 
ATOM     24  H   UNL     1      -2.572  -2.582   7.631  0.00  0.00    -0.080 HD
BRANCH  19  28
ATOM     25  C   UNL     1       1.223  -6.297   5.568  0.00  0.00    +0.120 A 
ATOM     26  C   UNL     1       1.720  -5.109   6.084  0.00  0.00    +0.046 A 
ATOM     27  C   UNL     1       0.956  -4.365   6.962  0.00  0.00    +0.005 A 
ATOM     28  C   UNL     1      -0.303  -4.803   7.327  0.00  0.00    -0.061 A 
ATOM     29  C   UNL     1      -0.799  -5.989   6.819  0.00  0.00    +0.005 A 
ATOM     30  C   UNL     1      -0.041  -6.734   5.936  0.00  0.00    +0.046 A 
BRANCH  25  32
ATOM     31  C   UNL     1       1.397  -8.243   4.214  0.00  0.00    +0.277 C 
ATOM     32  O   UNL     1       1.973  -7.031   4.705  0.00  0.00    -0.495 OA
ENDBRANCH  25  32
ENDBRANCH  19  28
ENDBRANCH  18  23
ENDBRANCH   1  18
TORSDOF 6
