REMARK  Name = ZINC39672764
REMARK  8 active torsions:
REMARK  status: ('A' for Active; 'I' for Inactive)
REMARK    1  A    between atoms: C_1  and  C_2
REMARK    2  A    between atoms: C_2  and  O_4
REMARK    3  A    between atoms: O_4  and  C_5
REMARK    4  A    between atoms: C_10  and  C_11
REMARK    5  A    between atoms: C_15  and  C_24
REMARK    6  A    between atoms: N_26  and  C_27
REMARK    7  A    between atoms: C_27  and  C_28
REMARK    8  A    between atoms: C_28  and  N_34
REMARK                            x       y       z     vdW  Elec       q    Type
REMARK                         _______ _______ _______ _____ _____    ______ ____
ROOT
ATOM      1  C   UNL     1      -4.029  -1.799  -0.108  0.00  0.00    +0.250 C 
ATOM      2  O   UNL     1      -4.265  -0.618  -0.273  0.00  0.00    -0.270 OA
ATOM      3  N   UNL     1      -5.036  -2.694  -0.100  0.00  0.00    -0.296 N 
ATOM      4  C   UNL     1      -4.940  -4.169  -0.002  0.00  0.00    +0.121 C 
ATOM      5  C   UNL     1      -6.113  -4.577   0.918  0.00  0.00    +0.100 C 
ATOM      6  C   UNL     1      -7.128  -3.429   0.791  0.00  0.00    -0.004 C 
ATOM      7  C   UNL     1      -6.492  -2.424  -0.180  0.00  0.00    +0.115 C 
ATOM      8  C   UNL     1      -7.355  -2.770   2.148  0.00  0.00    -0.010 C 
ATOM      9  C   UNL     1      -8.410  -1.669   2.007  0.00  0.00    -0.082 C 
ATOM     10  N   UNL     1      -9.662  -2.251   1.508  0.00  0.00    +0.379 N 
ATOM     11  C   UNL     1      -9.458  -2.800   0.162  0.00  0.00    -0.082 C 
ATOM     12  C   UNL     1      -8.447  -3.948   0.226  0.00  0.00    -0.010 C 
ATOM     13  H   UNL     1      -9.960  -2.988   2.129  0.00  0.00    -0.086 HD
ATOM     14  H   UNL     1     -10.373  -1.536   1.474  0.00  0.00    -0.086 HD
ENDROOT
BRANCH   1  20
ATOM     15  C   UNL     1      -1.744  -1.487   0.844  0.00  0.00    +0.144 A 
ATOM     16  C   UNL     1      -0.441  -1.926   1.022  0.00  0.00    +0.047 A 
ATOM     17  C   UNL     1      -0.025  -3.110   0.447  0.00  0.00    +0.004 A 
ATOM     18  C   UNL     1      -0.903  -3.867  -0.311  0.00  0.00    +0.001 A 
ATOM     19  C   UNL     1      -2.201  -3.446  -0.498  0.00  0.00    +0.017 A 
ATOM     20  C   UNL     1      -2.637  -2.253   0.083  0.00  0.00    +0.079 A 
BRANCH  15  21
ATOM     21  O   UNL     1      -2.155  -0.323   1.409  0.00  0.00    -0.425 OA
BRANCH  21  23
ATOM     22  C   UNL     1      -3.158   0.884   3.315  0.00  0.00    +0.136 C 
ATOM     23  C   UNL     1      -2.785  -0.385   2.593  0.00  0.00    +0.309 C 
ATOM     24  O   UNL     1      -3.052  -1.458   3.080  0.00  0.00    -0.251 OA
ENDBRANCH  21  23
ENDBRANCH  15  21
ENDBRANCH   1  20
BRANCH   5  25
ATOM     25  C   UNL     1      -6.722  -5.873   0.449  0.00  0.00    +0.218 C 
ATOM     26  O   UNL     1      -6.631  -6.199  -0.715  0.00  0.00    -0.275 OA
ATOM     27  N   UNL     1      -7.367  -6.670   1.324  0.00  0.00    -0.313 N 
ATOM     28  H   UNL     1      -7.440  -6.409   2.255  0.00  0.00    +0.149 HD
BRANCH  27  29
ATOM     29  C   UNL     1      -7.959  -7.930   0.868  0.00  0.00    +0.126 C 
BRANCH  29  30
ATOM     30  C   UNL     1      -8.732  -8.576   2.019  0.00  0.00    +0.038 C 
ATOM     31  C   UNL     1      -9.276  -9.934   1.570  0.00  0.00    +0.024 C 
ATOM     32  C   UNL     1     -10.211  -9.738   0.375  0.00  0.00    +0.002 C 
ATOM     33  C   UNL     1     -11.374  -8.831   0.780  0.00  0.00    +0.000 C 
ATOM     34  C   UNL     1     -10.831  -7.474   1.230  0.00  0.00    +0.002 C 
ATOM     35  C   UNL     1      -9.896  -7.670   2.425  0.00  0.00    +0.024 C 
BRANCH  30  36
ATOM     36  N   UNL     1      -7.835  -8.764   3.167  0.00  0.00    -0.291 NA
ATOM     37  C   UNL     1      -6.622  -9.497   2.774  0.00  0.00    +0.113 C 
ATOM     38  C   UNL     1      -5.691  -9.618   3.982  0.00  0.00    +0.175 C 
ATOM     39  O   UNL     1      -6.388 -10.260   5.053  0.00  0.00    -0.377 OA
ATOM     40  C   UNL     1      -7.574  -9.572   5.462  0.00  0.00    +0.175 C 
ATOM     41  C   UNL     1      -8.524  -9.451   4.269  0.00  0.00    +0.113 C 
ENDBRANCH  30  36
ENDBRANCH  29  30
ENDBRANCH  27  29
ENDBRANCH   5  25
TORSDOF 7
