REMARK  Name = ZINC59503609
REMARK  5 active torsions:
REMARK  status: ('A' for Active; 'I' for Inactive)
REMARK    1  A    between atoms: N_8  and  C_10
REMARK    2  A    between atoms: C_13  and  C_16
REMARK    3  A    between atoms: N_18  and  N_19
REMARK    4  A    between atoms: C_20  and  C_21
REMARK    5  A    between atoms: C_24  and  O_27
REMARK                            x       y       z     vdW  Elec       q    Type
REMARK                         _______ _______ _______ _____ _____    ______ ____
ROOT
ATOM      1  C   UNL     1       3.798  -3.820  -2.261  0.00  0.00    +0.030 A 
ATOM      2  C   UNL     1       3.090  -4.885  -1.709  0.00  0.00    +0.024 A 
ATOM      3  C   UNL     1       3.764  -5.977  -1.212  0.00  0.00    +0.015 A 
ATOM      4  C   UNL     1       5.160  -6.018  -1.263  0.00  0.00    +0.038 A 
ATOM      5  C   UNL     1       5.868  -4.948  -1.818  0.00  0.00    +0.015 A 
ATOM      6  C   UNL     1       5.189  -3.860  -2.317  0.00  0.00    +0.024 A 
ENDROOT
BRANCH   1  14
ATOM      7  C   UNL     1       0.205   0.713  -4.278  0.00  0.00    +0.000 A 
ATOM      8  C   UNL     1       1.407   1.299  -4.630  0.00  0.00    +0.000 A 
ATOM      9  C   UNL     1       2.595   0.642  -4.375  0.00  0.00    +0.005 A 
ATOM     10  C   UNL     1       2.584  -0.602  -3.767  0.00  0.00    -0.026 A 
ATOM     11  C   UNL     1       1.384  -1.187  -3.416  0.00  0.00    -0.026 A 
ATOM     12  C   UNL     1       0.193  -0.528  -3.672  0.00  0.00    +0.005 A 
ATOM     13  C   UNL     1       1.661  -2.524  -2.777  0.00  0.00    +0.141 C 
ATOM     14  N   UNL     1       3.115  -2.718  -2.762  0.00  0.00    -0.321 N 
ATOM     15  C   UNL     1       3.709  -1.527  -3.377  0.00  0.00    +0.141 C 
ENDBRANCH   1  14
BRANCH   4  16
ATOM     16  C   UNL     1       5.885  -7.187  -0.731  0.00  0.00    +0.263 C 
ATOM     17  O   UNL     1       5.268  -8.117  -0.248  0.00  0.00    -0.268 OA
ATOM     18  N   UNL     1       7.231  -7.225  -0.780  0.00  0.00    -0.203 N 
ATOM     19  H   UNL     1       7.724  -6.483  -1.165  0.00  0.00    +0.178 HD
BRANCH  18  20
ATOM     20  N   UNL     1       7.920  -8.335  -0.275  0.00  0.00    -0.187 NA
ATOM     21  C   UNL     1       9.217  -8.322  -0.214  0.00  0.00    +0.138 C 
BRANCH  21  22
ATOM     22  C   UNL     1       9.941  -7.038  -0.209  0.00  0.00    -0.005 A 
ATOM     23  C   UNL     1      11.321  -7.011  -0.432  0.00  0.00    +0.013 A 
ATOM     24  C   UNL     1      11.994  -5.809  -0.427  0.00  0.00    +0.046 A 
ATOM     25  C   UNL     1      11.304  -4.625  -0.200  0.00  0.00    +0.117 A 
ATOM     26  C   UNL     1       9.933  -4.647   0.022  0.00  0.00    +0.046 A 
ATOM     27  C   UNL     1       9.250  -5.844   0.013  0.00  0.00    +0.013 A 
BRANCH  25  28
ATOM     28  O   UNL     1      11.972  -3.442  -0.196  0.00  0.00    -0.507 OA
ATOM     29  H   UNL     1      12.023  -3.016  -1.062  0.00  0.00    +0.292 HD
ENDBRANCH  25  28
ENDBRANCH  21  22
ENDBRANCH  18  20
ENDBRANCH   4  16
TORSDOF 5
