REMARK  Name = ZINC43734451
REMARK  14 active torsions:
REMARK  status: ('A' for Active; 'I' for Inactive)
REMARK    1  A    between atoms: C_1  and  C_2
REMARK    2  A    between atoms: C_4  and  C_34
REMARK    3  A    between atoms: C_6  and  N_8
REMARK    4  A    between atoms: N_8  and  C_9
REMARK    5  A    between atoms: C_9  and  C_10
REMARK    6  A    between atoms: C_10  and  C_11
REMARK    7  A    between atoms: C_13  and  C_15
REMARK    8  A    between atoms: C_15  and  N_16
REMARK    9  A    between atoms: C_19  and  C_23
REMARK   10  A    between atoms: C_19  and  C_24
REMARK   11  A    between atoms: C_27  and  C_30
REMARK   12  A    between atoms: C_30  and  C_31
REMARK   13  A    between atoms: C_30  and  C_32
REMARK   14  A    between atoms: C_30  and  C_33
REMARK                            x       y       z     vdW  Elec       q    Type
REMARK                         _______ _______ _______ _____ _____    ______ ____
ROOT
ATOM      1  N   UNL     1      -0.208  -6.335   3.410  0.00  0.00    -0.215 N 
ATOM      2  C   UNL     1      -1.360  -7.007   3.220  0.00  0.00    +0.251 C 
ATOM      3  O   UNL     1      -2.485  -6.554   3.243  0.00  0.00    -0.272 OA
ATOM      4  C   UNL     1      -0.958  -8.447   2.970  0.00  0.00    +0.135 C 
ATOM      5  N   UNL     1       0.512  -8.416   3.057  0.00  0.00    -0.281 N 
ATOM      6  C   UNL     1       0.856  -7.141   3.311  0.00  0.00    +0.310 C 
ATOM      7  O   UNL     1       2.004  -6.763   3.441  0.00  0.00    -0.252 OA
ATOM      8  C   UNL     1      -1.542  -9.364   4.047  0.00  0.00    +0.047 C 
ATOM      9  H   UNL     1       1.115  -9.168   2.948  0.00  0.00    +0.152 HD
ENDROOT
BRANCH   4  10
ATOM     10  C   UNL     1      -1.399  -8.890   1.599  0.00  0.00    -0.015 A 
ATOM     11  C   UNL     1      -2.528  -8.337   1.023  0.00  0.00    +0.006 A 
ATOM     12  C   UNL     1      -2.933  -8.743  -0.234  0.00  0.00    +0.004 A 
ATOM     13  C   UNL     1      -2.208  -9.703  -0.917  0.00  0.00    -0.042 A 
ATOM     14  C   UNL     1      -1.079 -10.255  -0.342  0.00  0.00    +0.004 A 
ATOM     15  C   UNL     1      -0.672  -9.846   0.914  0.00  0.00    +0.006 A 
BRANCH  13  16
ATOM     16  C   UNL     1      -2.650 -10.146  -2.288  0.00  0.00    -0.013 C 
ATOM     17  C   UNL     1      -2.657  -8.945  -3.235  0.00  0.00    +0.015 C 
ATOM     18  C   UNL     1      -1.683 -11.207  -2.817  0.00  0.00    +0.015 C 
ATOM     19  C   UNL     1      -4.059 -10.738  -2.203  0.00  0.00    +0.015 C 
ENDBRANCH  13  16
ENDBRANCH   4  10
BRANCH   1  20
ATOM     20  C   UNL     1      -0.129  -4.898   3.686  0.00  0.00    +0.214 C 
BRANCH  20  22
ATOM     21  N   UNL     1       0.052  -2.797   2.393  0.00  0.00    -0.269 N 
ATOM     22  C   UNL     1      -0.032  -4.142   2.386  0.00  0.00    +0.238 C 
ATOM     23  O   UNL     1      -0.029  -4.745   1.333  0.00  0.00    -0.274 OA
BRANCH  21  29
ATOM     24  C   UNL     1      -2.363  -1.332  -1.631  0.00  0.00    +0.044 C 
ATOM     25  C   UNL     1      -1.116  -1.362  -0.785  0.00  0.00    -0.048 A 
ATOM     26  C   UNL     1       0.018  -0.690  -1.201  0.00  0.00    +0.006 A 
ATOM     27  C   UNL     1       1.163  -0.715  -0.427  0.00  0.00    -0.048 A 
ATOM     28  C   UNL     1       1.178  -1.413   0.765  0.00  0.00    +0.027 A 
ATOM     29  C   UNL     1       0.041  -2.089   1.186  0.00  0.00    +0.037 A 
ATOM     30  C   UNL     1      -1.110  -2.057   0.409  0.00  0.00    +0.027 A 
ATOM     31  C   UNL     1       2.397   0.019  -0.884  0.00  0.00    +0.044 C 
ENDBRANCH  21  29
BRANCH  21  32
ATOM     32  C   UNL     1       0.155  -2.076   3.664  0.00  0.00    +0.128 C 
BRANCH  32  33
ATOM     33  C   UNL     1      -1.248  -1.737   4.173  0.00  0.00    +0.138 C 
BRANCH  33  34
ATOM     34  C   UNL     1      -1.144  -1.012   5.450  0.00  0.00    +0.064 C 
ATOM     35  N   UNL     1      -1.064  -0.454   6.436  0.00  0.00    -0.197 NA
ENDBRANCH  33  34
ENDBRANCH  32  33
ENDBRANCH  21  32
ENDBRANCH  20  22
ENDBRANCH   1  20
TORSDOF 8
