REMARK  Name = ZINC12447229
REMARK  9 active torsions:
REMARK  status: ('A' for Active; 'I' for Inactive)
REMARK    1  A    between atoms: C_1  and  C_2
REMARK    2  A    between atoms: C_3  and  C_10
REMARK    3  A    between atoms: C_10  and  N_57
REMARK    4  A    between atoms: C_13  and  C_16
REMARK    5  A    between atoms: C_13  and  O_30
REMARK    6  A    between atoms: C_16  and  C_17
REMARK    7  A    between atoms: C_19  and  C_22
REMARK    8  A    between atoms: C_26  and  O_28
REMARK    9  A    between atoms: O_28  and  C_29
REMARK                            x       y       z     vdW  Elec       q    Type
REMARK                         _______ _______ _______ _____ _____    ______ ____
ROOT
ATOM      1  C   UNL     1      -0.410   3.925   2.096  0.00  0.00    -0.076 C 
ATOM      2  C   UNL     1      -0.560   4.289   3.575  0.00  0.00    +0.016 C 
ATOM      3  C   UNL     1      -1.269   5.641   3.694  0.00  0.00    +0.070 C 
ATOM      4  C   UNL     1      -0.466   6.698   2.931  0.00  0.00    +0.016 C 
ATOM      5  C   UNL     1      -0.319   6.264   1.471  0.00  0.00    -0.076 C 
ATOM      6  N   UNL     1       0.392   4.969   1.424  0.00  0.00    +0.384 N 
ATOM      7  H   UNL     1       1.290   5.065   1.912  0.00  0.00    -0.081 HD
ENDROOT
BRANCH   3   8
ATOM      8  O   UNL     1      -2.581   5.543   3.137  0.00  0.00    -0.388 OA
ATOM      9  H   UNL     1      -3.146   4.891   3.573  0.00  0.00    +0.210 HD
ENDBRANCH   3   8
BRANCH   6  10
ATOM     10  C   UNL     1       0.647   4.584   0.021  0.00  0.00    -0.022 C 
BRANCH  10  13
ATOM     11  C   UNL     1       3.760   4.645  -0.009  0.00  0.00    +0.067 C 
ATOM     12  C   UNL     1       2.901   3.407  -0.007  0.00  0.00    +0.059 A 
ATOM     13  C   UNL     1       1.558   3.383   0.005  0.00  0.00    +0.030 A 
ATOM     14  N   UNL     1       1.158   2.050   0.002  0.00  0.00    -0.299 N 
ATOM     15  C   UNL     1      -0.016   1.328   0.009  0.00  0.00    +0.100 A 
ATOM     16  C   UNL     1       0.002  -0.004   0.002  0.00  0.00    +0.067 A 
ATOM     17  S   UNL     1       1.754  -0.349  -0.017  0.00  0.00    -0.058 S 
ATOM     18  C   UNL     1       2.326   1.334  -0.013  0.00  0.00    +0.178 A 
ATOM     19  N   UNL     1       3.347   2.142  -0.018  0.00  0.00    -0.226 NA
ENDBRANCH  10  13
ENDBRANCH   6  10
BRANCH   3  20
ATOM     20  C   UNL     1      -1.367   6.039   5.168  0.00  0.00    +0.111 C 
BRANCH  20  21
ATOM     21  C   UNL     1      -2.050   4.940   5.941  0.00  0.00    +0.141 A 
ATOM     22  C   UNL     1      -1.455   3.884   6.540  0.00  0.00    +0.076 A 
ATOM     23  C   UNL     1      -2.536   3.165   7.121  0.00  0.00    +0.114 A 
ATOM     24  N   UNL     1      -3.622   3.831   6.816  0.00  0.00    -0.078 NA
ATOM     25  O   UNL     1      -3.367   4.816   6.163  0.00  0.00    -0.359 OA
BRANCH  23  26
ATOM     26  C   UNL     1      -2.452   1.910   7.909  0.00  0.00    +0.007 A 
ATOM     27  C   UNL     1      -1.214   1.314   8.145  0.00  0.00    +0.010 A 
ATOM     28  C   UNL     1      -1.137   0.150   8.882  0.00  0.00    +0.004 A 
ATOM     29  C   UNL     1      -2.287  -0.435   9.379  0.00  0.00    +0.045 A 
ATOM     30  C   UNL     1      -3.525   0.149   9.144  0.00  0.00    +0.121 A 
ATOM     31  C   UNL     1      -3.610   1.320   8.409  0.00  0.00    +0.055 A 
BRANCH  30  32
ATOM     32  O   UNL     1      -4.653  -0.429   9.634  0.00  0.00    -0.495 OA
ATOM     33  C   UNL     1      -4.491  -1.636  10.383  0.00  0.00    +0.277 C 
ENDBRANCH  30  32
ENDBRANCH  23  26
ENDBRANCH  20  21
ENDBRANCH   3  20
TORSDOF 7
