REMARK  Name = ZINC63900054
REMARK  10 active torsions:
REMARK  status: ('A' for Active; 'I' for Inactive)
REMARK    1  A    between atoms: C_1  and  C_2
REMARK    2  A    between atoms: N_8  and  C_11
REMARK    3  A    between atoms: C_14  and  S_17
REMARK    4  A    between atoms: S_17  and  N_20
REMARK    5  A    between atoms: N_20  and  C_21
REMARK    6  A    between atoms: C_21  and  C_22
REMARK    7  A    between atoms: C_22  and  C_23
REMARK    8  A    between atoms: C_26  and  O_34
REMARK    9  A    between atoms: C_31  and  C_33
REMARK   10  A    between atoms: O_34  and  C_35
REMARK                            x       y       z     vdW  Elec       q    Type
REMARK                         _______ _______ _______ _____ _____    ______ ____
ROOT
ATOM      1  S   UNL     1       4.736  -4.146   5.341  0.00  0.00    +0.058 S 
ATOM      2  O   UNL     1       4.449  -3.441   6.541  0.00  0.00    -0.153 OA
ATOM      3  O   UNL     1       4.523  -5.545   5.211  0.00  0.00    -0.153 OA
ENDROOT
BRANCH   1   7
ATOM      4  C   UNL     1       2.326  -2.159   2.062  0.00  0.00    +0.059 A 
ATOM      5  C   UNL     1       2.732  -3.480   1.924  0.00  0.00    +0.027 A 
ATOM      6  C   UNL     1       3.467  -4.083   2.926  0.00  0.00    +0.030 A 
ATOM      7  C   UNL     1       3.799  -3.373   4.065  0.00  0.00    +0.105 A 
ATOM      8  C   UNL     1       3.396  -2.058   4.206  0.00  0.00    +0.030 A 
ATOM      9  C   UNL     1       2.666  -1.447   3.205  0.00  0.00    +0.027 A 
BRANCH   4  16
ATOM     10  C   UNL     1      -0.019   1.526   0.010  0.00  0.00    +0.019 C 
ATOM     11  C   UNL     1       0.002  -0.004   0.002  0.00  0.00    +0.097 C 
ATOM     12  C   UNL     1       0.722  -0.509  -1.276  0.00  0.00    +0.201 C 
ATOM     13  S   UNL     1       1.572  -1.979  -0.568  0.00  0.00    +0.053 S 
ATOM     14  O   UNL     1       2.936  -2.016  -0.964  0.00  0.00    -0.155 OA
ATOM     15  O   UNL     1       0.746  -3.132  -0.653  0.00  0.00    -0.155 OA
ATOM     16  N   UNL     1       1.581  -1.545   1.049  0.00  0.00    -0.144 N 
ATOM     17  C   UNL     1       0.751  -0.505   1.200  0.00  0.00    +0.243 C 
ATOM     18  O   UNL     1       0.607   0.019   2.285  0.00  0.00    -0.273 OA
ENDBRANCH   4  16
ENDBRANCH   1   7
BRANCH   1  19
ATOM     19  N   UNL     1       6.335  -3.878   5.005  0.00  0.00    -0.190 NA
ATOM     20  H   UNL     1       6.918  -4.624   4.792  0.00  0.00    +0.148 HD
BRANCH  19  21
ATOM     21  C   UNL     1       6.870  -2.515   5.030  0.00  0.00    +0.110 C 
BRANCH  21  22
ATOM     22  C   UNL     1       8.399  -2.567   5.061  0.00  0.00    +0.050 C 
BRANCH  22  23
ATOM     23  C   UNL     1       8.949  -1.164   5.086  0.00  0.00    -0.037 C 
ATOM     24  C   UNL     1       8.240  -0.013   5.090  0.00  0.00    +0.003 A 
ATOM     25  C   UNL     1       6.801   0.270   5.071  0.00  0.00    +0.055 A 
ATOM     26  C   UNL     1       6.373   1.555   5.080  0.00  0.00    +0.121 A 
ATOM     27  C   UNL     1       7.264   2.642   5.107  0.00  0.00    +0.047 A 
ATOM     28  C   UNL     1       8.605   2.483   5.125  0.00  0.00    +0.029 A 
ATOM     29  C   UNL     1       9.178   1.133   5.118  0.00  0.00    +0.043 A 
ATOM     30  N   UNL     1      10.416   0.707   5.132  0.00  0.00    -0.378 N 
ATOM     31  C   UNL     1      10.406  -0.760   5.120  0.00  0.00    +0.103 C 
ATOM     32  C   UNL     1      11.076  -1.305   6.383  0.00  0.00    +0.035 C 
ATOM     33  H   UNL     1      11.208   1.268   5.150  0.00  0.00    +0.160 HD
BRANCH  26  34
ATOM     34  O   UNL     1       5.037   1.802   5.062  0.00  0.00    -0.495 OA
ATOM     35  C   UNL     1       4.630   3.172   5.072  0.00  0.00    +0.277 C 
ENDBRANCH  26  34
ENDBRANCH  22  23
ENDBRANCH  21  22
ENDBRANCH  19  21
ENDBRANCH   1  19
TORSDOF 7
