REMARK  Name = ZINC16646236
REMARK  14 active torsions:
REMARK  status: ('A' for Active; 'I' for Inactive)
REMARK    1  A    between atoms: C_1  and  C_2
REMARK    2  A    between atoms: C_2  and  C_3
REMARK    3  A    between atoms: C_2  and  N_4
REMARK    4  A    between atoms: N_4  and  C_5
REMARK    5  A    between atoms: C_5  and  C_6
REMARK    6  A    between atoms: N_8  and  C_9
REMARK    7  A    between atoms: N_8  and  C_21
REMARK    8  A    between atoms: C_9  and  C_10
REMARK    9  A    between atoms: C_10  and  C_11
REMARK   10  A    between atoms: C_21  and  C_22
REMARK   11  A    between atoms: C_25  and  O_28
REMARK   12  A    between atoms: O_28  and  C_29
REMARK   13  A    between atoms: C_30  and  C_32
REMARK   14  A    between atoms: C_36  and  N_38
REMARK                            x       y       z     vdW  Elec       q    Type
REMARK                         _______ _______ _______ _____ _____    ______ ____
ROOT
ATOM      1  C   UNL     1       0.836   7.552   1.983  0.00  0.00    +0.233 C 
ATOM      2  O   UNL     1       0.741   6.554   2.666  0.00  0.00    -0.274 OA
ATOM      3  N   UNL     1       0.761   8.770   2.554  0.00  0.00    -0.296 N 
ENDROOT
BRANCH   1   4
ATOM      4  C   UNL     1       1.037   7.429   0.494  0.00  0.00    +0.204 C 
BRANCH   4   5
ATOM      5  N   UNL     1       1.084   6.012   0.123  0.00  0.00    -0.286 N 
ATOM      6  C   UNL     1      -0.051   5.363  -0.204  0.00  0.00    +0.247 C 
ATOM      7  O   UNL     1      -1.107   5.964  -0.237  0.00  0.00    -0.270 OA
BRANCH   6   8
ATOM      8  C   UNL     1      -0.011   3.920  -0.522  0.00  0.00    +0.039 A 
ATOM      9  C   UNL     1       0.960   3.420  -1.391  0.00  0.00    +0.013 A 
ATOM     10  C   UNL     1       0.990   2.072  -1.684  0.00  0.00    +0.003 A 
ATOM     11  C   UNL     1       0.061   1.216  -1.118  0.00  0.00    +0.033 A 
ATOM     12  C   UNL     1      -0.907   1.707  -0.260  0.00  0.00    +0.127 A 
ATOM     13  C   UNL     1      -0.945   3.052   0.045  0.00  0.00    +0.045 A 
BRANCH  12  14
ATOM     14  N   UNL     1      -1.900   0.785   0.336  0.00  0.00    +0.056 N 
ATOM     15  O   UNL     1      -1.865  -0.403   0.071  0.00  0.00    -0.126 OA
ATOM     16  O   UNL     1      -2.753   1.215   1.092  0.00  0.00    -0.126 OA
ENDBRANCH  12  14
ENDBRANCH   6   8
BRANCH   5  18
ATOM     17  C   UNL     1       3.251   5.870  -1.003  0.00  0.00    +0.028 C 
ATOM     18  C   UNL     1       2.365   5.301   0.108  0.00  0.00    +0.071 C 
ATOM     19  C   UNL     1       3.063   5.479   1.458  0.00  0.00    +0.028 C 
ENDBRANCH   5  18
ENDBRANCH   4   5
ENDBRANCH   1   4
BRANCH   3  20
ATOM     20  C   UNL     1       0.876   9.975   1.728  0.00  0.00    +0.113 C 
BRANCH  20  21
ATOM     21  C   UNL     1      -0.514  10.397   1.248  0.00  0.00    +0.056 C 
BRANCH  21  22
ATOM     22  C   UNL     1      -0.396  11.636   0.398  0.00  0.00    -0.021 A 
ATOM     23  C   UNL     1      -0.550  12.905   0.810  0.00  0.00    +0.087 A 
ATOM     24  N   UNL     1      -0.367  13.762  -0.240  0.00  0.00    -0.360 N 
ATOM     25  H   UNL     1      -0.426  14.729  -0.187  0.00  0.00    +0.165 HD
ATOM     26  C   UNL     1      -0.093  13.048  -1.385  0.00  0.00    +0.047 A 
ATOM     27  C   UNL     1      -0.099  11.685  -1.035  0.00  0.00    +0.003 A 
ATOM     28  C   UNL     1       0.153  10.716  -2.008  0.00  0.00    +0.010 A 
ATOM     29  C   UNL     1       0.405  11.096  -3.296  0.00  0.00    +0.001 A 
ATOM     30  C   UNL     1       0.411  12.439  -3.646  0.00  0.00    +0.002 A 
ATOM     31  C   UNL     1       0.166  13.412  -2.702  0.00  0.00    +0.026 A 
ENDBRANCH  21  22
ENDBRANCH  20  21
ENDBRANCH   3  20
BRANCH   3  32
ATOM     32  C   UNL     1       0.566   8.890   4.001  0.00  0.00    +0.143 C 
BRANCH  32  33
ATOM     33  C   UNL     1       1.907   8.928   4.688  0.00  0.00    -0.030 A 
ATOM     34  C   UNL     1       2.503   7.751   5.104  0.00  0.00    +0.009 A 
ATOM     35  C   UNL     1       3.734   7.783   5.729  0.00  0.00    +0.046 A 
ATOM     36  C   UNL     1       4.368   8.997   5.948  0.00  0.00    +0.120 A 
ATOM     37  C   UNL     1       3.766  10.177   5.535  0.00  0.00    +0.046 A 
ATOM     38  C   UNL     1       2.537  10.139   4.906  0.00  0.00    +0.009 A 
BRANCH  36  39
ATOM     39  O   UNL     1       5.578   9.032   6.567  0.00  0.00    -0.495 OA
ATOM     40  C   UNL     1       6.138   7.779   6.965  0.00  0.00    +0.277 C 
ENDBRANCH  36  39
ENDBRANCH  32  33
ENDBRANCH   3  32
TORSDOF 11
