REMARK  Name = ZINC19176028
REMARK  8 active torsions:
REMARK  status: ('A' for Active; 'I' for Inactive)
REMARK    1  A    between atoms: C_1  and  C_2
REMARK    2  A    between atoms: C_2  and  C_3
REMARK    3  A    between atoms: C_2  and  N_4
REMARK    4  A    between atoms: N_4  and  C_5
REMARK    5  A    between atoms: C_5  and  N_7
REMARK    6  A    between atoms: N_7  and  N_8
REMARK    7  A    between atoms: C_9  and  C_11
REMARK    8  A    between atoms: C_12  and  C_13
REMARK                            x       y       z     vdW  Elec       q    Type
REMARK                         _______ _______ _______ _____ _____    ______ ____
ROOT
ATOM      1  N   UNL     1       4.058  -5.834   5.081  0.00  0.00    -0.232 N 
ATOM      2  C   UNL     1       4.235  -4.531   4.787  0.00  0.00    +0.253 C 
ATOM      3  O   UNL     1       5.153  -3.912   5.293  0.00  0.00    -0.269 OA
ATOM      4  H   UNL     1       3.326  -6.327   4.677  0.00  0.00    +0.173 HD
ENDROOT
BRANCH   1   5
ATOM      5  N   UNL     1       4.930  -6.477   5.969  0.00  0.00    -0.246 N 
ATOM      6  H   UNL     1       5.662  -5.984   6.372  0.00  0.00    +0.172 HD
BRANCH   5   7
ATOM      7  C   UNL     1       4.753  -7.780   6.263  0.00  0.00    +0.147 C 
ATOM      8  S   UNL     1       5.819  -8.566   7.348  0.00  0.00    -0.017 S 
BRANCH   7   9
ATOM      9  N   UNL     1       3.737  -8.466   5.702  0.00  0.00    -0.323 N 
ATOM     10  H   UNL     1       3.132  -8.021   5.088  0.00  0.00    +0.148 HD
BRANCH   9  12
ATOM     11  C   UNL     1       2.077 -10.259   5.807  0.00  0.00    +0.027 C 
ATOM     12  C   UNL     1       3.544  -9.882   6.022  0.00  0.00    +0.066 C 
ATOM     13  C   UNL     1       4.428 -10.735   5.110  0.00  0.00    +0.027 C 
ENDBRANCH   9  12
ENDBRANCH   7   9
ENDBRANCH   5   7
ENDBRANCH   1   5
BRANCH   2  14
ATOM     14  C   UNL     1       3.324  -3.860   3.860  0.00  0.00    +0.069 C 
ATOM     15  C   UNL     1       3.501  -2.555   3.565  0.00  0.00    +0.013 C 
BRANCH  15  16
ATOM     16  C   UNL     1       2.586  -1.881   2.633  0.00  0.00    -0.020 A 
ATOM     17  C   UNL     1       2.768  -0.528   2.326  0.00  0.00    +0.057 A 
ATOM     18  C   UNL     1       1.905   0.103   1.449  0.00  0.00    +0.164 A 
ATOM     19  C   UNL     1       0.857  -0.609   0.870  0.00  0.00    +0.180 A 
ATOM     20  C   UNL     1       0.675  -1.954   1.176  0.00  0.00    +0.087 A 
ATOM     21  C   UNL     1       1.530  -2.590   2.050  0.00  0.00    +0.031 A 
ATOM     22 CL   UNL     1      -0.634  -2.835   0.452  0.00  0.00    -0.080 Cl
ATOM     23  O   UNL     1       0.002  -0.004   0.002  0.00  0.00    -0.483 OA
ATOM     24  C   UNL     1      -0.017   1.427   0.010  0.00  0.00    +0.270 C 
ATOM     25  C   UNL     1       1.433   1.928  -0.001  0.00  0.00    +0.270 C 
ATOM     26  O   UNL     1       2.091   1.421   1.165  0.00  0.00    -0.485 OA
ENDBRANCH  15  16
ENDBRANCH   2  14
TORSDOF 6
