REMARK  Name = ZINC63573348
REMARK  7 active torsions:
REMARK  status: ('A' for Active; 'I' for Inactive)
REMARK    1  A    between atoms: C_1  and  C_2
REMARK    2  A    between atoms: C_5  and  C_8
REMARK    3  A    between atoms: C_15  and  O_20
REMARK    4  A    between atoms: O_20  and  C_21
REMARK    5  A    between atoms: N_27  and  C_28
REMARK    6  A    between atoms: C_33  and  O_34
REMARK    7  A    between atoms: O_34  and  C_35
REMARK                            x       y       z     vdW  Elec       q    Type
REMARK                         _______ _______ _______ _____ _____    ______ ____
ROOT
ATOM      1  C   UNL     1       0.447  -4.772   0.171  0.00  0.00    +0.134 C 
ATOM      2  C   UNL     1       1.816  -5.193   0.717  0.00  0.00    +0.131 C 
ATOM      3  C   UNL     1       1.966  -4.522   2.077  0.00  0.00    -0.035 C 
ATOM      4  C   UNL     1       3.088  -3.815   2.024  0.00  0.00    +0.003 A 
ATOM      5  C   UNL     1       3.793  -3.015   3.037  0.00  0.00    +0.055 A 
ATOM      6  C   UNL     1       4.939  -2.396   2.638  0.00  0.00    +0.121 A 
ATOM      7  C   UNL     1       5.465  -2.483   1.341  0.00  0.00    +0.047 A 
ATOM      8  C   UNL     1       4.900  -3.195   0.333  0.00  0.00    +0.029 A 
ATOM      9  C   UNL     1       3.656  -3.913   0.644  0.00  0.00    +0.043 A 
ATOM     10  N   UNL     1       2.911  -4.692  -0.116  0.00  0.00    -0.375 N 
ATOM     11  C   UNL     1       0.927  -4.652   3.163  0.00  0.00    +0.052 C 
ATOM     12  C   UNL     1      -0.429  -4.303   2.523  0.00  0.00    +0.114 C 
ATOM     13  N   UNL     1      -0.550  -4.991   1.232  0.00  0.00    -0.276 N 
ATOM     14  C   UNL     1      -1.581  -5.831   1.015  0.00  0.00    +0.307 C 
ATOM     15  O   UNL     1      -1.644  -6.462  -0.023  0.00  0.00    -0.252 OA
ATOM     16  N   UNL     1      -2.543  -5.972   1.949  0.00  0.00    -0.266 N 
ATOM     17  H   UNL     1      -2.508  -5.447   2.764  0.00  0.00    +0.156 HD
ATOM     18  H   UNL     1       3.050  -4.898  -1.054  0.00  0.00    +0.160 HD
ENDROOT
BRANCH   1  23
ATOM     19  C   UNL     1       0.559   0.819  -1.287  0.00  0.00    +0.044 C 
ATOM     20  C   UNL     1       0.530  -0.639  -0.907  0.00  0.00    -0.050 A 
ATOM     21  C   UNL     1       0.871  -1.026   0.376  0.00  0.00    +0.004 A 
ATOM     22  C   UNL     1       0.844  -2.364   0.725  0.00  0.00    +0.006 A 
ATOM     23  C   UNL     1       0.475  -3.314  -0.209  0.00  0.00    -0.025 A 
ATOM     24  C   UNL     1       0.133  -2.927  -1.491  0.00  0.00    +0.006 A 
ATOM     25  C   UNL     1       0.155  -1.589  -1.839  0.00  0.00    +0.004 A 
ENDBRANCH   1  23
BRANCH  16  26
ATOM     26  C   UNL     1      -3.593  -6.877   1.742  0.00  0.00    +0.078 A 
ATOM     27  C   UNL     1      -3.908  -7.295   0.458  0.00  0.00    +0.047 A 
ATOM     28  C   UNL     1      -4.944  -8.189   0.257  0.00  0.00    +0.043 A 
ATOM     29  C   UNL     1      -5.668  -8.668   1.335  0.00  0.00    +0.024 A 
ATOM     30  C   UNL     1      -5.358  -8.255   2.617  0.00  0.00    +0.049 A 
ATOM     31  C   UNL     1      -4.318  -7.364   2.827  0.00  0.00    +0.141 A 
ATOM     32 CL   UNL     1      -5.338  -8.711  -1.352  0.00  0.00    -0.083 Cl
BRANCH  31  33
ATOM     33  O   UNL     1      -4.010  -6.962   4.089  0.00  0.00    -0.493 OA
ATOM     34  C   UNL     1      -4.796  -7.502   5.153  0.00  0.00    +0.277 C 
ENDBRANCH  31  33
ENDBRANCH  16  26
BRANCH   6  35
ATOM     35  O   UNL     1       5.612  -1.649   3.552  0.00  0.00    -0.495 OA
ATOM     36  C   UNL     1       6.811  -1.009   3.110  0.00  0.00    +0.277 C 
ENDBRANCH   6  35
TORSDOF 4
