REMARK  Name = ZINC01822049
REMARK  7 active torsions:
REMARK  status: ('A' for Active; 'I' for Inactive)
REMARK    1  A    between atoms: C_1  and  C_2
REMARK    2  A    between atoms: C_5  and  O_8
REMARK    3  A    between atoms: O_8  and  C_9
REMARK    4  A    between atoms: C_9  and  C_10
REMARK    5  A    between atoms: N_12  and  C_13
REMARK    6  A    between atoms: C_13  and  C_14
REMARK    7  A    between atoms: N_16  and  N_17
REMARK                            x       y       z     vdW  Elec       q    Type
REMARK                         _______ _______ _______ _____ _____    ______ ____
ROOT
ATOM      1  C   UNL     1       0.140  -9.247   3.247  0.00  0.00    +0.249 C 
ATOM      2  O   UNL     1       0.136  -8.592   4.267  0.00  0.00    -0.272 OA
ATOM      3  N   UNL     1       0.157 -10.593   3.310  0.00  0.00    -0.205 N 
ATOM      4  H   UNL     1       0.160 -11.117   2.493  0.00  0.00    +0.177 HD
ENDROOT
BRANCH   3   5
ATOM      5  N   UNL     1       0.172 -11.236   4.554  0.00  0.00    -0.174 NA
ATOM      6  C   UNL     1       0.189 -12.545   4.616  0.00  0.00    +0.153 C 
ATOM      7  C   UNL     1       0.200 -13.391   5.832  0.00  0.00    +0.029 A 
ATOM      8  C   UNL     1       0.197 -13.103   7.192  0.00  0.00    +0.027 A 
ATOM      9  C   UNL     1       0.210 -14.134   8.111  0.00  0.00    +0.019 A 
ATOM     10  C   UNL     1       0.227 -15.450   7.677  0.00  0.00    +0.017 A 
ATOM     11  C   UNL     1       0.232 -15.745   6.329  0.00  0.00    +0.025 A 
ATOM     12  C   UNL     1       0.218 -14.720   5.389  0.00  0.00    +0.043 A 
ATOM     13  N   UNL     1       0.218 -14.741   3.998  0.00  0.00    -0.280 N 
ATOM     14  C   UNL     1       0.195 -13.498   3.488  0.00  0.00    +0.269 C 
ATOM     15  O   UNL     1       0.185 -13.210   2.306  0.00  0.00    -0.268 OA
ATOM     16 BR   UNL     1       0.206 -13.750   9.963  0.00  0.00    -0.050 Br
ATOM     17  H   UNL     1       0.229 -15.551   3.465  0.00  0.00    +0.155 HD
ENDBRANCH   3   5
BRANCH   1  18
ATOM     18  C   UNL     1       0.124  -8.555   1.908  0.00  0.00    +0.202 C 
BRANCH  18  21
ATOM     19  C   UNL     1       0.090  -6.277   1.043  0.00  0.00    +0.251 C 
ATOM     20  O   UNL     1       0.090  -6.735  -0.080  0.00  0.00    -0.272 OA
ATOM     21  N   UNL     1       0.106  -7.104   2.108  0.00  0.00    -0.304 N 
ATOM     22  H   UNL     1       0.106  -6.738   3.006  0.00  0.00    +0.149 HD
BRANCH  19  23
ATOM     23  C   UNL     1       0.072  -4.785   1.249  0.00  0.00    +0.324 C 
BRANCH  23  24
ATOM     24  O   UNL     1       0.057  -4.129  -0.021  0.00  0.00    -0.483 OA
BRANCH  24  29
ATOM     25  C   UNL     1      -0.018   1.503   0.010  0.00  0.00    +0.044 C 
ATOM     26  C   UNL     1       0.002  -0.004   0.002  0.00  0.00    -0.050 A 
ATOM     27  C   UNL     1       0.006  -0.688  -1.200  0.00  0.00    +0.007 A 
ATOM     28  C   UNL     1       0.024  -2.069  -1.210  0.00  0.00    +0.046 A 
ATOM     29  C   UNL     1       0.039  -2.770  -0.013  0.00  0.00    +0.121 A 
ATOM     30  C   UNL     1       0.036  -2.082   1.191  0.00  0.00    +0.046 A 
ATOM     31  C   UNL     1       0.023  -0.701   1.196  0.00  0.00    +0.007 A 
ENDBRANCH  24  29
ENDBRANCH  23  24
ENDBRANCH  19  23
ENDBRANCH  18  21
ENDBRANCH   1  18
TORSDOF 6
