REMARK  Name = ZINC39466966
REMARK  8 active torsions:
REMARK  status: ('A' for Active; 'I' for Inactive)
REMARK    1  A    between atoms: C_1  and  C_2
REMARK    2  A    between atoms: C_2  and  C_3
REMARK    3  A    between atoms: C_2  and  S_4
REMARK    4  A    between atoms: S_4  and  C_7
REMARK    5  A    between atoms: P_16  and  C_32
REMARK    6  A    between atoms: C_24  and  C_25
REMARK    7  A    between atoms: C_25  and  C_26
REMARK    8  A    between atoms: C_32  and  C_33
REMARK                            x       y       z     vdW  Elec       q    Type
REMARK                         _______ _______ _______ _____ _____    ______ ____
ROOT
ATOM      1  C   UNL     1      -1.548  -2.383  -0.006  0.00  0.00    +0.088 C 
ATOM      2  C   UNL     1      -2.052  -3.103   0.992  0.00  0.00    +0.004 C 
ATOM      3  C   UNL     1      -1.900  -4.600   0.987  0.00  0.00    +0.017 C 
ATOM      4  C   UNL     1      -3.003  -5.249   1.809  0.00  0.00    -0.003 C 
ATOM      5  C   UNL     1      -3.280  -6.682   1.332  0.00  0.00    -0.020 C 
ATOM      6  C   UNL     1      -3.785  -7.440   2.569  0.00  0.00    +0.156 C 
ATOM      7  O   UNL     1      -4.106  -8.797   2.227  0.00  0.00    -0.319 OA
ATOM      8  P   UNL     1      -2.975  -9.652   1.426  0.00  0.00    +0.262 P 
ATOM      9  O   UNL     1      -3.598 -10.792   0.718  0.00  0.00    -0.274 OA
ATOM     10  N   UNL     1      -2.330  -8.588   0.345  0.00  0.00    -0.291 NA
ATOM     11  N   UNL     1      -2.084  -7.298   0.770  0.00  0.00    +0.397 N 
ATOM     12  C   UNL     1      -1.621  -6.612  -0.446  0.00  0.00    -0.046 C 
ATOM     13  C   UNL     1      -1.990  -5.122  -0.446  0.00  0.00    +0.005 C 
ATOM     14  C   UNL     1      -1.040  -4.353  -1.326  0.00  0.00    -0.019 C 
ATOM     15  C   UNL     1      -0.841  -3.058  -1.107  0.00  0.00    -0.022 C 
ATOM     16  H   UNL     1      -2.125  -8.867  -0.561  0.00  0.00    +0.111 HD
ATOM     17  H   UNL     1      -1.348  -7.295   1.460  0.00  0.00    -0.055 HD
ENDROOT
BRANCH   1  18
ATOM     18  S   UNL     1      -1.730  -0.630  -0.015  0.00  0.00    -0.001 S 
ATOM     19  O   UNL     1      -2.518  -0.343   1.133  0.00  0.00    -0.169 OA
ATOM     20  O   UNL     1      -2.208  -0.322  -1.317  0.00  0.00    -0.169 OA
BRANCH  18  22
ATOM     21  C   UNL     1      -0.089   1.544   0.225  0.00  0.00    +0.032 C 
ATOM     22  C   UNL     1      -0.049   0.015   0.203  0.00  0.00    +0.130 C 
ATOM     23  C   UNL     1       0.528  -0.500   1.523  0.00  0.00    +0.032 C 
ENDBRANCH  18  22
ENDBRANCH   1  18
BRANCH  15  24
ATOM     24  C   UNL     1       0.113  -2.285  -1.982  0.00  0.00    +0.071 C 
BRANCH  24  25
ATOM     25  C   UNL     1       0.592  -3.167  -3.106  0.00  0.00    -0.043 A 
ATOM     26  C   UNL     1       1.779  -3.863  -2.980  0.00  0.00    +0.004 A 
ATOM     27  C   UNL     1       2.219  -4.672  -4.011  0.00  0.00    +0.000 A 
ATOM     28  C   UNL     1       1.470  -4.786  -5.168  0.00  0.00    +0.000 A 
ATOM     29  C   UNL     1       0.282  -4.090  -5.293  0.00  0.00    +0.000 A 
ATOM     30  C   UNL     1      -0.160  -3.285  -4.260  0.00  0.00    +0.004 A 
ENDBRANCH  24  25
ENDBRANCH  15  24
BRANCH   8  31
ATOM     31  C   UNL     1      -1.694 -10.246   2.579  0.00  0.00    +0.147 C 
BRANCH  31  32
ATOM     32  C   UNL     1      -2.329 -11.128   3.623  0.00  0.00    -0.037 A 
ATOM     33  C   UNL     1      -2.808 -10.576   4.796  0.00  0.00    +0.004 A 
ATOM     34  C   UNL     1      -3.390 -11.385   5.754  0.00  0.00    +0.000 A 
ATOM     35  C   UNL     1      -3.493 -12.747   5.539  0.00  0.00    +0.000 A 
ATOM     36  C   UNL     1      -3.014 -13.299   4.366  0.00  0.00    +0.000 A 
ATOM     37  C   UNL     1      -2.436 -12.489   3.406  0.00  0.00    +0.004 A 
ENDBRANCH  31  32
ENDBRANCH   8  31
TORSDOF 6
