REMARK  Name = ZINC09171205
REMARK  9 active torsions:
REMARK  status: ('A' for Active; 'I' for Inactive)
REMARK    1  A    between atoms: C_1  and  C_2
REMARK    2  A    between atoms: C_5  and  S_9
REMARK    3  A    between atoms: C_6  and  C_8
REMARK    4  A    between atoms: S_9  and  N_12
REMARK    5  A    between atoms: N_12  and  C_13
REMARK    6  A    between atoms: N_19  and  C_27
REMARK    7  A    between atoms: C_22  and  C_25
REMARK    8  A    between atoms: C_22  and  C_26
REMARK    9  A    between atoms: C_27  and  C_28
REMARK                            x       y       z     vdW  Elec       q    Type
REMARK                         _______ _______ _______ _____ _____    ______ ____
ROOT
ATOM      1  C   UNL     1      -1.042   5.455  -1.129  0.00  0.00    +0.050 A 
ATOM      2  C   UNL     1      -0.018   4.870  -1.864  0.00  0.00    +0.028 A 
ATOM      3  C   UNL     1       0.141   3.497  -1.863  0.00  0.00    +0.049 A 
ATOM      4  C   UNL     1      -0.722   2.700  -1.130  0.00  0.00    +0.142 A 
ATOM      5  C   UNL     1      -1.752   3.283  -0.396  0.00  0.00    +0.080 A 
ATOM      6  C   UNL     1      -1.910   4.659  -0.394  0.00  0.00    +0.051 A 
ATOM      7  N   UNL     1      -2.626   2.464   0.332  0.00  0.00    -0.264 N 
ATOM      8  C   UNL     1      -2.118   1.505   1.138  0.00  0.00    +0.229 C 
ATOM      9  O   UNL     1      -2.861   0.746   1.724  0.00  0.00    -0.275 OA
ATOM     10  C   UNL     1      -0.630   1.383   1.301  0.00  0.00    +0.076 C 
ATOM     11  C   UNL     1      -0.008   0.763   0.051  0.00  0.00    +0.244 C 
ATOM     12  O   UNL     1      -0.569   1.348  -1.121  0.00  0.00    -0.489 OA
ATOM     13  C   UNL     1      -0.329   0.495   2.510  0.00  0.00    +0.024 C 
ATOM     14  C   UNL     1      -0.030   2.771   1.532  0.00  0.00    +0.024 C 
ENDROOT
BRANCH   1  15
ATOM     15  N   UNL     1      -1.198   6.845  -1.131  0.00  0.00    -0.216 N 
ATOM     16  H   UNL     1      -1.354   7.317  -0.297  0.00  0.00    +0.174 HD
BRANCH  15  17
ATOM     17  S   UNL     1      -1.118   7.686  -2.555  0.00  0.00    +0.073 S 
ATOM     18  O   UNL     1      -1.391   9.045  -2.241  0.00  0.00    -0.150 OA
ATOM     19  O   UNL     1       0.081   7.279  -3.200  0.00  0.00    -0.150 OA
BRANCH  17  24
ATOM     20  C   UNL     1      -5.672   5.768  -6.017  0.00  0.00    +0.044 C 
ATOM     21  C   UNL     1      -4.535   6.247  -5.153  0.00  0.00    -0.050 A 
ATOM     22  C   UNL     1      -3.228   6.034  -5.549  0.00  0.00    +0.005 A 
ATOM     23  C   UNL     1      -2.184   6.474  -4.756  0.00  0.00    +0.029 A 
ATOM     24  C   UNL     1      -2.448   7.126  -3.566  0.00  0.00    +0.111 A 
ATOM     25  C   UNL     1      -3.755   7.335  -3.167  0.00  0.00    -0.024 A 
ATOM     26  C   UNL     1      -4.798   6.900  -3.963  0.00  0.00    +0.008 A 
ATOM     27  C   UNL     1      -4.042   8.040  -1.867  0.00  0.00    +0.046 C 
ENDBRANCH  17  24
ENDBRANCH  15  17
ENDBRANCH   1  15
BRANCH   7  28
ATOM     28  C   UNL     1      -4.075   2.646   0.220  0.00  0.00    +0.140 C 
BRANCH  28  29
ATOM     29  C   UNL     1      -4.605   1.784  -0.897  0.00  0.00    -0.015 C 
ATOM     30  C   UNL     1      -5.570   0.930  -0.664  0.00  0.00    +0.005 C 
ENDBRANCH  28  29
ENDBRANCH   7  28
TORSDOF 5
