REMARK  Name = ZINC29192259
REMARK  7 active torsions:
REMARK  status: ('A' for Active; 'I' for Inactive)
REMARK    1  A    between atoms: C_1  and  C_2
REMARK    2  A    between atoms: C_15  and  C_17
REMARK    3  A    between atoms: C_17  and  C_19
REMARK    4  A    between atoms: C_17  and  N_20
REMARK    5  A    between atoms: C_23  and  C_26
REMARK    6  A    between atoms: N_28  and  C_29
REMARK    7  A    between atoms: C_29  and  C_30
REMARK                            x       y       z     vdW  Elec       q    Type
REMARK                         _______ _______ _______ _____ _____    ______ ____
ROOT
ATOM      1  C   UNL     1      -4.152  -3.584   1.445  0.00  0.00    -0.004 C 
ATOM      2  C   UNL     1      -5.413  -3.280   0.632  0.00  0.00    -0.005 C 
ENDROOT
BRANCH   1  16
ATOM      3  C   UNL     1       3.546   2.093  -1.324  0.00  0.00    +0.008 C 
ATOM      4  C   UNL     1       2.193   1.398  -1.158  0.00  0.00    -0.009 C 
ATOM      5  C   UNL     1       1.421   2.037  -0.001  0.00  0.00    +0.008 C 
ATOM      6  C   UNL     1      -0.019   1.522   0.010  0.00  0.00    +0.037 C 
ATOM      7  C   UNL     1       0.002  -0.004   0.002  0.00  0.00    -0.023 A 
ATOM      8  C   UNL     1       1.113  -0.674  -0.386  0.00  0.00    -0.004 A 
ATOM      9  S   UNL     1       0.692  -2.393  -0.240  0.00  0.00    -0.073 S 
ATOM     10  C   UNL     1      -0.965  -2.210   0.338  0.00  0.00    +0.116 A 
ATOM     11  C   UNL     1      -1.139  -0.809   0.399  0.00  0.00    +0.075 A 
ATOM     12  C   UNL     1      -2.417  -0.330   0.843  0.00  0.00    +0.260 A 
ATOM     13  O   UNL     1      -2.669   0.859   0.932  0.00  0.00    -0.267 OA
ATOM     14  N   UNL     1      -3.325  -1.284   1.159  0.00  0.00    -0.312 N 
ATOM     15  H   UNL     1      -4.327  -0.996   1.508  0.00  0.00    +0.170 HD
ATOM     16  C   UNL     1      -3.065  -2.611   1.067  0.00  0.00    +0.097 A 
ATOM     17  N   UNL     1      -1.908  -3.088   0.665  0.00  0.00    -0.228 NA
ATOM     18  C   UNL     1       2.413  -0.088  -0.840  0.00  0.00    +0.046 C 
ENDBRANCH   1  16
BRANCH   1  19
ATOM     19  N   UNL     1      -3.704  -4.953   1.160  0.00  0.00    +0.386 N 
ATOM     20  C   UNL     1      -3.414  -5.126  -0.269  0.00  0.00    -0.077 C 
ATOM     21  C   UNL     1      -2.814  -6.514  -0.505  0.00  0.00    -0.006 C 
ATOM     22  C   UNL     1      -3.806  -7.580  -0.034  0.00  0.00    +0.071 C 
ATOM     23  C   UNL     1      -4.128  -7.349   1.445  0.00  0.00    -0.006 C 
ATOM     24  C   UNL     1      -4.690  -5.937   1.625  0.00  0.00    -0.077 C 
ATOM     25  H   UNL     1      -2.770  -5.127   1.715  0.00  0.00    -0.081 HD
BRANCH  22  26
ATOM     26  C   UNL     1      -3.196  -8.947  -0.209  0.00  0.00    +0.216 C 
ATOM     27  O   UNL     1      -3.034  -9.667   0.754  0.00  0.00    -0.276 OA
ATOM     28  N   UNL     1      -2.830  -9.371  -1.435  0.00  0.00    -0.311 N 
ATOM     29  H   UNL     1      -2.977  -8.718  -2.308  0.00  0.00    +0.149 HD
BRANCH  28  30
ATOM     30  C   UNL     1      -2.237 -10.700  -1.605  0.00  0.00    +0.139 C 
BRANCH  30  31
ATOM     31  C   UNL     1      -1.921 -10.926  -3.061  0.00  0.00    -0.030 A 
ATOM     32  C   UNL     1      -2.865 -11.501  -3.892  0.00  0.00    +0.005 A 
ATOM     33  C   UNL     1      -2.576 -11.704  -5.228  0.00  0.00    +0.000 A 
ATOM     34  C   UNL     1      -1.341 -11.342  -5.731  0.00  0.00    +0.000 A 
ATOM     35  C   UNL     1      -0.395 -10.773  -4.899  0.00  0.00    +0.000 A 
ATOM     36  C   UNL     1      -0.685 -10.565  -3.564  0.00  0.00    +0.005 A 
ENDBRANCH  30  31
ENDBRANCH  28  30
ENDBRANCH  22  26
ENDBRANCH   1  19
TORSDOF 5
