REMARK  Name = ZINC38687486
REMARK  10 active torsions:
REMARK  status: ('A' for Active; 'I' for Inactive)
REMARK    1  A    between atoms: C_1  and  C_2
REMARK    2  A    between atoms: C_2  and  C_3
REMARK    3  A    between atoms: C_3  and  O_4
REMARK    4  A    between atoms: O_4  and  C_5
REMARK    5  A    between atoms: C_8  and  C_11
REMARK    6  A    between atoms: C_16  and  O_25
REMARK    7  A    between atoms: C_20  and  N_24
REMARK    8  A    between atoms: C_21  and  C_22
REMARK    9  A    between atoms: O_25  and  C_26
REMARK   10  A    between atoms: C_26  and  C_28
REMARK                            x       y       z     vdW  Elec       q    Type
REMARK                         _______ _______ _______ _____ _____    ______ ____
ROOT
ATOM      1  C   UNL     1      -6.361  -4.633   0.065  0.00  0.00    +0.098 C 
ATOM      2  C   UNL     1      -6.492  -5.475  -1.177  0.00  0.00    +0.008 A 
ATOM      3  C   UNL     1      -6.868  -4.878  -2.367  0.00  0.00    +0.012 A 
ATOM      4  C   UNL     1      -6.994  -5.633  -3.516  0.00  0.00    +0.047 A 
ATOM      5  C   UNL     1      -6.742  -6.998  -3.479  0.00  0.00    +0.135 A 
ATOM      6  C   UNL     1      -6.364  -7.599  -2.289  0.00  0.00    +0.093 A 
ATOM      7  C   UNL     1      -6.239  -6.837  -1.135  0.00  0.00    +0.138 A 
ATOM      8  O   UNL     1      -5.868  -7.440   0.022  0.00  0.00    -0.441 OA
ATOM      9  C   UNL     1      -6.109  -6.838   1.198  0.00  0.00    +0.199 C 
ATOM     10  C   UNL     1      -6.349  -5.511   1.285  0.00  0.00    +0.098 C 
ENDROOT
BRANCH   1  14
ATOM     11  C   UNL     1      -2.718  -2.406  -0.112  0.00  0.00    +0.121 A 
ATOM     12  C   UNL     1      -3.935  -1.743  -0.031  0.00  0.00    +0.046 A 
ATOM     13  C   UNL     1      -5.111  -2.466   0.026  0.00  0.00    +0.008 A 
ATOM     14  C   UNL     1      -5.077  -3.848   0.003  0.00  0.00    -0.034 A 
ATOM     15  C   UNL     1      -3.865  -4.510  -0.077  0.00  0.00    +0.008 A 
ATOM     16  C   UNL     1      -2.687  -3.792  -0.141  0.00  0.00    +0.046 A 
BRANCH  11  17
ATOM     17  O   UNL     1      -1.560  -1.697  -0.168  0.00  0.00    -0.492 OA
BRANCH  17  18
ATOM     18  C   UNL     1      -1.668  -0.273  -0.133  0.00  0.00    +0.229 C 
BRANCH  18  20
ATOM     19  C   UNL     1      -0.387   1.872  -0.169  0.00  0.00    +0.007 C 
ATOM     20  C   UNL     1      -0.271   0.347  -0.206  0.00  0.00    +0.038 C 
ENDBRANCH  18  20
ENDBRANCH  17  18
ENDBRANCH  11  17
ENDBRANCH   1  14
BRANCH   9  21
ATOM     21  N   UNL     1      -6.110  -7.593   2.345  0.00  0.00    -0.328 N 
ATOM     22  H   UNL     1      -5.939  -8.546   2.298  0.00  0.00    +0.145 HD
ATOM     23  H   UNL     1      -6.282  -7.173   3.202  0.00  0.00    +0.145 HD
ENDBRANCH   9  21
BRANCH  10  24
ATOM     24  C   UNL     1      -6.598  -4.930   2.570  0.00  0.00    +0.101 C 
ATOM     25  N   UNL     1      -6.795  -4.469   3.589  0.00  0.00    -0.191 NA
ENDBRANCH  10  24
BRANCH   5  26
ATOM     26  O   UNL     1      -6.864  -7.743  -4.609  0.00  0.00    -0.422 OA
BRANCH  26  27
ATOM     27  C   UNL     1      -7.882  -8.626  -4.678  0.00  0.00    +0.353 C 
ATOM     28  O   UNL     1      -8.715  -8.664  -3.793  0.00  0.00    -0.244 OA
BRANCH  27  29
ATOM     29  C   UNL     1      -7.983  -9.541  -5.819  0.00  0.00    +0.116 A 
ATOM     30  C   UNL     1      -8.930 -10.488  -6.067  0.00  0.00    +0.070 A 
ATOM     31  C   UNL     1      -8.849 -11.272  -7.233  0.00  0.00    +0.008 A 
ATOM     32  C   UNL     1      -9.728 -12.299  -7.663  0.00  0.00    +0.010 A 
ATOM     33  C   UNL     1      -9.503 -12.964  -8.825  0.00  0.00    +0.001 A 
ATOM     34  C   UNL     1      -8.411 -12.670  -9.633  0.00  0.00    +0.001 A 
ATOM     35  C   UNL     1      -7.531 -11.678  -9.252  0.00  0.00    +0.016 A 
ATOM     36  C   UNL     1      -7.746 -10.994  -8.075  0.00  0.00    +0.022 A 
ATOM     37  S   UNL     1      -6.900  -9.681  -7.231  0.00  0.00    -0.080 S 
ATOM     38 CL   UNL     1     -10.234 -10.727  -4.947  0.00  0.00    -0.082 Cl
ENDBRANCH  27  29
ENDBRANCH  26  27
ENDBRANCH   5  26
TORSDOF 9
