REMARK  Name = ZINC62823970
REMARK  4 active torsions:
REMARK  status: ('A' for Active; 'I' for Inactive)
REMARK    1  A    between atoms: C_1  and  N_2
REMARK    2  A    between atoms: C_5  and  C_8
REMARK    3  A    between atoms: N_10  and  C_11
REMARK    4  A    between atoms: C_16  and  C_17
REMARK                            x       y       z     vdW  Elec       q    Type
REMARK                         _______ _______ _______ _____ _____    ______ ____
ROOT
ATOM      1  C   UNL     1       0.970  -2.984   1.507  0.00  0.00    +0.218 C 
ATOM      2  O   UNL     1       0.129  -2.842   2.369  0.00  0.00    -0.275 OA
ATOM      3  N   UNL     1       1.464  -4.209   1.242  0.00  0.00    -0.285 N 
ATOM      4  H   UNL     1       2.088  -4.332   0.509  0.00  0.00    +0.155 HD
ENDROOT
BRANCH   1   9
ATOM      5  C   UNL     1      -0.045   1.446  -0.028  0.00  0.00    -0.096 C 
ATOM      6  N   UNL     1      -0.023  -0.023  -0.025  0.00  0.00    +0.378 N 
ATOM      7  C   UNL     1       0.732  -0.526  -1.201  0.00  0.00    -0.079 C 
ATOM      8  C   UNL     1       1.144  -1.957  -0.772  0.00  0.00    -0.008 C 
ATOM      9  C   UNL     1       1.462  -1.789   0.731  0.00  0.00    +0.057 C 
ATOM     10  C   UNL     1       0.704  -0.520   1.163  0.00  0.00    -0.067 C 
ATOM     11  H   UNL     1      -0.965  -0.386  -0.034  0.00  0.00    -0.082 HD
ENDBRANCH   1   9
BRANCH   3  12
ATOM     12  C   UNL     1       1.080  -5.298   2.019  0.00  0.00    +0.048 A 
ATOM     13  C   UNL     1      -0.214  -5.377   2.517  0.00  0.00    +0.025 A 
ATOM     14  C   UNL     1      -0.594  -6.457   3.288  0.00  0.00    +0.016 A 
ATOM     15  C   UNL     1       0.310  -7.470   3.571  0.00  0.00    +0.014 A 
ATOM     16  C   UNL     1       1.599  -7.409   3.087  0.00  0.00    +0.031 A 
ATOM     17  C   UNL     1       1.997  -6.324   2.300  0.00  0.00    +0.085 A 
ATOM     18  I   UNL     1      -0.286  -9.101   4.743  0.00  0.00    -0.044 I 
BRANCH  17  19
ATOM     19  C   UNL     1       3.369  -6.255   1.773  0.00  0.00    +0.388 C 
ATOM     20  O   UNL     1       4.135  -7.195   1.937  0.00  0.00    -0.241 OA
ATOM     21  O   UNL     1       3.744  -5.257   1.173  0.00  0.00    -0.241 OA
ENDBRANCH  17  19
ENDBRANCH   3  12
TORSDOF 3
