REMARK  Name = ZINC31829560
REMARK  7 active torsions:
REMARK  status: ('A' for Active; 'I' for Inactive)
REMARK    1  A    between atoms: C_1  and  C_2
REMARK    2  A    between atoms: C_2  and  O_3
REMARK    3  A    between atoms: O_3  and  C_4
REMARK    4  A    between atoms: C_4  and  C_6
REMARK    5  A    between atoms: C_10  and  N_11
REMARK    6  A    between atoms: C_13  and  C_17
REMARK    7  A    between atoms: C_20  and  O_23
REMARK                            x       y       z     vdW  Elec       q    Type
REMARK                         _______ _______ _______ _____ _____    ______ ____
ROOT
ATOM      1  C   UNL     1       0.729   3.741   0.017  0.00  0.00    +0.090 A 
ATOM      2  C   UNL     1       1.047   2.322   0.004  0.00  0.00    -0.021 A 
ATOM      3  C   UNL     1      -0.018   1.494   0.010  0.00  0.00    -0.004 A 
ATOM      4  S   UNL     1      -1.427   2.565   0.037  0.00  0.00    -0.078 S 
ATOM      5  C   UNL     1      -0.615   4.096   0.032  0.00  0.00    +0.078 A 
ATOM      6  C   UNL     1       0.002  -0.004   0.002  0.00  0.00    +0.051 C 
ATOM      7  C   UNL     1       1.419  -0.471   0.364  0.00  0.00    +0.024 C 
ATOM      8  C   UNL     1       2.428   0.316  -0.478  0.00  0.00    +0.013 C 
ATOM      9  C   UNL     1       2.468   1.773  -0.013  0.00  0.00    +0.037 C 
ENDROOT
BRANCH   7  10
ATOM     10  C   UNL     1       1.557  -1.943   0.071  0.00  0.00    -0.044 A 
ATOM     11  C   UNL     1       1.365  -2.411  -1.216  0.00  0.00    +0.007 A 
ATOM     12  C   UNL     1       1.496  -3.759  -1.488  0.00  0.00    +0.045 A 
ATOM     13  C   UNL     1       1.808  -4.645  -0.467  0.00  0.00    +0.117 A 
ATOM     14  C   UNL     1       1.995  -4.173   0.825  0.00  0.00    +0.045 A 
ATOM     15  C   UNL     1       1.869  -2.823   1.090  0.00  0.00    +0.007 A 
BRANCH  13  16
ATOM     16  O   UNL     1       1.931  -5.972  -0.731  0.00  0.00    -0.507 OA
ATOM     17  H   UNL     1       2.179  -6.673   0.080  0.00  0.00    +0.292 HD
ENDBRANCH  13  16
ENDBRANCH   7  10
BRANCH   5  18
ATOM     18  N   UNL     1      -1.169   5.361   0.046  0.00  0.00    -0.352 N 
ATOM     19  H   UNL     1      -2.262   5.483   0.057  0.00  0.00    +0.143 HD
ATOM     20  H   UNL     1      -0.517   6.247   0.046  0.00  0.00    +0.143 HD
ENDBRANCH   5  18
BRANCH   1  21
ATOM     21  C   UNL     1       1.782   4.756   0.013  0.00  0.00    +0.342 C 
ATOM     22  O   UNL     1       2.209   5.185  -1.042  0.00  0.00    -0.245 OA
BRANCH  21  23
ATOM     23  O   UNL     1       2.280   5.216   1.179  0.00  0.00    -0.461 OA
BRANCH  23  25
ATOM     24  C   UNL     1       3.742   6.604   2.512  0.00  0.00    +0.048 C 
ATOM     25  C   UNL     1       3.307   6.207   1.100  0.00  0.00    +0.229 C 
ENDBRANCH  23  25
ENDBRANCH  21  23
ENDBRANCH   1  21
TORSDOF 6
