REMARK  Name = ZINC48412425
REMARK  2 active torsions:
REMARK  status: ('A' for Active; 'I' for Inactive)
REMARK    1  A    between atoms: C_11  and  C_15
REMARK    2  A    between atoms: C_15  and  C_16
REMARK                            x       y       z     vdW  Elec       q    Type
REMARK                         _______ _______ _______ _____ _____    ______ ____
ROOT
ATOM      1  C   UNL     1      -0.019   1.524   0.010  0.00  0.00    +0.005 C 
ATOM      2  C   UNL     1       1.415   2.064  -0.000  0.00  0.00    +0.005 C 
ATOM      3  C   UNL     1       2.060   1.770   1.361  0.00  0.00    +0.043 C 
ATOM      4  C   UNL     1       1.796   0.339   1.712  0.00  0.00    -0.004 A 
ATOM      5  C   UNL     1       0.894  -0.493   1.140  0.00  0.00    -0.023 A 
ATOM      6  C   UNL     1       0.832  -1.845   1.664  0.00  0.00    +0.075 A 
ATOM      7  C   UNL     1      -0.037  -2.900   1.223  0.00  0.00    +0.260 A 
ATOM      8  O   UNL     1      -0.842  -2.742   0.322  0.00  0.00    -0.267 OA
ATOM      9  N   UNL     1       0.096  -4.080   1.873  0.00  0.00    -0.310 N 
ATOM     10  H   UNL     1      -0.472  -4.821   1.607  0.00  0.00    +0.170 HD
ATOM     11  C   UNL     1       0.984  -4.277   2.876  0.00  0.00    +0.113 A 
ATOM     12  N   UNL     1       1.796  -3.337   3.308  0.00  0.00    -0.226 NA
ATOM     13  C   UNL     1       1.723  -2.147   2.718  0.00  0.00    +0.116 A 
ATOM     14  S   UNL     1       2.596  -0.633   2.964  0.00  0.00    -0.073 S 
ATOM     15  C   UNL     1       0.002  -0.004   0.002  0.00  0.00    +0.037 C 
ENDROOT
BRANCH  11  16
ATOM     16  C   UNL     1       1.046  -5.634   3.527  0.00  0.00    +0.106 C 
BRANCH  16  17
ATOM     17  C   UNL     1       2.111  -5.626   4.625  0.00  0.00    +0.126 C 
ATOM     18  C   UNL     1       2.266  -7.044   5.216  0.00  0.00    +0.034 C 
ATOM     19  C   UNL     1       2.455  -6.751   6.729  0.00  0.00    +0.031 C 
ATOM     20  C   UNL     1       1.550  -5.506   6.903  0.00  0.00    +0.160 C 
ATOM     21  O   UNL     1       1.708  -4.754   5.687  0.00  0.00    -0.376 OA
ENDBRANCH  16  17
ENDBRANCH  11  16
TORSDOF 2
