REMARK  Name = ZINC09030195
REMARK  5 active torsions:
REMARK  status: ('A' for Active; 'I' for Inactive)
REMARK    1  A    between atoms: C_3  and  C_6
REMARK    2  A    between atoms: C_6  and  C_8
REMARK    3  A    between atoms: C_10  and  C_22
REMARK    4  A    between atoms: C_16  and  C_17
REMARK    5  A    between atoms: C_16  and  O_21
REMARK                            x       y       z     vdW  Elec       q    Type
REMARK                         _______ _______ _______ _____ _____    ______ ____
ROOT
ATOM      1  C   UNL     1      -0.101   4.344   2.508  0.00  0.00    +0.145 C 
ATOM      2  C   UNL     1      -1.091   3.187   2.336  0.00  0.00    +0.120 C 
ATOM      3  N   UNL     1      -1.783   2.956   3.605  0.00  0.00    -0.292 N 
ATOM      4  C   UNL     1      -1.196   3.229   4.780  0.00  0.00    +0.302 C 
ATOM      5  O   UNL     1      -1.812   3.008   5.805  0.00  0.00    -0.253 OA
ATOM      6  N   UNL     1       0.043   3.735   4.869  0.00  0.00    -0.264 N 
ATOM      7  C   UNL     1       0.839   4.012   3.672  0.00  0.00    +0.243 C 
ATOM      8  H   UNL     1      -2.685   2.597   3.597  0.00  0.00    +0.151 HD
ATOM      9  H   UNL     1       0.418   3.922   5.743  0.00  0.00    +0.153 HD
ENDROOT
BRANCH   2  10
ATOM     10  C   UNL     1      -2.097   3.540   1.271  0.00  0.00    -0.026 A 
ATOM     11  C   UNL     1      -3.221   4.275   1.598  0.00  0.00    +0.006 A 
ATOM     12  C   UNL     1      -4.141   4.603   0.621  0.00  0.00    +0.015 A 
ATOM     13  C   UNL     1      -3.943   4.186  -0.683  0.00  0.00    +0.018 A 
ATOM     14  C   UNL     1      -2.822   3.445  -1.009  0.00  0.00    +0.015 A 
ATOM     15  C   UNL     1      -1.899   3.122  -0.032  0.00  0.00    +0.006 A 
ATOM     16 BR   UNL     1      -5.207   4.627  -2.020  0.00  0.00    -0.050 Br
ENDBRANCH   2  10
BRANCH   7  17
ATOM     17  C   UNL     1       1.764   5.202   3.937  0.00  0.00    +0.436 C 
ATOM     18  F   UNL     1       2.616   4.900   5.005  0.00  0.00    -0.166 F 
ATOM     19  F   UNL     1       0.997   6.327   4.256  0.00  0.00    -0.166 F 
ATOM     20  F   UNL     1       2.525   5.465   2.793  0.00  0.00    -0.166 F 
ENDBRANCH   7  17
BRANCH   1  21
ATOM     21  C   UNL     1      -0.853   5.614   2.811  0.00  0.00    +0.179 C 
ATOM     22  O   UNL     1      -1.283   5.813   3.929  0.00  0.00    -0.291 OA
BRANCH  21  25
ATOM     23  C   UNL     1      -1.768   8.540   0.713  0.00  0.00    +0.008 A 
ATOM     24  C   UNL     1      -1.716   7.796   1.862  0.00  0.00    +0.019 A 
ATOM     25  C   UNL     1      -1.057   6.573   1.794  0.00  0.00    +0.055 A 
ATOM     26  S   UNL     1      -0.531   6.535   0.090  0.00  0.00    -0.094 S 
ATOM     27  C   UNL     1      -1.186   8.057  -0.419  0.00  0.00    +0.046 A 
ENDBRANCH  21  25
ENDBRANCH   1  21
BRANCH   7  28
ATOM     28  O   UNL     1       1.622   2.862   3.343  0.00  0.00    -0.364 OA
ATOM     29  H   UNL     1       2.238   2.594   4.038  0.00  0.00    +0.212 HD
ENDBRANCH   7  28
TORSDOF 5
