REMARK  Name = ZINC39355815
REMARK  3 active torsions:
REMARK  status: ('A' for Active; 'I' for Inactive)
REMARK    1  A    between atoms: C_4  and  C_7
REMARK    2  A    between atoms: C_17  and  S_19
REMARK    3  A    between atoms: S_19  and  C_20
REMARK                            x       y       z     vdW  Elec       q    Type
REMARK                         _______ _______ _______ _____ _____    ______ ____
ROOT
ATOM      1  C   UNL     1       3.648  -0.649  -0.037  0.00  0.00    -0.009 C 
ATOM      2  C   UNL     1       4.861   0.036  -0.143  0.00  0.00    +0.002 A 
ATOM      3  C   UNL     1       4.886   1.444  -0.238  0.00  0.00    +0.011 A 
ATOM      4  C   UNL     1       6.077   2.091  -0.341  0.00  0.00    +0.021 A 
ATOM      5  C   UNL     1       7.283   1.391  -0.354  0.00  0.00    +0.043 A 
ATOM      6  C   UNL     1       7.322   0.021  -0.264  0.00  0.00    +0.044 A 
ATOM      7  C   UNL     1       6.126  -0.708  -0.156  0.00  0.00    +0.042 A 
ATOM      8  N   UNL     1       6.165  -2.042  -0.069  0.00  0.00    -0.284 N 
ATOM      9  C   UNL     1       5.088  -2.797   0.034  0.00  0.00    +0.235 C 
ATOM     10  O   UNL     1       5.199  -4.007   0.109  0.00  0.00    -0.274 OA
ATOM     11  C   UNL     1       3.717  -2.161   0.067  0.00  0.00    +0.170 C 
ATOM     12 CL   UNL     1       8.772   2.273  -0.487  0.00  0.00    -0.083 Cl
ATOM     13  H   UNL     1       7.031  -2.478  -0.083  0.00  0.00    +0.155 HD
ENDROOT
BRANCH   1  17
ATOM     14  C   UNL     1      -0.017   1.380   0.010  0.00  0.00    +0.000 A 
ATOM     15  C   UNL     1       0.781   1.428  -1.121  0.00  0.00    +0.001 A 
ATOM     16  C   UNL     1       1.988   0.765  -1.147  0.00  0.00    +0.008 A 
ATOM     17  C   UNL     1       2.408   0.038  -0.021  0.00  0.00    -0.020 A 
ATOM     18  C   UNL     1       1.591  -0.004   1.121  0.00  0.00    +0.008 A 
ATOM     19  C   UNL     1       0.388   0.666   1.126  0.00  0.00    +0.001 A 
ENDBRANCH   1  17
BRANCH  11  20
ATOM     20  S   UNL     1       2.755  -2.858  -1.303  0.00  0.00    -0.079 S 
BRANCH  20  21
ATOM     21  C   UNL     1       2.780  -4.594  -1.002  0.00  0.00    +0.161 A 
ATOM     22  N   UNL     1       3.349  -5.263  -0.018  0.00  0.00    -0.133 NA
ATOM     23  N   UNL     1       3.244  -6.635   0.027  0.00  0.00    -0.125 NA
ATOM     24  C   UNL     1       2.575  -7.273  -0.914  0.00  0.00    +0.180 A 
ATOM     25  S   UNL     1       2.035  -5.917  -1.944  0.00  0.00    -0.025 S 
ATOM     26  N   UNL     1       2.347  -8.636  -1.061  0.00  0.00    -0.336 N 
ATOM     27  H   UNL     1       2.705  -9.261  -0.411  0.00  0.00    +0.144 HD
ATOM     28  H   UNL     1       1.831  -8.963  -1.814  0.00  0.00    +0.144 HD
ENDBRANCH  20  21
ENDBRANCH  11  20
TORSDOF 3
