REMARK  Name = ZINC39465838
REMARK  9 active torsions:
REMARK  status: ('A' for Active; 'I' for Inactive)
REMARK    1  A    between atoms: C_1  and  C_2
REMARK    2  A    between atoms: C_2  and  O_3
REMARK    3  A    between atoms: O_3  and  C_4
REMARK    4  A    between atoms: C_9  and  S_10
REMARK    5  A    between atoms: S_10  and  C_13
REMARK    6  A    between atoms: C_13  and  C_14
REMARK    7  A    between atoms: C_13  and  C_15
REMARK    8  A    between atoms: P_20  and  S_26
REMARK    9  A    between atoms: S_26  and  C_29
REMARK                            x       y       z     vdW  Elec       q    Type
REMARK                         _______ _______ _______ _____ _____    ______ ____
ROOT
ATOM      1  C   UNL     1       0.802  -1.824   1.306  0.00  0.00    +0.145 A 
ATOM      2  C   UNL     1       0.261  -2.674   0.354  0.00  0.00    +0.051 A 
ATOM      3  C   UNL     1       0.371  -4.047   0.500  0.00  0.00    -0.038 A 
ATOM      4  C   UNL     1       1.019  -4.574   1.597  0.00  0.00    -0.021 A 
ATOM      5  C   UNL     1       1.561  -3.723   2.550  0.00  0.00    +0.036 A 
ATOM      6  C   UNL     1       1.460  -2.355   2.405  0.00  0.00    +0.130 A 
ATOM      7  C   UNL     1       1.163  -6.059   1.804  0.00  0.00    +0.130 C 
ATOM      8  C   UNL     1       2.583  -6.360   2.291  0.00  0.00    +0.195 C 
ATOM      9  O   UNL     1       2.677  -7.765   2.599  0.00  0.00    -0.298 OA
ATOM     10  P   UNL     1       2.159  -8.834   1.488  0.00  0.00    +0.424 P 
ATOM     11  O   UNL     1       3.200  -9.047   0.458  0.00  0.00    -0.246 OA
ATOM     12  N   UNL     1       0.814  -8.152   0.809  0.00  0.00    -0.161 NA
ATOM     13  N   UNL     1       0.881  -6.795   0.571  0.00  0.00    -0.224 NA
ATOM     14  C   UNL     1      -0.384  -6.347  -0.030  0.00  0.00    +0.108 C 
ATOM     15  C   UNL     1      -0.230  -4.934  -0.560  0.00  0.00    +0.052 C 
ATOM     16  H   UNL     1       0.032  -8.681   0.586  0.00  0.00    +0.152 HD
ENDROOT
BRANCH   6  17
ATOM     17  S   UNL     1       2.158  -1.285   3.619  0.00  0.00    +0.003 S 
ATOM     18  O   UNL     1       1.107  -0.394   3.964  0.00  0.00    -0.169 OA
ATOM     19  O   UNL     1       2.718  -2.156   4.591  0.00  0.00    -0.169 OA
BRANCH  17  20
ATOM     20  C   UNL     1       3.475  -0.391   2.749  0.00  0.00    +0.130 C 
ATOM     21  C   UNL     1       4.239   0.486   3.743  0.00  0.00    +0.032 C 
ATOM     22  C   UNL     1       4.437  -1.394   2.109  0.00  0.00    +0.032 C 
ENDBRANCH  17  20
ENDBRANCH   6  17
BRANCH  10  23
ATOM     23  S   UNL     1       1.662 -10.674   2.417  0.00  0.00    +0.085 S 
ATOM     24  O   UNL     1       0.739 -10.369   3.454  0.00  0.00    -0.159 OA
ATOM     25  O   UNL     1       1.360 -11.588   1.373  0.00  0.00    -0.159 OA
BRANCH  23  26
ATOM     26  C   UNL     1       3.122 -11.271   3.203  0.00  0.00    +0.099 A 
ATOM     27  C   UNL     1       3.996 -12.087   2.510  0.00  0.00    +0.027 A 
ATOM     28  C   UNL     1       5.141 -12.555   3.126  0.00  0.00    +0.002 A 
ATOM     29  C   UNL     1       5.412 -12.208   4.436  0.00  0.00    +0.000 A 
ATOM     30  C   UNL     1       4.538 -11.391   5.130  0.00  0.00    +0.002 A 
ATOM     31  C   UNL     1       3.395 -10.919   4.512  0.00  0.00    +0.027 A 
ENDBRANCH  23  26
ENDBRANCH  10  23
BRANCH   1  32
ATOM     32  O   UNL     1       0.693  -0.477   1.160  0.00  0.00    -0.490 OA
BRANCH  32  34
ATOM     33  C   UNL     1      -0.019   1.526   0.010  0.00  0.00    +0.048 C 
ATOM     34  C   UNL     1       0.002  -0.004   0.002  0.00  0.00    +0.226 C 
ENDBRANCH  32  34
ENDBRANCH   1  32
TORSDOF 6
