REMARK  Name = ZINC15776422
REMARK  11 active torsions:
REMARK  status: ('A' for Active; 'I' for Inactive)
REMARK    1  A    between atoms: C_1  and  N_2
REMARK    2  A    between atoms: N_2  and  C_3
REMARK    3  A    between atoms: N_2  and  C_4
REMARK    4  A    between atoms: C_7  and  C_10
REMARK    5  A    between atoms: C_10  and  C_24
REMARK    6  A    between atoms: C_14  and  N_21
REMARK    7  A    between atoms: N_21  and  C_22
REMARK    8  A    between atoms: N_21  and  C_23
REMARK    9  A    between atoms: C_27  and  N_30
REMARK   10  A    between atoms: N_30  and  C_31
REMARK   11  A    between atoms: N_30  and  C_32
REMARK                            x       y       z     vdW  Elec       q    Type
REMARK                         _______ _______ _______ _____ _____    ______ ____
ROOT
ATOM      1  C   UNL     1       0.009  -4.287  -0.091  0.00  0.00    +0.110 C 
ATOM      2  C   UNL     1       0.047  -2.790   0.013  0.00  0.00    -0.000 A 
ATOM      3  C   UNL     1      -1.164  -2.110   0.097  0.00  0.00    +0.009 A 
ATOM      4  C   UNL     1      -1.194  -0.734   0.158  0.00  0.00    +0.023 A 
ATOM      5  C   UNL     1      -0.009  -0.010   0.126  0.00  0.00    +0.030 A 
ATOM      6  C   UNL     1       1.201  -0.686   0.052  0.00  0.00    +0.042 A 
ATOM      7  C   UNL     1       1.223  -2.067   0.006  0.00  0.00    +0.063 A 
ATOM      8  S   UNL     1       2.780  -2.901  -0.039  0.00  0.00    +0.140 S 
ATOM      9  O   UNL     1       3.209  -2.904   1.315  0.00  0.00    -0.234 OA
ATOM     10  N   UNL     1       2.326  -4.478  -0.321  0.00  0.00    -0.169 NA
ATOM     11  N   UNL     1       1.232  -4.930   0.377  0.00  0.00    -0.226 NA
ATOM     12  H   UNL     1       2.807  -5.045  -0.944  0.00  0.00    +0.157 HD
ATOM     13  H   UNL     1       1.355  -4.794   1.369  0.00  0.00    +0.143 HD
ENDROOT
BRANCH   1  17
ATOM     14  C   UNL     1      -3.275  -5.739   2.228  0.00  0.00    +0.029 A 
ATOM     15  C   UNL     1      -2.049  -5.495   2.834  0.00  0.00    +0.023 A 
ATOM     16  C   UNL     1      -0.990  -5.026   2.082  0.00  0.00    +0.008 A 
ATOM     17  C   UNL     1      -1.149  -4.799   0.727  0.00  0.00    -0.017 A 
ATOM     18  C   UNL     1      -2.370  -5.036   0.122  0.00  0.00    +0.008 A 
ATOM     19  C   UNL     1      -3.432  -5.510   0.867  0.00  0.00    +0.023 A 
BRANCH  14  21
ATOM     20  C   UNL     1      -4.182  -6.454   4.421  0.00  0.00    +0.129 C 
ATOM     21  N   UNL     1      -4.349  -6.213   2.986  0.00  0.00    -0.336 N 
ATOM     22  C   UNL     1      -5.641  -6.470   2.345  0.00  0.00    +0.129 C 
ENDBRANCH  14  21
ENDBRANCH   1  17
BRANCH   1  23
ATOM     23  C   UNL     1      -0.216  -4.666  -1.532  0.00  0.00    -0.017 A 
ATOM     24  C   UNL     1      -0.941  -3.829  -2.360  0.00  0.00    +0.008 A 
ATOM     25  C   UNL     1      -1.144  -4.171  -3.683  0.00  0.00    +0.023 A 
ATOM     26  C   UNL     1      -0.629  -5.362  -4.178  0.00  0.00    +0.029 A 
ATOM     27  C   UNL     1       0.093  -6.204  -3.341  0.00  0.00    +0.023 A 
ATOM     28  C   UNL     1       0.297  -5.853  -2.021  0.00  0.00    +0.008 A 
BRANCH  26  29
ATOM     29  N   UNL     1      -0.838  -5.714  -5.513  0.00  0.00    -0.336 N 
ATOM     30  C   UNL     1      -0.192  -6.906  -6.067  0.00  0.00    +0.129 C 
ATOM     31  C   UNL     1      -1.704  -4.890  -6.361  0.00  0.00    +0.129 C 
ENDBRANCH  26  29
ENDBRANCH   1  23
BRANCH   5  32
ATOM     32  N   UNL     1      -0.034   1.385   0.173  0.00  0.00    -0.336 N 
ATOM     33  C   UNL     1       1.219   2.138   0.272  0.00  0.00    +0.129 C 
ATOM     34  C   UNL     1      -1.314   2.097   0.116  0.00  0.00    +0.129 C 
ENDBRANCH   5  32
TORSDOF 5
