REMARK  Name = ZINC49629771
REMARK  7 active torsions:
REMARK  status: ('A' for Active; 'I' for Inactive)
REMARK    1  A    between atoms: C_1  and  C_2
REMARK    2  A    between atoms: C_2  and  C_4
REMARK    3  A    between atoms: C_2  and  N_13
REMARK    4  A    between atoms: C_4  and  C_5
REMARK    5  A    between atoms: C_5  and  C_6
REMARK    6  A    between atoms: C_9  and  O_12
REMARK    7  A    between atoms: C_14  and  C_16
REMARK                            x       y       z     vdW  Elec       q    Type
REMARK                         _______ _______ _______ _____ _____    ______ ____
ROOT
ATOM      1  C   UNL     1      -0.019   1.526   0.010  0.00  0.00    +0.028 C 
ATOM      2  C   UNL     1       0.002  -0.004   0.002  0.00  0.00    +0.070 C 
ENDROOT
BRANCH   2   3
ATOM      3  N   UNL     1      -1.372  -0.511   0.012  0.00  0.00    -0.309 N 
ATOM      4  C   UNL     1      -2.029  -0.655   1.181  0.00  0.00    +0.246 C 
ATOM      5  O   UNL     1      -1.480  -0.364   2.226  0.00  0.00    -0.270 OA
ATOM      6  H   UNL     1      -1.810  -0.743  -0.822  0.00  0.00    +0.149 HD
BRANCH   4   7
ATOM      7  C   UNL     1      -3.416  -1.167   1.191  0.00  0.00    +0.056 A 
ATOM      8  C   UNL     1      -4.110  -1.316   2.398  0.00  0.00    +0.031 A 
ATOM      9  C   UNL     1      -5.407  -1.799   2.353  0.00  0.00    +0.037 A 
ATOM     10  C   UNL     1      -5.969  -2.116   1.128  0.00  0.00    +0.126 A 
ATOM     11  N   UNL     1      -5.290  -1.966   0.008  0.00  0.00    -0.261 NA
ATOM     12  C   UNL     1      -4.056  -1.504  -0.001  0.00  0.00    +0.123 A 
ATOM     13 BR   UNL     1      -6.399  -2.024   3.947  0.00  0.00    -0.049 Br
ENDBRANCH   4   7
ENDBRANCH   2   3
BRANCH   2  14
ATOM     14  C   UNL     1       0.718  -0.497  -1.257  0.00  0.00    +0.026 C 
BRANCH  14  15
ATOM     15  C   UNL     1       0.849  -2.021  -1.205  0.00  0.00    +0.037 C 
BRANCH  15  16
ATOM     16  C   UNL     1       1.555  -2.507  -2.445  0.00  0.00    -0.047 A 
ATOM     17  C   UNL     1       0.823  -2.834  -3.572  0.00  0.00    +0.007 A 
ATOM     18  C   UNL     1       1.467  -3.280  -4.709  0.00  0.00    +0.045 A 
ATOM     19  C   UNL     1       2.849  -3.400  -4.721  0.00  0.00    +0.117 A 
ATOM     20  C   UNL     1       3.581  -3.071  -3.589  0.00  0.00    +0.045 A 
ATOM     21  C   UNL     1       2.933  -2.620  -2.455  0.00  0.00    +0.007 A 
BRANCH  19  22
ATOM     22  O   UNL     1       3.486  -3.839  -5.839  0.00  0.00    -0.507 OA
ATOM     23  H   UNL     1       3.739  -3.133  -6.449  0.00  0.00    +0.292 HD
ENDBRANCH  19  22
ENDBRANCH  15  16
ENDBRANCH  14  15
ENDBRANCH   2  14
TORSDOF 6
