REMARK  Name = ZINC00919720
REMARK  5 active torsions:
REMARK  status: ('A' for Active; 'I' for Inactive)
REMARK    1  A    between atoms: C_3  and  C_6
REMARK    2  A    between atoms: C_9  and  C_31
REMARK    3  A    between atoms: C_14  and  C_16
REMARK    4  A    between atoms: N_18  and  C_19
REMARK    5  A    between atoms: C_20  and  C_27
REMARK                            x       y       z     vdW  Elec       q    Type
REMARK                         _______ _______ _______ _____ _____    ______ ____
ROOT
ATOM      1  C   UNL     1       3.599   0.625  -0.029  0.00  0.00    +0.140 C 
ATOM      2  C   UNL     1       4.093   0.360  -1.456  0.00  0.00    +0.066 C 
ATOM      3  C   UNL     1       5.626   0.392  -1.491  0.00  0.00    +0.215 C 
ATOM      4  N   UNL     1       6.143  -0.469  -0.424  0.00  0.00    -0.238 N 
ATOM      5  C   UNL     1       5.405  -0.862   0.657  0.00  0.00    +0.119 A 
ATOM      6  C   UNL     1       6.181  -1.644   1.433  0.00  0.00    +0.078 A 
ATOM      7  C   UNL     1       7.447  -1.740   0.811  0.00  0.00    +0.149 A 
ATOM      8  N   UNL     1       7.413  -1.030  -0.303  0.00  0.00    -0.164 NA
ATOM      9  N   UNL     1       4.078  -0.462   0.847  0.00  0.00    -0.319 N 
ATOM     10  H   UNL     1       3.506  -0.875   1.512  0.00  0.00    +0.148 HD
ENDROOT
BRANCH   1  13
ATOM     11  C   UNL     1      -0.016   1.341   0.009  0.00  0.00    +0.041 A 
ATOM     12  C   UNL     1       1.331   1.769  -0.001  0.00  0.00    +0.046 A 
ATOM     13  C   UNL     1       2.092   0.660  -0.014  0.00  0.00    +0.125 A 
ATOM     14  O   UNL     1       1.282  -0.411  -0.012  0.00  0.00    -0.466 OA
ATOM     15  C   UNL     1       0.002  -0.004   0.002  0.00  0.00    +0.195 A 
ENDBRANCH   1  13
BRANCH   7  16
ATOM     16  C   UNL     1       8.607  -2.501   1.319  0.00  0.00    +0.269 C 
ATOM     17  O   UNL     1       8.518  -3.119   2.362  0.00  0.00    -0.268 OA
ATOM     18  N   UNL     1       9.763  -2.510   0.626  0.00  0.00    -0.274 N 
ATOM     19  H   UNL     1       9.833  -2.017  -0.206  0.00  0.00    +0.156 HD
BRANCH  18  20
ATOM     20  C   UNL     1      10.850  -3.224   1.103  0.00  0.00    +0.085 A 
ATOM     21  C   UNL     1      12.105  -3.341   0.534  0.00  0.00    +0.068 A 
ATOM     22  C   UNL     1      13.088  -4.160   1.242  0.00  0.00    -0.023 A 
ATOM     23  C   UNL     1      12.627  -4.706   2.382  0.00  0.00    -0.004 A 
ATOM     24  S   UNL     1      10.950  -4.137   2.505  0.00  0.00    -0.077 S 
ATOM     25  C   UNL     1      13.675  -5.540   3.068  0.00  0.00    +0.043 C 
ATOM     26  C   UNL     1      14.741  -5.799   1.981  0.00  0.00    +0.010 C 
ATOM     27  C   UNL     1      14.542  -4.585   1.050  0.00  0.00    +0.037 C 
BRANCH  21  28
ATOM     28  C   UNL     1      12.437  -2.672  -0.728  0.00  0.00    +0.244 C 
ATOM     29  O   UNL     1      12.898  -1.546  -0.717  0.00  0.00    -0.270 OA
ATOM     30  N   UNL     1      12.233  -3.305  -1.900  0.00  0.00    -0.325 N 
ATOM     31  H   UNL     1      11.866  -4.203  -1.909  0.00  0.00    +0.145 HD
ATOM     32  H   UNL     1      12.453  -2.863  -2.735  0.00  0.00    +0.145 HD
ENDBRANCH  21  28
ENDBRANCH  18  20
ENDBRANCH   7  16
BRANCH   3  33
ATOM     33  C   UNL     1       6.117  -0.117  -2.848  0.00  0.00    +0.412 C 
ATOM     34  F   UNL     1       5.611   0.700  -3.864  0.00  0.00    -0.168 F 
ATOM     35  F   UNL     1       7.516  -0.088  -2.878  0.00  0.00    -0.168 F 
ATOM     36  F   UNL     1       5.674  -1.430  -3.041  0.00  0.00    -0.168 F 
ENDBRANCH   3  33
TORSDOF 5
