REMARK  Name = ZINC60368088
REMARK  12 active torsions:
REMARK  status: ('A' for Active; 'I' for Inactive)
REMARK    1  A    between atoms: C_1  and  N_2
REMARK    2  A    between atoms: N_2  and  C_3
REMARK    3  A    between atoms: N_2  and  C_10
REMARK    4  A    between atoms: C_3  and  C_4
REMARK    5  A    between atoms: C_10  and  C_11
REMARK    6  A    between atoms: C_11  and  C_13
REMARK    7  A    between atoms: C_11  and  O_32
REMARK    8  A    between atoms: C_13  and  S_14
REMARK    9  A    between atoms: S_14  and  C_15
REMARK   10  A    between atoms: C_18  and  C_26
REMARK   11  A    between atoms: N_19  and  C_20
REMARK   12  A    between atoms: C_26  and  C_27
REMARK                            x       y       z     vdW  Elec       q    Type
REMARK                         _______ _______ _______ _____ _____    ______ ____
ROOT
ATOM      1  C   UNL     1       5.392  -0.573   3.720  0.00  0.00    +0.192 A 
ATOM      2  N   UNL     1       4.835  -1.417   4.558  0.00  0.00    -0.122 NA
ATOM      3  N   UNL     1       5.690  -1.780   5.445  0.00  0.00    -0.133 NA
ATOM      4  C   UNL     1       6.835  -1.195   5.230  0.00  0.00    +0.139 A 
ATOM      5  N   UNL     1       6.688  -0.410   4.120  0.00  0.00    -0.303 N 
ENDROOT
BRANCH   5   6
ATOM      6  C   UNL     1       7.708   0.434   3.492  0.00  0.00    +0.091 C 
ATOM      7  C   UNL     1       7.240   1.891   3.502  0.00  0.00    +0.025 C 
ATOM      8  C   UNL     1       8.306   2.772   2.846  0.00  0.00    +0.002 C 
ATOM      9  C   UNL     1       8.527   2.317   1.402  0.00  0.00    +0.000 C 
ATOM     10  C   UNL     1       8.994   0.860   1.393  0.00  0.00    +0.002 C 
ATOM     11  C   UNL     1       7.928  -0.021   2.049  0.00  0.00    +0.025 C 
ENDBRANCH   5   6
BRANCH   1  12
ATOM     12  S   UNL     1       4.617   0.198   2.338  0.00  0.00    -0.084 S 
BRANCH  12  13
ATOM     13  C   UNL     1       2.920  -0.441   2.374  0.00  0.00    +0.106 C 
BRANCH  13  14
ATOM     14  C   UNL     1       2.126   0.157   1.211  0.00  0.00    +0.108 C 
BRANCH  14  15
ATOM     15  O   UNL     1       2.102   1.580   1.332  0.00  0.00    -0.393 OA
ATOM     16  H   UNL     1       1.694   1.899   2.149  0.00  0.00    +0.210 HD
ENDBRANCH  14  15
BRANCH  14  17
ATOM     17  C   UNL     1       0.694  -0.382   1.242  0.00  0.00    -0.046 C 
BRANCH  17  19
ATOM     18  C   UNL     1      -1.448  -0.289   0.166  0.00  0.00    -0.096 C 
ATOM     19  N   UNL     1      -0.035   0.099   0.060  0.00  0.00    +0.382 N 
ATOM     20  H   UNL     1       0.035   1.104   0.008  0.00  0.00    -0.082 HD
BRANCH  19  21
ATOM     21  C   UNL     1       0.546  -0.496  -1.150  0.00  0.00    -0.043 C 
BRANCH  21  22
ATOM     22  C   UNL     1      -0.120   0.090  -2.368  0.00  0.00    -0.064 A 
ATOM     23  C   UNL     1      -1.251  -0.507  -2.892  0.00  0.00    +0.002 A 
ATOM     24  C   UNL     1      -1.863   0.030  -4.009  0.00  0.00    +0.000 A 
ATOM     25  C   UNL     1      -1.343   1.165  -4.602  0.00  0.00    +0.000 A 
ATOM     26  C   UNL     1      -0.211   1.763  -4.078  0.00  0.00    +0.000 A 
ATOM     27  C   UNL     1       0.397   1.228  -2.958  0.00  0.00    +0.002 A 
ENDBRANCH  21  22
ENDBRANCH  19  21
ENDBRANCH  17  19
ENDBRANCH  14  17
ENDBRANCH  13  14
ENDBRANCH  12  13
ENDBRANCH   1  12
BRANCH   4  28
ATOM     28  C   UNL     1       8.089  -1.359   6.048  0.00  0.00    +0.118 C 
BRANCH  28  29
ATOM     29  C   UNL     1       8.906  -2.498   5.493  0.00  0.00    -0.003 A 
ATOM     30  C   UNL     1       9.875  -2.470   4.546  0.00  0.00    +0.011 A 
ATOM     31  C   UNL     1      10.498  -3.652   4.190  0.00  0.00    +0.008 A 
ATOM     32  C   UNL     1      10.120  -4.803   4.798  0.00  0.00    +0.045 A 
ATOM     33  S   UNL     1       8.853  -4.231   5.918  0.00  0.00    -0.101 S 
ENDBRANCH  28  29
ENDBRANCH   4  28
TORSDOF 11
