REMARK  Name = ZINC63362460
REMARK  11 active torsions:
REMARK  status: ('A' for Active; 'I' for Inactive)
REMARK    1  A    between atoms: C_1  and  C_2
REMARK    2  A    between atoms: C_2  and  C_3
REMARK    3  A    between atoms: C_3  and  C_4
REMARK    4  A    between atoms: C_4  and  C_5
REMARK    5  A    between atoms: C_5  and  C_7
REMARK    6  A    between atoms: C_5  and  C_9
REMARK    7  A    between atoms: C_7  and  C_8
REMARK    8  A    between atoms: C_9  and  N_10
REMARK    9  A    between atoms: C_11  and  C_13
REMARK   10  A    between atoms: C_18  and  N_19
REMARK   11  A    between atoms: C_22  and  C_38
REMARK                            x       y       z     vdW  Elec       q    Type
REMARK                         _______ _______ _______ _____ _____    ______ ____
ROOT
ATOM      1  N   UNL     1      -5.067  -8.801  -0.594  0.00  0.00    -0.192 N 
ATOM      2  C   UNL     1      -4.537  -9.407   0.488  0.00  0.00    +0.253 C 
ATOM      3  O   UNL     1      -4.865  -9.257   1.646  0.00  0.00    -0.272 OA
ATOM      4  C   UNL     1      -3.448 -10.315  -0.042  0.00  0.00    +0.137 C 
ATOM      5  C   UNL     1      -2.087  -9.891   0.523  0.00  0.00    +0.139 C 
ATOM      6  C   UNL     1      -1.034 -10.443  -0.429  0.00  0.00    -0.034 C 
ATOM      7  C   UNL     1      -0.234 -11.211   0.303  0.00  0.00    -0.001 A 
ATOM      8  C   UNL     1       0.987 -11.959  -0.041  0.00  0.00    +0.010 A 
ATOM      9  C   UNL     1       1.561 -12.664   0.970  0.00  0.00    +0.001 A 
ATOM     10  C   UNL     1       1.050 -12.700   2.271  0.00  0.00    +0.002 A 
ATOM     11  C   UNL     1      -0.064 -12.040   2.676  0.00  0.00    +0.026 A 
ATOM     12  C   UNL     1      -0.754 -11.259   1.703  0.00  0.00    +0.043 A 
ATOM     13  N   UNL     1      -1.830 -10.517   1.822  0.00  0.00    -0.375 N 
ATOM     14  C   UNL     1      -1.032 -10.165  -1.913  0.00  0.00    +0.052 C 
ATOM     15  C   UNL     1      -2.437 -10.515  -2.443  0.00  0.00    +0.115 C 
ATOM     16  N   UNL     1      -3.427 -10.007  -1.490  0.00  0.00    -0.268 N 
ATOM     17  C   UNL     1      -4.449  -9.173  -1.722  0.00  0.00    +0.317 C 
ATOM     18  O   UNL     1      -4.776  -8.795  -2.830  0.00  0.00    -0.252 OA
ATOM     19  C   UNL     1      -3.753 -11.790   0.227  0.00  0.00    +0.044 C 
ATOM     20  H   UNL     1      -2.364 -10.401   2.623  0.00  0.00    +0.160 HD
ENDROOT
BRANCH   1  26
ATOM     21  C   UNL     1      -5.890  -6.528  -0.393  0.00  0.00    +0.059 A 
ATOM     22  C   UNL     1      -6.964  -5.637  -0.350  0.00  0.00    +0.015 A 
ATOM     23  C   UNL     1      -8.255  -6.110  -0.451  0.00  0.00    +0.001 A 
ATOM     24  C   UNL     1      -8.492  -7.468  -0.594  0.00  0.00    +0.002 A 
ATOM     25  C   UNL     1      -7.439  -8.360  -0.638  0.00  0.00    +0.025 A 
ATOM     26  C   UNL     1      -6.133  -7.900  -0.544  0.00  0.00    +0.058 A 
BRANCH  21  28
ATOM     27  N   UNL     1      -4.276  -4.707  -0.142  0.00  0.00    -0.311 N 
ATOM     28  C   UNL     1      -4.506  -6.027  -0.287  0.00  0.00    +0.246 C 
ATOM     29  O   UNL     1      -3.572  -6.806  -0.330  0.00  0.00    -0.270 OA
ATOM     30  H   UNL     1      -5.020  -4.086  -0.108  0.00  0.00    +0.149 HD
BRANCH  27  31
ATOM     31  C   UNL     1      -2.902  -4.210  -0.036  0.00  0.00    +0.108 C 
BRANCH  31  32
ATOM     32  C   UNL     1      -2.913  -2.680  -0.012  0.00  0.00    +0.006 C 
BRANCH  32  33
ATOM     33  C   UNL     1      -3.440  -2.153  -1.348  0.00  0.00    +0.002 C 
ATOM     34  C   UNL     1      -2.530  -2.633  -2.480  0.00  0.00    +0.004 C 
ENDBRANCH  32  33
BRANCH  32  35
ATOM     35  C   UNL     1      -1.491  -2.163   0.216  0.00  0.00    +0.005 C 
BRANCH  35  36
ATOM     36  C   UNL     1      -1.520  -0.641   0.365  0.00  0.00    +0.000 C 
BRANCH  36  38
ATOM     37  C   UNL     1      -0.127   1.399   0.742  0.00  0.00    +0.004 C 
ATOM     38  C   UNL     1      -0.098  -0.124   0.593  0.00  0.00    -0.003 C 
ENDBRANCH  36  38
ENDBRANCH  35  36
ENDBRANCH  32  35
ENDBRANCH  31  32
ENDBRANCH  27  31
ENDBRANCH  21  28
ENDBRANCH   1  26
TORSDOF 8
