REMARK  Name = ZINC39328072
REMARK  12 active torsions:
REMARK  status: ('A' for Active; 'I' for Inactive)
REMARK    1  A    between atoms: C_1  and  C_2
REMARK    2  A    between atoms: C_2  and  C_3
REMARK    3  A    between atoms: C_2  and  C_4
REMARK    4  A    between atoms: C_7  and  C_10
REMARK    5  A    between atoms: C_11  and  C_32
REMARK    6  A    between atoms: C_12  and  N_31
REMARK    7  A    between atoms: C_14  and  S_18
REMARK    8  A    between atoms: C_15  and  C_16
REMARK    9  A    between atoms: S_18  and  C_19
REMARK   10  A    between atoms: C_19  and  C_20
REMARK   11  A    between atoms: N_22  and  C_23
REMARK   12  A    between atoms: C_23  and  C_24
REMARK                            x       y       z     vdW  Elec       q    Type
REMARK                         _______ _______ _______ _____ _____    ______ ____
ROOT
ATOM      1  C   UNL     1      -5.398  -1.996   0.042  0.00  0.00    +0.023 A 
ATOM      2  C   UNL     1      -5.832  -2.893   1.038  0.00  0.00    +0.100 A 
ATOM      3  C   UNL     1      -7.162  -3.354   1.008  0.00  0.00    +0.136 A 
ATOM      4  N   UNL     1      -7.998  -2.955   0.064  0.00  0.00    -0.224 NA
ATOM      5  C   UNL     1      -7.634  -2.113  -0.892  0.00  0.00    +0.117 A 
ATOM      6  C   UNL     1      -6.326  -1.595  -0.939  0.00  0.00    +0.093 A 
ENDROOT
BRANCH   1  10
ATOM      7  C   UNL     1      -1.412  -0.526   0.013  0.00  0.00    -0.045 A 
ATOM      8  C   UNL     1      -2.257  -0.202   1.059  0.00  0.00    +0.004 A 
ATOM      9  C   UNL     1      -3.553  -0.676   1.074  0.00  0.00    +0.009 A 
ATOM     10  C   UNL     1      -4.010  -1.483   0.032  0.00  0.00    -0.015 A 
ATOM     11  C   UNL     1      -3.152  -1.806  -1.020  0.00  0.00    +0.009 A 
ATOM     12  C   UNL     1      -1.860  -1.321  -1.026  0.00  0.00    +0.004 A 
BRANCH   7  14
ATOM     13  C   UNL     1      -0.019   1.526   0.010  0.00  0.00    +0.012 C 
ATOM     14  C   UNL     1       0.002  -0.004   0.002  0.00  0.00    +0.013 C 
ATOM     15  C   UNL     1       0.742  -0.511   1.242  0.00  0.00    +0.012 C 
ENDBRANCH   7  14
ENDBRANCH   1  10
BRANCH   3  16
ATOM     16  N   UNL     1      -7.599  -4.233   1.978  0.00  0.00    -0.342 N 
ATOM     17  H   UNL     1      -6.991  -4.530   2.673  0.00  0.00    +0.144 HD
ATOM     18  H   UNL     1      -8.514  -4.555   1.964  0.00  0.00    +0.144 HD
ENDBRANCH   3  16
BRANCH   6  19
ATOM     19  C   UNL     1      -5.942  -0.681  -1.972  0.00  0.00    +0.102 C 
ATOM     20  N   UNL     1      -5.638   0.045  -2.792  0.00  0.00    -0.191 NA
ENDBRANCH   6  19
BRANCH   2  21
ATOM     21  C   UNL     1      -4.934  -3.331   2.064  0.00  0.00    +0.103 C 
ATOM     22  N   UNL     1      -4.222  -3.678   2.878  0.00  0.00    -0.191 NA
ENDBRANCH   2  21
BRANCH   5  23
ATOM     23  S   UNL     1      -8.805  -1.629  -2.116  0.00  0.00    -0.095 S 
BRANCH  23  24
ATOM     24  C   UNL     1     -10.316  -2.521  -1.655  0.00  0.00    +0.171 C 
BRANCH  24  25
ATOM     25  C   UNL     1     -11.412  -2.191  -2.635  0.00  0.00    +0.224 C 
ATOM     26  O   UNL     1     -11.196  -1.430  -3.554  0.00  0.00    -0.275 OA
ATOM     27  N   UNL     1     -12.633  -2.743  -2.491  0.00  0.00    -0.311 N 
ATOM     28  H   UNL     1     -12.807  -3.352  -1.756  0.00  0.00    +0.149 HD
BRANCH  27  29
ATOM     29  C   UNL     1     -13.699  -2.422  -3.444  0.00  0.00    +0.139 C 
BRANCH  29  30
ATOM     30  C   UNL     1     -14.954  -3.163  -3.061  0.00  0.00    -0.030 A 
ATOM     31  C   UNL     1     -15.191  -4.428  -3.567  0.00  0.00    +0.008 A 
ATOM     32  C   UNL     1     -16.342  -5.109  -3.216  0.00  0.00    +0.038 A 
ATOM     33  C   UNL     1     -17.258  -4.524  -2.358  0.00  0.00    +0.123 A 
ATOM     34  C   UNL     1     -17.019  -3.257  -1.852  0.00  0.00    +0.038 A 
ATOM     35  C   UNL     1     -15.865  -2.580  -2.200  0.00  0.00    +0.008 A 
ATOM     36  F   UNL     1     -18.383  -5.188  -2.015  0.00  0.00    -0.205 F 
ENDBRANCH  29  30
ENDBRANCH  27  29
ENDBRANCH  24  25
ENDBRANCH  23  24
ENDBRANCH   5  23
TORSDOF 10
