REMARK  Name = ZINC63457827
REMARK  6 active torsions:
REMARK  status: ('A' for Active; 'I' for Inactive)
REMARK    1  A    between atoms: C_7  and  C_10
REMARK    2  A    between atoms: C_10  and  C_11
REMARK    3  A    between atoms: C_11  and  N_12
REMARK    4  A    between atoms: C_13  and  C_15
REMARK    5  A    between atoms: C_15  and  C_16
REMARK    6  A    between atoms: C_19  and  C_22
REMARK                            x       y       z     vdW  Elec       q    Type
REMARK                         _______ _______ _______ _____ _____    ______ ____
ROOT
ATOM      1  N   UNL     1      -0.458  -4.798  -1.460  0.00  0.00    -0.315 N 
ATOM      2  C   UNL     1      -0.811  -5.380  -2.623  0.00  0.00    +0.222 C 
ATOM      3  O   UNL     1      -0.371  -4.957  -3.671  0.00  0.00    -0.275 OA
ATOM      4  H   UNL     1      -0.810  -5.136  -0.622  0.00  0.00    +0.149 HD
ENDROOT
BRANCH   1   5
ATOM      5  C   UNL     1       0.457  -3.653  -1.462  0.00  0.00    +0.108 C 
BRANCH   5   6
ATOM      6  C   UNL     1       0.691  -3.186  -0.024  0.00  0.00    +0.052 C 
BRANCH   6  13
ATOM      7  C   UNL     1      -0.016   1.348   0.009  0.00  0.00    +0.001 A 
ATOM      8  C   UNL     1       1.166   2.101   0.002  0.00  0.00    +0.002 A 
ATOM      9  C   UNL     1       2.391   1.535  -0.013  0.00  0.00    +0.026 A 
ATOM     10  C   UNL     1       2.529   0.120  -0.022  0.00  0.00    +0.043 A 
ATOM     11  N   UNL     1       3.587  -0.654  -0.037  0.00  0.00    -0.380 N 
ATOM     12  C   UNL     1       3.143  -2.053  -0.041  0.00  0.00    +0.144 C 
ATOM     13  C   UNL     1       1.631  -2.008  -0.025  0.00  0.00    -0.040 C 
ATOM     14  C   UNL     1       1.295  -0.698  -0.014  0.00  0.00    -0.001 A 
ATOM     15  C   UNL     1       0.002  -0.004   0.002  0.00  0.00    +0.010 A 
ATOM     16  H   UNL     1       4.509  -0.353  -0.045  0.00  0.00    +0.160 HD
ENDBRANCH   6  13
ENDBRANCH   5   6
ENDBRANCH   1   5
BRANCH   2  17
ATOM     17  C   UNL     1      -1.752  -6.557  -2.622  0.00  0.00    +0.192 C 
BRANCH  17  18
ATOM     18  C   UNL     1      -1.982  -7.018  -4.038  0.00  0.00    +0.216 C 
ATOM     19  N   UNL     1      -1.438  -6.471  -5.061  0.00  0.00    -0.150 NA
ATOM     20  N   UNL     1      -1.843  -7.119  -6.238  0.00  0.00    -0.224 N 
ATOM     21  C   UNL     1      -2.753  -8.191  -5.797  0.00  0.00    +0.309 C 
ATOM     22  O   UNL     1      -2.781  -8.058  -4.368  0.00  0.00    -0.451 OA
ATOM     23  H   UNL     1      -1.581  -6.906  -7.147  0.00  0.00    +0.172 HD
BRANCH  21  24
ATOM     24  C   UNL     1      -4.128  -7.991  -6.381  0.00  0.00    +0.012 A 
ATOM     25  C   UNL     1      -4.582  -6.715  -6.659  0.00  0.00    +0.010 A 
ATOM     26  C   UNL     1      -5.842  -6.530  -7.195  0.00  0.00    +0.016 A 
ATOM     27  C   UNL     1      -6.650  -7.623  -7.454  0.00  0.00    +0.018 A 
ATOM     28  C   UNL     1      -6.196  -8.900  -7.176  0.00  0.00    +0.016 A 
ATOM     29  C   UNL     1      -4.933  -9.083  -6.644  0.00  0.00    +0.010 A 
ATOM     30 BR   UNL     1      -8.375  -7.372  -8.187  0.00  0.00    -0.050 Br
ENDBRANCH  21  24
ENDBRANCH  17  18
ENDBRANCH   2  17
TORSDOF 6
