REMARK  Name = ZINC35724158
REMARK  9 active torsions:
REMARK  status: ('A' for Active; 'I' for Inactive)
REMARK    1  A    between atoms: C_1  and  C_2
REMARK    2  A    between atoms: C_2  and  C_3
REMARK    3  A    between atoms: C_2  and  C_4
REMARK    4  A    between atoms: C_2  and  C_5
REMARK    5  A    between atoms: C_9  and  C_21
REMARK    6  A    between atoms: C_11  and  S_14
REMARK    7  A    between atoms: S_14  and  C_15
REMARK    8  A    between atoms: N_19  and  C_20
REMARK    9  A    between atoms: C_21  and  N_22
REMARK                            x       y       z     vdW  Elec       q    Type
REMARK                         _______ _______ _______ _____ _____    ______ ____
ROOT
ATOM      1  C   UNL     1       0.718  -0.497  -1.257  0.00  0.00    -0.004 C 
ATOM      2  C   UNL     1      -0.022   0.009  -2.496  0.00  0.00    +0.004 C 
ATOM      3  C   UNL     1       0.694  -0.484  -3.755  0.00  0.00    +0.003 C 
ATOM      4  C   UNL     1       2.130   0.045  -3.766  0.00  0.00    -0.015 C 
ATOM      5  C   UNL     1       2.870  -0.461  -2.526  0.00  0.00    +0.056 C 
ATOM      6  C   UNL     1       2.154   0.032  -1.268  0.00  0.00    +0.019 C 
ENDROOT
BRANCH   1   8
ATOM      7  C   UNL     1      -0.019   1.526   0.010  0.00  0.00    +0.011 C 
ATOM      8  C   UNL     1       0.002  -0.004   0.002  0.00  0.00    -0.035 C 
ATOM      9  C   UNL     1       0.742  -0.511   1.242  0.00  0.00    +0.011 C 
ATOM     10  C   UNL     1      -1.433  -0.534   0.013  0.00  0.00    +0.011 C 
ENDBRANCH   1   8
BRANCH   5  11
ATOM     11  S   UNL     1       2.894  -2.275  -2.536  0.00  0.00    -0.082 S 
BRANCH  11  12
ATOM     12  C   UNL     1       3.894  -2.696  -1.148  0.00  0.00    +0.191 A 
ATOM     13  N   UNL     1       4.467  -1.857  -0.316  0.00  0.00    -0.123 NA
ATOM     14  N   UNL     1       5.120  -2.508   0.579  0.00  0.00    -0.137 NA
ATOM     15  C   UNL     1       5.005  -3.789   0.374  0.00  0.00    +0.225 A 
ATOM     16  N   UNL     1       4.215  -3.955  -0.730  0.00  0.00    -0.312 N 
ATOM     17  C   UNL     1       3.801  -5.221  -1.339  0.00  0.00    +0.152 C 
ENDBRANCH  11  12
ENDBRANCH   5  11
BRANCH   4  18
ATOM     18  C   UNL     1       2.846  -0.448  -5.025  0.00  0.00    -0.082 C 
BRANCH  18  19
ATOM     19  N   UNL     1       2.207   0.136  -6.212  0.00  0.00    +0.378 N 
ATOM     20  H   UNL     1       2.680  -0.190  -7.042  0.00  0.00    -0.090 HD
ATOM     21  H   UNL     1       1.238  -0.144  -6.245  0.00  0.00    -0.090 HD
ATOM     22  H   UNL     1       2.265   1.142  -6.165  0.00  0.00    -0.090 HD
ENDBRANCH  18  19
ENDBRANCH   4  18
TORSDOF 5
