REMARK  Name = ZINC09486936
REMARK  10 active torsions:
REMARK  status: ('A' for Active; 'I' for Inactive)
REMARK    1  A    between atoms: C_1  and  C_2
REMARK    2  A    between atoms: C_6  and  C_12
REMARK    3  A    between atoms: C_7  and  C_11
REMARK    4  A    between atoms: C_13  and  O_15
REMARK    5  A    between atoms: O_15  and  C_16
REMARK    6  A    between atoms: C_16  and  C_17
REMARK    7  A    between atoms: N_19  and  C_20
REMARK    8  A    between atoms: C_20  and  C_21
REMARK    9  A    between atoms: C_24  and  S_27
REMARK   10  A    between atoms: S_27  and  N_30
REMARK                            x       y       z     vdW  Elec       q    Type
REMARK                         _______ _______ _______ _____ _____    ______ ____
ROOT
ATOM      1  C   UNL     1       0.205   1.833  -2.448  0.00  0.00    +0.251 C 
ATOM      2  O   UNL     1       1.058   0.979  -2.561  0.00  0.00    -0.272 OA
ATOM      3  N   UNL     1      -0.108   2.317  -1.229  0.00  0.00    -0.308 N 
ATOM      4  H   UNL     1      -0.790   3.000  -1.139  0.00  0.00    +0.149 HD
ENDROOT
BRANCH   1   5
ATOM      5  C   UNL     1      -0.506   2.354  -3.670  0.00  0.00    +0.324 C 
BRANCH   5   6
ATOM      6  O   UNL     1      -0.003   1.692  -4.832  0.00  0.00    -0.482 OA
BRANCH   6  19
ATOM      7  C   UNL     1      -3.161   4.427  -7.348  0.00  0.00    +0.044 C 
ATOM      8  C   UNL     1      -2.082   3.376  -7.302  0.00  0.00    -0.043 A 
ATOM      9  C   UNL     1      -1.654   2.786  -8.475  0.00  0.00    +0.050 A 
ATOM     10  C   UNL     1      -0.661   1.817  -8.444  0.00  0.00    +0.143 A 
ATOM     11  C   UNL     1      -0.095   1.445  -7.212  0.00  0.00    +0.062 A 
ATOM     12  C   UNL     1       0.949   0.419  -7.190  0.00  0.00    -0.027 A 
ATOM     13  C   UNL     1       1.335  -0.129  -8.372  0.00  0.00    +0.038 A 
ATOM     14  C   UNL     1       0.727   0.294  -9.572  0.00  0.00    +0.340 A 
ATOM     15  O   UNL     1       1.082  -0.204 -10.625  0.00  0.00    -0.245 OA
ATOM     16  O   UNL     1      -0.232   1.233  -9.584  0.00  0.00    -0.422 OA
ATOM     17  C   UNL     1       2.409  -1.185  -8.400  0.00  0.00    +0.051 C 
ATOM     18  C   UNL     1       1.581  -0.014  -5.893  0.00  0.00    +0.045 C 
ATOM     19  C   UNL     1      -0.542   2.048  -6.026  0.00  0.00    +0.132 A 
ATOM     20  C   UNL     1      -1.533   3.012  -6.084  0.00  0.00    +0.050 A 
ENDBRANCH   6  19
ENDBRANCH   5   6
ENDBRANCH   1   5
BRANCH   3  21
ATOM     21  C   UNL     1       0.584   1.810  -0.041  0.00  0.00    +0.139 C 
BRANCH  21  22
ATOM     22  C   UNL     1       0.053   2.508   1.185  0.00  0.00    -0.030 A 
ATOM     23  C   UNL     1       0.647   3.675   1.627  0.00  0.00    +0.007 A 
ATOM     24  C   UNL     1       0.158   4.318   2.749  0.00  0.00    +0.029 A 
ATOM     25  C   UNL     1      -0.920   3.789   3.433  0.00  0.00    +0.105 A 
ATOM     26  C   UNL     1      -1.511   2.619   2.994  0.00  0.00    +0.029 A 
ATOM     27  C   UNL     1      -1.024   1.979   1.870  0.00  0.00    +0.007 A 
BRANCH  25  28
ATOM     28  S   UNL     1      -1.541   4.606   4.866  0.00  0.00    +0.056 S 
ATOM     29  O   UNL     1      -1.160   5.970   4.752  0.00  0.00    -0.153 OA
ATOM     30  O   UNL     1      -2.897   4.203   5.008  0.00  0.00    -0.153 OA
BRANCH  28  31
ATOM     31  N   UNL     1      -0.727   3.994   6.171  0.00  0.00    -0.204 NA
ATOM     32  H   UNL     1      -0.050   3.310   6.043  0.00  0.00    +0.144 HD
ATOM     33  H   UNL     1      -0.926   4.318   7.063  0.00  0.00    +0.144 HD
ENDBRANCH  28  31
ENDBRANCH  25  28
ENDBRANCH  21  22
ENDBRANCH   3  21
TORSDOF 7
