REMARK  Name = ZINC09808552
REMARK  5 active torsions:
REMARK  status: ('A' for Active; 'I' for Inactive)
REMARK    1  A    between atoms: C_3  and  C_6
REMARK    2  A    between atoms: C_11  and  O_33
REMARK    3  A    between atoms: C_12  and  C_14
REMARK    4  A    between atoms: C_14  and  C_16
REMARK    5  A    between atoms: C_14  and  N_53
REMARK                            x       y       z     vdW  Elec       q    Type
REMARK                         _______ _______ _______ _____ _____    ______ ____
ROOT
ATOM      1  C   UNL     1       2.451   3.939  -0.000  0.00  0.00    +0.007 C 
ENDROOT
BRANCH   1  11
ATOM      2  C   UNL     1       3.449   6.091  -0.482  0.00  0.00    -0.072 C 
ATOM      3  C   UNL     1       3.142   7.521  -0.933  0.00  0.00    +0.046 C 
ATOM      4  C   UNL     1       2.608   7.493  -2.368  0.00  0.00    +0.167 C 
ATOM      5  C   UNL     1       1.369   6.598  -2.437  0.00  0.00    +0.046 C 
ATOM      6  C   UNL     1       1.731   5.196  -1.939  0.00  0.00    -0.072 C 
ATOM      7  O   UNL     1       2.261   8.826  -2.776  0.00  0.00    -0.346 OA
ATOM      8  C   UNL     1       3.424   9.309  -3.489  0.00  0.00    +0.191 C 
ATOM      9  C   UNL     1       3.911   8.025  -4.205  0.00  0.00    +0.191 C 
ATOM     10  O   UNL     1       3.619   6.987  -3.248  0.00  0.00    -0.346 OA
ATOM     11  N   UNL     1       2.207   5.291  -0.543  0.00  0.00    +0.388 N 
ATOM     12  H   UNL     1       1.486   5.753   0.024  0.00  0.00    -0.080 HD
ENDBRANCH   1  11
BRANCH   1  19
ATOM     13  C   UNL     1       5.395   3.922   5.191  0.00  0.00    +0.218 A 
ATOM     14  N   UNL     1       4.313   4.705   5.089  0.00  0.00    -0.197 NA
ATOM     15  C   UNL     1       3.802   4.582   3.896  0.00  0.00    +0.199 A 
ATOM     16  N   UNL     1       4.547   3.698   3.164  0.00  0.00    -0.173 N 
ATOM     17  N   UNL     1       5.578   3.291   4.051  0.00  0.00    -0.138 NA
ATOM     18  C   UNL     1       4.140   3.454   1.875  0.00  0.00    +0.225 A 
ATOM     19  C   UNL     1       3.060   4.063   1.373  0.00  0.00    +0.045 A 
ATOM     20  S   UNL     1       2.533   5.068   2.752  0.00  0.00    -0.050 S 
BRANCH  13  23
ATOM     21  C   UNL     1       7.104   4.010   8.429  0.00  0.00    +0.042 A 
ATOM     22  C   UNL     1       6.067   4.434   7.574  0.00  0.00    +0.053 A 
ATOM     23  C   UNL     1       6.247   3.788   6.391  0.00  0.00    +0.173 A 
ATOM     24  O   UNL     1       7.334   3.000   6.505  0.00  0.00    -0.460 OA
ATOM     25  C   UNL     1       7.857   3.136   7.734  0.00  0.00    +0.196 A 
ENDBRANCH  13  23
BRANCH  18  26
ATOM     26  O   UNL     1       4.843   2.583   1.101  0.00  0.00    -0.492 OA
ATOM     27  H   UNL     1       5.553   2.996   0.591  0.00  0.00    +0.294 HD
ENDBRANCH  18  26
ENDBRANCH   1  19
BRANCH   1  28
ATOM     28  C   UNL     1       1.135   3.211   0.098  0.00  0.00    -0.038 A 
ATOM     29  C   UNL     1      -0.041   3.924   0.240  0.00  0.00    +0.005 A 
ATOM     30  C   UNL     1      -1.248   3.257   0.330  0.00  0.00    +0.020 A 
ATOM     31  C   UNL     1      -1.280   1.875   0.272  0.00  0.00    +0.042 A 
ATOM     32  C   UNL     1      -0.104   1.161   0.137  0.00  0.00    +0.040 A 
ATOM     33  C   UNL     1       1.104   1.829   0.047  0.00  0.00    +0.044 A 
ATOM     34 CL   UNL     1       2.581   0.933  -0.130  0.00  0.00    -0.083 Cl
ATOM     35 CL   UNL     1      -2.797   1.038   0.378  0.00  0.00    -0.083 Cl
ENDBRANCH   1  28
TORSDOF 5
