REMARK  Name = ZINC24545209
REMARK  10 active torsions:
REMARK  status: ('A' for Active; 'I' for Inactive)
REMARK    1  A    between atoms: C_1  and  C_2
REMARK    2  A    between atoms: C_2  and  C_3
REMARK    3  A    between atoms: C_3  and  S_4
REMARK    4  A    between atoms: S_4  and  C_5
REMARK    5  A    between atoms: C_12  and  N_14
REMARK    6  A    between atoms: N_14  and  C_15
REMARK    7  A    between atoms: C_15  and  C_16
REMARK    8  A    between atoms: C_23  and  C_26
REMARK    9  A    between atoms: C_23  and  C_27
REMARK   10  A    between atoms: C_27  and  C_28
REMARK                            x       y       z     vdW  Elec       q    Type
REMARK                         _______ _______ _______ _____ _____    ______ ____
ROOT
ATOM      1  C   UNL     1       2.331   3.670  -0.000  0.00  0.00    +0.191 A 
ATOM      2  N   UNL     1       3.505   3.079  -0.015  0.00  0.00    -0.221 NA
ATOM      3  C   UNL     1       3.614   1.726  -0.023  0.00  0.00    +0.090 A 
ATOM      4  C   UNL     1       4.796   0.946  -0.038  0.00  0.00    +0.015 A 
ATOM      5  C   UNL     1       4.660  -0.404  -0.044  0.00  0.00    +0.001 A 
ATOM      6  S   UNL     1       2.912  -0.682  -0.029  0.00  0.00    -0.088 S 
ATOM      7  C   UNL     1       2.397   1.016  -0.015  0.00  0.00    +0.078 A 
ATOM      8  C   UNL     1       1.179   1.675  -0.000  0.00  0.00    +0.138 A 
ATOM      9  N   UNL     1       1.180   3.008   0.001  0.00  0.00    -0.206 NA
ATOM     10  C   UNL     1       5.773  -1.405  -0.060  0.00  0.00    +0.077 C 
ATOM     11  C   UNL     1       7.066  -0.656  -0.426  0.00  0.00    +0.071 C 
ATOM     12  O   UNL     1       7.130   0.551   0.339  0.00  0.00    -0.369 OA
ATOM     13  C   UNL     1       6.194   1.559  -0.048  0.00  0.00    +0.198 C 
ATOM     14  C   UNL     1       7.064  -0.320  -1.918  0.00  0.00    +0.042 C 
ENDROOT
BRANCH   8  15
ATOM     15  N   UNL     1      -0.011   0.966   0.007  0.00  0.00    -0.324 N 
ATOM     16  H   UNL     1       0.004  -0.134   0.006  0.00  0.00    +0.148 HD
BRANCH  15  17
ATOM     17  C   UNL     1      -1.290   1.681   0.017  0.00  0.00    +0.138 C 
BRANCH  17  18
ATOM     18  C   UNL     1      -2.422   0.686   0.017  0.00  0.00    -0.030 A 
ATOM     19  C   UNL     1      -2.950   0.241  -1.180  0.00  0.00    +0.005 A 
ATOM     20  C   UNL     1      -3.986  -0.675  -1.180  0.00  0.00    +0.000 A 
ATOM     21  C   UNL     1      -4.499  -1.138   0.017  0.00  0.00    +0.000 A 
ATOM     22  C   UNL     1      -3.974  -0.689   1.214  0.00  0.00    +0.000 A 
ATOM     23  C   UNL     1      -2.935   0.224   1.214  0.00  0.00    +0.005 A 
ENDBRANCH  17  18
ENDBRANCH  15  17
ENDBRANCH   8  15
BRANCH  11  24
ATOM     24  C   UNL     1       8.277  -1.534  -0.100  0.00  0.00    +0.032 C 
ATOM     25  C   UNL     1       9.562  -0.780  -0.447  0.00  0.00    +0.007 C 
ENDBRANCH  11  24
BRANCH   1  26
ATOM     26  S   UNL     1       2.282   5.431   0.010  0.00  0.00    -0.086 S 
BRANCH  26  27
ATOM     27  C   UNL     1       0.491   5.696   0.028  0.00  0.00    +0.077 C 
BRANCH  27  29
ATOM     28  C   UNL     1      -1.316   7.421   0.055  0.00  0.00    +0.004 C 
ATOM     29  C   UNL     1       0.198   7.197   0.039  0.00  0.00    +0.008 C 
ENDBRANCH  27  29
ENDBRANCH  26  27
ENDBRANCH   1  26
TORSDOF 7
