REMARK  Name = ZINC13500507
REMARK  16 active torsions:
REMARK  status: ('A' for Active; 'I' for Inactive)
REMARK    1  A    between atoms: C_1  and  C_2
REMARK    2  A    between atoms: C_2  and  C_3
REMARK    3  A    between atoms: C_3  and  C_4
REMARK    4  A    between atoms: C_3  and  C_5
REMARK    5  A    between atoms: C_3  and  N_6
REMARK    6  A    between atoms: C_7  and  C_11
REMARK    7  A    between atoms: C_11  and  C_13
REMARK    8  A    between atoms: C_11  and  N_74
REMARK    9  A    between atoms: C_13  and  C_14
REMARK   10  A    between atoms: C_13  and  C_15
REMARK   11  A    between atoms: C_16  and  C_17
REMARK   12  A    between atoms: C_16  and  N_74
REMARK   13  A    between atoms: C_17  and  C_18
REMARK   14  A    between atoms: C_24  and  C_25
REMARK   15  A    between atoms: C_24  and  N_74
REMARK   16  A    between atoms: C_29  and  C_37
REMARK                            x       y       z     vdW  Elec       q    Type
REMARK                         _______ _______ _______ _____ _____    ______ ____
ROOT
ATOM      1  N   UNL     1      -0.700   1.320  -0.610  0.00  0.00    +0.390 N 
ATOM      2  H   UNL     1      -0.402   2.281  -0.815  0.00  0.00    -0.080 HD
ENDROOT
BRANCH   1   3
ATOM      3  C   UNL     1      -0.234   0.953   0.744  0.00  0.00    +0.006 C 
BRANCH   3   5
ATOM      4  N   UNL     1      -1.739   1.339   2.766  0.00  0.00    -0.225 N 
ATOM      5  C   UNL     1      -0.965   1.790   1.761  0.00  0.00    +0.139 A 
ATOM      6  N   UNL     1      -0.967   3.098   1.842  0.00  0.00    -0.115 NA
ATOM      7  N   UNL     1      -1.710   3.433   2.840  0.00  0.00    -0.023 NA
ATOM      8  N   UNL     1      -2.176   2.373   3.402  0.00  0.00    -0.043 NA
BRANCH   4   9
ATOM      9  C   UNL     1      -2.031  -0.062   3.078  0.00  0.00    +0.061 C 
ATOM     10  C   UNL     1      -2.700  -0.725   1.873  0.00  0.00    +0.036 C 
ATOM     11  C   UNL     1      -0.727  -0.794   3.404  0.00  0.00    +0.036 C 
BRANCH   9  13
ATOM     12  C   UNL     1      -3.274  -1.594   4.611  0.00  0.00    +0.006 C 
ATOM     13  C   UNL     1      -2.970  -0.131   4.285  0.00  0.00    +0.026 C 
ENDBRANCH   9  13
ENDBRANCH   4   9
ENDBRANCH   3   5
BRANCH   3  14
ATOM     14  C   UNL     1       1.268   1.229   0.841  0.00  0.00    -0.024 C 
ATOM     15  C   UNL     1       1.529   2.718   0.600  0.00  0.00    +0.006 C 
ATOM     16  C   UNL     1       1.769   0.843   2.234  0.00  0.00    +0.006 C 
ENDBRANCH   3  14
ENDBRANCH   1   3
BRANCH   1  17
ATOM     17  C   UNL     1      -2.175   1.251  -0.672  0.00  0.00    -0.073 C 
BRANCH  17  18
ATOM     18  C   UNL     1      -2.637   1.766  -2.037  0.00  0.00    +0.016 C 
BRANCH  18  19
ATOM     19  C   UNL     1      -4.142   1.841  -2.061  0.00  0.00    -0.049 A 
ATOM     20  C   UNL     1      -4.879   0.793  -2.581  0.00  0.00    +0.003 A 
ATOM     21  C   UNL     1      -6.259   0.861  -2.599  0.00  0.00    +0.000 A 
ATOM     22  C   UNL     1      -6.903   1.980  -2.107  0.00  0.00    +0.000 A 
ATOM     23  C   UNL     1      -6.167   3.031  -1.592  0.00  0.00    +0.000 A 
ATOM     24  C   UNL     1      -4.786   2.961  -1.569  0.00  0.00    +0.003 A 
ENDBRANCH  18  19
ENDBRANCH  17  18
ENDBRANCH   1  17
BRANCH   1  25
ATOM     25  C   UNL     1      -0.108   0.409  -1.613  0.00  0.00    -0.037 C 
BRANCH  25  26
ATOM     26  C   UNL     1      -0.601  -0.999  -1.402  0.00  0.00    +0.001 A 
ATOM     27  C   UNL     1      -1.673  -1.451  -2.099  0.00  0.00    +0.017 A 
ATOM     28  C   UNL     1      -2.126  -2.825  -1.871  0.00  0.00    -0.001 A 
ATOM     29  C   UNL     1      -3.226  -3.347  -2.560  0.00  0.00    +0.013 A 
ATOM     30  C   UNL     1      -3.623  -4.633  -2.325  0.00  0.00    -0.050 A 
ATOM     31  C   UNL     1      -2.946  -5.426  -1.409  0.00  0.00    +0.005 A 
ATOM     32  C   UNL     1      -1.860  -4.932  -0.720  0.00  0.00    +0.026 A 
ATOM     33  C   UNL     1      -1.437  -3.626  -0.942  0.00  0.00    +0.049 A 
ATOM     34  N   UNL     1      -0.353  -3.106  -0.266  0.00  0.00    -0.322 N 
ATOM     35  H   UNL     1       0.121  -3.659   0.374  0.00  0.00    +0.169 HD
ATOM     36  C   UNL     1       0.059  -1.845  -0.485  0.00  0.00    +0.251 A 
ATOM     37  O   UNL     1       1.024  -1.421   0.126  0.00  0.00    -0.268 OA
ATOM     38  C   UNL     1      -4.809  -5.195  -3.067  0.00  0.00    +0.044 C 
ENDBRANCH  25  26
ENDBRANCH   1  25
TORSDOF 10
