REMARK  Name = ZINC03344091
REMARK  5 active torsions:
REMARK  status: ('A' for Active; 'I' for Inactive)
REMARK    1  A    between atoms: N_13  and  C_17
REMARK    2  A    between atoms: C_17  and  C_18
REMARK    3  A    between atoms: N_20  and  C_21
REMARK    4  A    between atoms: C_21  and  C_22
REMARK    5  A    between atoms: C_22  and  C_23
REMARK                            x       y       z     vdW  Elec       q    Type
REMARK                         _______ _______ _______ _____ _____    ______ ____
ROOT
ATOM      1  C   UNL     1      -9.773   5.491   0.321  0.00  0.00    +0.000 A 
ATOM      2  C   UNL     1     -10.064   4.178   0.642  0.00  0.00    +0.000 A 
ATOM      3  C   UNL     1      -9.037   3.295   0.905  0.00  0.00    +0.004 A 
ATOM      4  C   UNL     1      -7.714   3.714   0.850  0.00  0.00    -0.042 A 
ATOM      5  C   UNL     1      -7.424   5.020   0.525  0.00  0.00    -0.044 A 
ATOM      6  C   UNL     1      -8.460   5.908   0.263  0.00  0.00    +0.004 A 
ATOM      7  C   UNL     1      -6.015   5.544   0.437  0.00  0.00    +0.038 C 
ATOM      8  C   UNL     1      -5.045   4.612   1.162  0.00  0.00    +0.040 C 
ATOM      9  C   UNL     1      -5.288   3.185   0.675  0.00  0.00    +0.117 C 
ATOM     10  C   UNL     1      -6.644   2.700   1.164  0.00  0.00    +0.070 C 
ATOM     11  C   UNL     1      -4.190   2.264   1.150  0.00  0.00    +0.247 C 
ATOM     12  O   UNL     1      -3.892   2.008   2.297  0.00  0.00    -0.273 OA
ATOM     13  N   UNL     1      -3.608   1.789   0.029  0.00  0.00    -0.215 N 
ATOM     14  C   UNL     1      -4.192   2.276  -1.073  0.00  0.00    +0.310 C 
ATOM     15  O   UNL     1      -3.848   1.991  -2.203  0.00  0.00    -0.252 OA
ATOM     16  N   UNL     1      -5.205   3.118  -0.789  0.00  0.00    -0.285 N 
ATOM     17  H   UNL     1      -5.767   3.587  -1.425  0.00  0.00    +0.151 HD
ENDROOT
BRANCH  13  18
ATOM     18  C   UNL     1      -2.482   0.853   0.018  0.00  0.00    +0.213 C 
BRANCH  18  19
ATOM     19  C   UNL     1      -1.187   1.624   0.017  0.00  0.00    +0.231 C 
ATOM     20  O   UNL     1      -1.204   2.837   0.023  0.00  0.00    -0.274 OA
ATOM     21  N   UNL     1      -0.011   0.966   0.007  0.00  0.00    -0.314 N 
ATOM     22  H   UNL     1       0.002  -0.004   0.002  0.00  0.00    +0.149 HD
BRANCH  21  23
ATOM     23  C   UNL     1       1.248   1.716  -0.001  0.00  0.00    +0.108 C 
BRANCH  23  24
ATOM     24  C   UNL     1       2.424   0.737  -0.017  0.00  0.00    +0.049 C 
BRANCH  24  25
ATOM     25  C   UNL     1       3.719   1.508  -0.025  0.00  0.00    -0.072 C 
ATOM     26  C   UNL     1       4.299   1.732   1.110  0.00  0.00    -0.028 C 
ATOM     27  C   UNL     1       5.587   2.487   1.261  0.00  0.00    +0.027 C 
ATOM     28  C   UNL     1       6.305   2.584  -0.087  0.00  0.00    +0.004 C 
ATOM     29  C   UNL     1       5.299   3.070  -1.138  0.00  0.00    +0.005 C 
ATOM     30  C   UNL     1       4.251   1.975  -1.348  0.00  0.00    +0.030 C 
ENDBRANCH  24  25
ENDBRANCH  23  24
ENDBRANCH  21  23
ENDBRANCH  18  19
ENDBRANCH  13  18
TORSDOF 5
