REMARK  Name = ZINC66543061
REMARK  10 active torsions:
REMARK  status: ('A' for Active; 'I' for Inactive)
REMARK    1  A    between atoms: C_1  and  C_2
REMARK    2  A    between atoms: C_2  and  N_3
REMARK    3  A    between atoms: N_3  and  C_4
REMARK    4  A    between atoms: N_3  and  C_6
REMARK    5  A    between atoms: C_4  and  C_5
REMARK    6  A    between atoms: N_9  and  C_12
REMARK    7  A    between atoms: C_12  and  C_14
REMARK    8  A    between atoms: C_12  and  C_15
REMARK    9  A    between atoms: N_17  and  C_18
REMARK   10  A    between atoms: C_19  and  C_26
REMARK                            x       y       z     vdW  Elec       q    Type
REMARK                         _______ _______ _______ _____ _____    ______ ____
ROOT
ATOM      1  C   UNL     1       4.327  -5.727   3.546  0.00  0.00    +0.235 C 
ATOM      2  O   UNL     1       4.295  -4.827   4.358  0.00  0.00    -0.274 OA
ATOM      3  N   UNL     1       5.000  -6.861   3.822  0.00  0.00    -0.278 N 
ATOM      4  H   UNL     1       5.025  -7.581   3.173  0.00  0.00    +0.155 HD
ENDROOT
BRANCH   3   5
ATOM      5  C   UNL     1       5.657  -6.999   5.036  0.00  0.00    +0.084 A 
ATOM      6  C   UNL     1       6.395  -8.078   5.485  0.00  0.00    +0.068 A 
ATOM      7  C   UNL     1       6.993  -7.974   6.815  0.00  0.00    -0.023 A 
ATOM      8  C   UNL     1       6.737  -6.811   7.442  0.00  0.00    -0.004 A 
ATOM      9  S   UNL     1       5.745  -5.892   6.293  0.00  0.00    -0.077 S 
ATOM     10  C   UNL     1       7.371  -6.758   8.805  0.00  0.00    +0.043 C 
ATOM     11  C   UNL     1       7.713  -8.228   9.135  0.00  0.00    +0.010 C 
ATOM     12  C   UNL     1       7.859  -8.840   7.727  0.00  0.00    +0.037 C 
BRANCH   6  13
ATOM     13  C   UNL     1       6.571  -9.278   4.662  0.00  0.00    +0.244 C 
ATOM     14  O   UNL     1       7.514  -9.358   3.896  0.00  0.00    -0.270 OA
ATOM     15  N   UNL     1       5.688 -10.293   4.752  0.00  0.00    -0.325 N 
ATOM     16  H   UNL     1       4.937 -10.229   5.362  0.00  0.00    +0.145 HD
ATOM     17  H   UNL     1       5.805 -11.087   4.207  0.00  0.00    +0.145 HD
ENDBRANCH   6  13
ENDBRANCH   3   5
BRANCH   1  18
ATOM     18  C   UNL     1       3.613  -5.577   2.227  0.00  0.00    +0.140 C 
ATOM     19  C   UNL     1       2.317  -6.390   2.253  0.00  0.00    +0.034 C 
BRANCH  18  23
ATOM     20  C   UNL     1       1.668  -1.894   1.261  0.00  0.00    -0.066 C 
ATOM     21  C   UNL     1       2.010  -2.206   2.721  0.00  0.00    +0.000 C 
ATOM     22  C   UNL     1       2.212  -3.714   2.881  0.00  0.00    +0.083 C 
ATOM     23  N   UNL     1       3.298  -4.160   1.999  0.00  0.00    -0.292 NA
ATOM     24  C   UNL     1       2.972  -3.914   0.589  0.00  0.00    +0.083 C 
ATOM     25  C   UNL     1       2.792  -2.411   0.360  0.00  0.00    +0.000 C 
BRANCH  20  26
ATOM     26  N   UNL     1       1.530  -0.441   1.089  0.00  0.00    +0.381 N 
ATOM     27  H   UNL     1       0.835  -0.091   1.732  0.00  0.00    -0.081 HD
BRANCH  26  29
ATOM     28  C   UNL     1       2.647   1.728   1.302  0.00  0.00    -0.017 C 
ATOM     29  C   UNL     1       2.819   0.208   1.359  0.00  0.00    -0.082 C 
ENDBRANCH  26  29
BRANCH  26  30
ATOM     30  C   UNL     1       1.114  -0.149  -0.289  0.00  0.00    -0.082 C 
ATOM     31  C   UNL     1      -0.285  -0.719  -0.531  0.00  0.00    -0.017 C 
ENDBRANCH  26  30
ENDBRANCH  20  26
ENDBRANCH  18  23
ENDBRANCH   1  18
TORSDOF 7
