REMARK  Name = ZINC36312931
REMARK  11 active torsions:
REMARK  status: ('A' for Active; 'I' for Inactive)
REMARK    1  A    between atoms: C_4  and  C_7
REMARK    2  A    between atoms: C_8  and  C_17
REMARK    3  A    between atoms: C_9  and  N_12
REMARK    4  A    between atoms: C_17  and  N_18
REMARK    5  A    between atoms: N_18  and  C_19
REMARK    6  A    between atoms: N_18  and  C_29
REMARK    7  A    between atoms: C_19  and  C_20
REMARK    8  A    between atoms: C_29  and  C_30
REMARK    9  A    between atoms: C_30  and  C_32
REMARK   10  A    between atoms: C_30  and  O_39
REMARK   11  A    between atoms: C_32  and  N_33
REMARK                            x       y       z     vdW  Elec       q    Type
REMARK                         _______ _______ _______ _____ _____    ______ ____
ROOT
ATOM      1  N   UNL     1       2.796  -2.688  -2.607  0.00  0.00    +0.387 N 
ATOM      2  H   UNL     1       3.121  -1.854  -3.072  0.00  0.00    -0.081 HD
ENDROOT
BRANCH   1   3
ATOM      3  C   UNL     1       1.902  -2.316  -1.502  0.00  0.00    -0.035 C 
BRANCH   3   5
ATOM      4  C   UNL     1       3.100  -1.835   0.755  0.00  0.00    +0.117 A 
ATOM      5  C   UNL     1       2.649  -1.446  -0.523  0.00  0.00    +0.025 A 
ATOM      6  C   UNL     1       3.005  -0.151  -0.717  0.00  0.00    +0.222 A 
ATOM      7  O   UNL     1       3.653   0.271   0.382  0.00  0.00    -0.339 OA
ATOM      8  N   UNL     1       3.700  -0.804   1.304  0.00  0.00    -0.076 NA
BRANCH   4  12
ATOM      9  C   UNL     1       2.594  -5.667   2.530  0.00  0.00    +0.000 A 
ATOM     10  C   UNL     1       3.771  -4.968   2.724  0.00  0.00    +0.001 A 
ATOM     11  C   UNL     1       3.941  -3.724   2.151  0.00  0.00    +0.010 A 
ATOM     12  C   UNL     1       2.924  -3.173   1.374  0.00  0.00    +0.004 A 
ATOM     13  C   UNL     1       1.740  -3.882   1.181  0.00  0.00    +0.010 A 
ATOM     14  C   UNL     1       1.581  -5.125   1.760  0.00  0.00    +0.001 A 
ENDBRANCH   4  12
BRANCH   6  15
ATOM     15  N   UNL     1       2.746   0.602  -1.847  0.00  0.00    -0.299 N 
ATOM     16  C   UNL     1       1.492   0.593  -2.615  0.00  0.00    +0.108 C 
ATOM     17  C   UNL     1       1.673   1.565  -3.800  0.00  0.00    +0.020 C 
ATOM     18  C   UNL     1       3.215   1.639  -3.956  0.00  0.00    +0.020 C 
ATOM     19  C   UNL     1       3.680   1.552  -2.478  0.00  0.00    +0.108 C 
ENDBRANCH   6  15
ENDBRANCH   3   5
ENDBRANCH   1   3
BRANCH   1  20
ATOM     20  C   UNL     1       3.946  -3.433  -2.077  0.00  0.00    -0.042 C 
BRANCH  20  21
ATOM     21  C   UNL     1       4.944  -2.467  -1.492  0.00  0.00    -0.060 A 
ATOM     22  C   UNL     1       5.351  -1.368  -2.225  0.00  0.00    +0.005 A 
ATOM     23  C   UNL     1       6.266  -0.479  -1.692  0.00  0.00    +0.050 A 
ATOM     24  C   UNL     1       6.777  -0.688  -0.421  0.00  0.00    +0.166 A 
ATOM     25  C   UNL     1       6.367  -1.795   0.317  0.00  0.00    +0.166 A 
ATOM     26  C   UNL     1       5.445  -2.679  -0.221  0.00  0.00    +0.051 A 
ATOM     27  O   UNL     1       7.007  -1.777   1.522  0.00  0.00    -0.453 OA
ATOM     28  C   UNL     1       8.117  -0.876   1.355  0.00  0.00    +0.466 C 
ATOM     29  O   UNL     1       7.675   0.024   0.322  0.00  0.00    -0.453 OA
ENDBRANCH  20  21
ENDBRANCH   1  20
BRANCH   1  30
ATOM     30  C   UNL     1       2.067  -3.530  -3.564  0.00  0.00    -0.045 C 
BRANCH  30  31
ATOM     31  C   UNL     1       2.871  -3.641  -4.862  0.00  0.00    +0.112 C 
BRANCH  31  32
ATOM     32  O   UNL     1       4.024  -4.455  -4.639  0.00  0.00    -0.392 OA
ATOM     33  H   UNL     1       3.820  -5.376  -4.427  0.00  0.00    +0.210 HD
ENDBRANCH  31  32
BRANCH  31  34
ATOM     34  C   UNL     1       2.000  -4.275  -5.948  0.00  0.00    +0.114 C 
BRANCH  34  35
ATOM     35  N   UNL     1       2.772  -4.382  -7.194  0.00  0.00    -0.296 NA
ATOM     36  C   UNL     1       3.083  -3.051  -7.736  0.00  0.00    +0.112 C 
ATOM     37  C   UNL     1       3.937  -3.207  -8.998  0.00  0.00    +0.175 C 
ATOM     38  O   UNL     1       3.240  -4.027  -9.940  0.00  0.00    -0.377 OA
ATOM     39  C   UNL     1       2.922  -5.331  -9.444  0.00  0.00    +0.175 C 
ATOM     40  C   UNL     1       2.058  -5.196  -8.188  0.00  0.00    +0.112 C 
ENDBRANCH  34  35
ENDBRANCH  31  34
ENDBRANCH  30  31
ENDBRANCH   1  30
TORSDOF 11
