REMARK  Name = ZINC34756413
REMARK  7 active torsions:
REMARK  status: ('A' for Active; 'I' for Inactive)
REMARK    1  A    between atoms: C_1  and  C_2
REMARK    2  A    between atoms: C_5  and  C_33
REMARK    3  A    between atoms: C_6  and  C_8
REMARK    4  A    between atoms: C_8  and  S_9
REMARK    5  A    between atoms: S_9  and  C_10
REMARK    6  A    between atoms: N_26  and  C_29
REMARK    7  A    between atoms: C_29  and  C_30
REMARK                            x       y       z     vdW  Elec       q    Type
REMARK                         _______ _______ _______ _____ _____    ______ ____
ROOT
ATOM      1  C   UNL     1       1.621  -4.003   4.523  0.00  0.00    +0.191 A 
ATOM      2  N   UNL     1       2.720  -4.368   5.176  0.00  0.00    -0.206 NA
ATOM      3  C   UNL     1       2.671  -5.046   6.310  0.00  0.00    +0.134 A 
ATOM      4  C   UNL     1       1.405  -5.400   6.854  0.00  0.00    +0.051 A 
ATOM      5  C   UNL     1       1.112  -6.143   8.083  0.00  0.00    -0.025 A 
ATOM      6  C   UNL     1      -0.186  -6.348   8.379  0.00  0.00    -0.004 A 
ATOM      7  S   UNL     1      -1.089  -5.579   7.061  0.00  0.00    -0.073 S 
ATOM      8  C   UNL     1       0.284  -4.981   6.111  0.00  0.00    +0.115 A 
ATOM      9  N   UNL     1       0.415  -4.301   4.987  0.00  0.00    -0.215 NA
ATOM     10  C   UNL     1      -0.743  -7.073   9.566  0.00  0.00    +0.043 C 
ATOM     11  C   UNL     1       0.390  -7.878  10.218  0.00  0.00    +0.005 C 
ATOM     12  C   UNL     1       1.612  -6.968  10.373  0.00  0.00    +0.005 C 
ATOM     13  C   UNL     1       2.213  -6.668   9.000  0.00  0.00    +0.037 C 
ATOM     14  N   UNL     1       3.837  -5.408   6.959  0.00  0.00    -0.318 N 
ATOM     15  C   UNL     1       4.436  -6.736   6.754  0.00  0.00    +0.088 C 
ATOM     16  C   UNL     1       5.919  -6.552   6.415  0.00  0.00    -0.059 C 
ATOM     17  N   UNL     1       6.565  -5.751   7.462  0.00  0.00    +0.387 N 
ATOM     18  C   UNL     1       5.994  -4.398   7.481  0.00  0.00    -0.059 C 
ATOM     19  C   UNL     1       4.518  -4.473   7.868  0.00  0.00    +0.088 C 
ATOM     20  H   UNL     1       6.416  -6.190   8.359  0.00  0.00    -0.081 HD
ENDROOT
BRANCH   1  21
ATOM     21  S   UNL     1       1.770  -3.101   3.017  0.00  0.00    -0.081 S 
BRANCH  21  22
ATOM     22  C   UNL     1       0.053  -2.822   2.502  0.00  0.00    +0.112 C 
BRANCH  22  28
ATOM     23  C   UNL     1      -0.035   1.548   0.065  0.00  0.00    +0.044 C 
ATOM     24  C   UNL     1      -0.006   0.041   0.042  0.00  0.00    -0.050 A 
ATOM     25  C   UNL     1       0.005  -0.632  -1.165  0.00  0.00    +0.003 A 
ATOM     26  C   UNL     1       0.031  -2.014  -1.186  0.00  0.00    +0.004 A 
ATOM     27  C   UNL     1       0.046  -2.722   0.001  0.00  0.00    -0.046 A 
ATOM     28  C   UNL     1       0.037  -2.049   1.208  0.00  0.00    -0.034 A 
ATOM     29  C   UNL     1       0.015  -0.667   1.229  0.00  0.00    +0.008 A 
ATOM     30  C   UNL     1       0.074  -4.229  -0.022  0.00  0.00    +0.044 C 
ENDBRANCH  22  28
ENDBRANCH  21  22
ENDBRANCH   1  21
BRANCH  17  31
ATOM     31  C   UNL     1       8.007  -5.668   7.194  0.00  0.00    +0.018 C 
BRANCH  31  32
ATOM     32  C   UNL     1       8.689  -4.952   8.331  0.00  0.00    +0.194 C 
ATOM     33  O   UNL     1       8.037  -4.550   9.272  0.00  0.00    -0.278 OA
ATOM     34  N   UNL     1      10.022  -4.758   8.303  0.00  0.00    -0.331 N 
ATOM     35  H   UNL     1      10.543  -5.079   7.550  0.00  0.00    +0.145 HD
ATOM     36  H   UNL     1      10.461  -4.296   9.034  0.00  0.00    +0.145 HD
ENDBRANCH  31  32
ENDBRANCH  17  31
TORSDOF 5
