REMARK  Name = ZINC08569945
REMARK  7 active torsions:
REMARK  status: ('A' for Active; 'I' for Inactive)
REMARK    1  A    between atoms: C_1  and  C_2
REMARK    2  A    between atoms: C_2  and  C_3
REMARK    3  A    between atoms: C_9  and  C_13
REMARK    4  A    between atoms: C_9  and  O_25
REMARK    5  A    between atoms: C_13  and  C_14
REMARK    6  A    between atoms: C_14  and  C_16
REMARK    7  A    between atoms: C_20  and  N_22
REMARK                            x       y       z     vdW  Elec       q    Type
REMARK                         _______ _______ _______ _____ _____    ______ ____
ROOT
ATOM      1  C   UNL     1      -3.194   3.642   0.050  0.00  0.00    -0.047 A 
ATOM      2  C   UNL     1      -3.515   2.296   0.046  0.00  0.00    +0.005 A 
ATOM      3  C   UNL     1      -2.519   1.342   0.032  0.00  0.00    +0.024 A 
ATOM      4  C   UNL     1      -1.180   1.728   0.017  0.00  0.00    +0.040 A 
ATOM      5  C   UNL     1      -0.871   3.082   0.026  0.00  0.00    +0.015 A 
ATOM      6  C   UNL     1      -1.866   4.033   0.040  0.00  0.00    +0.012 A 
ATOM      7  C   UNL     1       0.638   3.173   0.013  0.00  0.00    +0.175 C 
ATOM      8  C   UNL     1       1.094   1.730   0.001  0.00  0.00    +0.254 C 
ATOM      9  O   UNL     1       2.242   1.337  -0.012  0.00  0.00    -0.272 OA
ATOM     10  N   UNL     1      -0.011   0.966   0.007  0.00  0.00    -0.282 N 
ATOM     11  H   UNL     1       0.002  -0.004   0.002  0.00  0.00    +0.155 HD
ENDROOT
BRANCH   1  13
ATOM     12  C   UNL     1      -4.670   5.037  -1.373  0.00  0.00    +0.009 C 
ATOM     13  C   UNL     1      -4.287   4.679   0.064  0.00  0.00    +0.032 C 
ENDBRANCH   1  13
BRANCH   7  14
ATOM     14  O   UNL     1       1.113   3.839   1.185  0.00  0.00    -0.374 OA
ATOM     15  H   UNL     1       2.076   3.873   1.255  0.00  0.00    +0.211 HD
ENDBRANCH   7  14
BRANCH   7  16
ATOM     16  C   UNL     1       1.120   3.898  -1.246  0.00  0.00    +0.129 C 
BRANCH  16  17
ATOM     17  C   UNL     1       2.619   3.786  -1.347  0.00  0.00    +0.167 C 
ATOM     18  O   UNL     1       3.241   3.186  -0.497  0.00  0.00    -0.292 OA
BRANCH  17  19
ATOM     19  C   UNL     1       3.329   4.405  -2.478  0.00  0.00    +0.020 A 
ATOM     20  C   UNL     1       2.614   5.093  -3.465  0.00  0.00    +0.011 A 
ATOM     21  C   UNL     1       3.287   5.674  -4.519  0.00  0.00    +0.003 A 
ATOM     22  C   UNL     1       4.664   5.569  -4.608  0.00  0.00    +0.033 A 
ATOM     23  C   UNL     1       5.377   4.886  -3.639  0.00  0.00    +0.127 A 
ATOM     24  C   UNL     1       4.720   4.303  -2.576  0.00  0.00    +0.044 A 
BRANCH  23  25
ATOM     25  N   UNL     1       6.850   4.779  -3.744  0.00  0.00    +0.056 N 
ATOM     26  O   UNL     1       7.479   4.178  -2.892  0.00  0.00    -0.126 OA
ATOM     27  O   UNL     1       7.432   5.293  -4.683  0.00  0.00    -0.126 OA
ENDBRANCH  23  25
ENDBRANCH  17  19
ENDBRANCH  16  17
ENDBRANCH   7  16
TORSDOF 6
