REMARK  Name = ZINC43674416
REMARK  10 active torsions:
REMARK  status: ('A' for Active; 'I' for Inactive)
REMARK    1  A    between atoms: C_1  and  C_2
REMARK    2  A    between atoms: C_2  and  C_3
REMARK    3  A    between atoms: C_3  and  N_4
REMARK    4  A    between atoms: N_4  and  C_5
REMARK    5  A    between atoms: C_5  and  C_6
REMARK    6  A    between atoms: C_9  and  O_20
REMARK    7  A    between atoms: C_11  and  O_12
REMARK    8  A    between atoms: O_12  and  C_13
REMARK    9  A    between atoms: C_13  and  C_14
REMARK   10  A    between atoms: O_20  and  C_21
REMARK                            x       y       z     vdW  Elec       q    Type
REMARK                         _______ _______ _______ _____ _____    ______ ____
ROOT
ATOM      1  C   UNL     1      -2.771  -4.018   0.007  0.00  0.00    -0.022 A 
ATOM      2  C   UNL     1      -2.975  -4.705  -1.175  0.00  0.00    +0.009 A 
ATOM      3  C   UNL     1      -2.957  -6.086  -1.186  0.00  0.00    +0.046 A 
ATOM      4  C   UNL     1      -2.734  -6.787  -0.009  0.00  0.00    +0.124 A 
ATOM      5  C   UNL     1      -2.529  -6.101   1.177  0.00  0.00    +0.091 A 
ATOM      6  C   UNL     1      -2.542  -4.714   1.185  0.00  0.00    +0.126 A 
ENDROOT
BRANCH   4   7
ATOM      7  O   UNL     1      -2.716  -8.146  -0.020  0.00  0.00    -0.495 OA
ATOM      8  C   UNL     1      -2.936  -8.787  -1.278  0.00  0.00    +0.277 C 
ENDBRANCH   4   7
BRANCH   1   9
ATOM      9  C   UNL     1      -2.792  -2.511   0.015  0.00  0.00    -0.043 C 
BRANCH   9  10
ATOM     10  N   UNL     1      -1.413  -2.002   0.005  0.00  0.00    +0.382 N 
ATOM     11  H   UNL     1      -0.941  -2.328  -0.825  0.00  0.00    -0.085 HD
ATOM     12  H   UNL     1      -0.925  -2.337   0.822  0.00  0.00    -0.085 HD
BRANCH  10  13
ATOM     13  C   UNL     1      -1.433  -0.534   0.013  0.00  0.00    -0.082 C 
BRANCH  13  15
ATOM     14  C   UNL     1      -0.019   1.526   0.010  0.00  0.00    +0.002 C 
ATOM     15  C   UNL     1       0.002  -0.004   0.002  0.00  0.00    -0.022 C 
ENDBRANCH  13  15
ENDBRANCH  10  13
ENDBRANCH   9  10
ENDBRANCH   1   9
BRANCH   6  16
ATOM     16  O   UNL     1      -2.335  -4.038   2.345  0.00  0.00    -0.487 OA
BRANCH  16  17
ATOM     17  C   UNL     1      -2.105  -4.820   3.519  0.00  0.00    +0.272 C 
BRANCH  17  18
ATOM     18  C   UNL     1      -1.898  -3.906   4.699  0.00  0.00    +0.041 A 
ATOM     19  C   UNL     1      -2.816  -3.407   5.564  0.00  0.00    +0.031 A 
ATOM     20  C   UNL     1      -2.392  -2.577   6.585  0.00  0.00    +0.023 A 
ATOM     21  C   UNL     1      -1.072  -2.286   6.692  0.00  0.00    +0.046 A 
ATOM     22  S   UNL     1      -0.381  -3.205   5.326  0.00  0.00    -0.097 S 
ATOM     23 BR   UNL     1      -4.647  -3.839   5.376  0.00  0.00    -0.049 Br
ENDBRANCH  17  18
ENDBRANCH  16  17
ENDBRANCH   6  16
TORSDOF 8
