REMARK  Name = ZINC33271702
REMARK  8 active torsions:
REMARK  status: ('A' for Active; 'I' for Inactive)
REMARK    1  A    between atoms: C_1  and  C_2
REMARK    2  A    between atoms: C_2  and  O_3
REMARK    3  A    between atoms: O_3  and  C_4
REMARK    4  A    between atoms: C_16  and  C_18
REMARK    5  A    between atoms: C_19  and  C_25
REMARK    6  A    between atoms: C_28  and  O_33
REMARK    7  A    between atoms: C_29  and  O_31
REMARK    8  A    between atoms: O_31  and  C_32
REMARK                            x       y       z     vdW  Elec       q    Type
REMARK                         _______ _______ _______ _____ _____    ______ ____
ROOT
ATOM      1  C   UNL     1       3.940   2.939  -0.019  0.00  0.00    +0.122 A 
ATOM      2  C   UNL     1       4.450   1.644  -0.031  0.00  0.00    +0.048 A 
ATOM      3  C   UNL     1       3.634   0.557  -0.029  0.00  0.00    +0.032 A 
ATOM      4  C   UNL     1       2.227   0.704  -0.015  0.00  0.00    +0.081 A 
ATOM      5  C   UNL     1       1.737   2.030  -0.004  0.00  0.00    +0.044 A 
ATOM      6  C   UNL     1       2.565   3.125  -0.005  0.00  0.00    +0.063 A 
ATOM      7  S   UNL     1      -0.022   1.783   0.012  0.00  0.00    -0.048 S 
ATOM      8  C   UNL     1       0.002  -0.004   0.002  0.00  0.00    +0.196 A 
ATOM      9  N   UNL     1       1.287  -0.266  -0.012  0.00  0.00    -0.221 NA
ATOM     10  N   UNL     1      -1.069  -0.891   0.007  0.00  0.00    -0.193 N 
ATOM     11  C   UNL     1      -0.988  -2.239  -0.006  0.00  0.00    +0.135 A 
ATOM     12  C   UNL     1      -2.267  -2.729   0.019  0.00  0.00    +0.023 A 
ATOM     13  C   UNL     1      -3.139  -1.651   0.029  0.00  0.00    +0.066 A 
ATOM     14  N   UNL     1      -2.430  -0.546   0.022  0.00  0.00    -0.168 NA
ATOM     15  C   UNL     1      -4.644  -1.733   0.046  0.00  0.00    +0.068 C 
ATOM     16  C   UNL     1      -2.563  -4.207   0.031  0.00  0.00    +0.063 C 
ATOM     17  C   UNL     1      -1.412  -4.935  -0.672  0.00  0.00    +0.109 C 
ATOM     18  C   UNL     1      -0.080  -4.397  -0.232  0.00  0.00    +0.219 C 
ATOM     19  O   UNL     1       0.843  -5.169  -0.073  0.00  0.00    -0.275 OA
ATOM     20  N   UNL     1       0.122  -3.081  -0.008  0.00  0.00    -0.270 N 
ATOM     21  H   UNL     1       1.126  -2.668   0.169  0.00  0.00    +0.156 HD
ENDROOT
BRANCH  16  22
ATOM     22  C   UNL     1      -3.854  -4.473  -0.700  0.00  0.00    -0.036 A 
ATOM     23  C   UNL     1      -3.977  -4.121  -2.032  0.00  0.00    +0.008 A 
ATOM     24  C   UNL     1      -5.159  -4.362  -2.707  0.00  0.00    +0.049 A 
ATOM     25  C   UNL     1      -6.223  -4.958  -2.050  0.00  0.00    +0.158 A 
ATOM     26  C   UNL     1      -6.099  -5.313  -0.710  0.00  0.00    +0.162 A 
ATOM     27  C   UNL     1      -4.910  -5.073  -0.040  0.00  0.00    +0.053 A 
BRANCH  26  28
ATOM     28  O   UNL     1      -7.140  -5.899  -0.061  0.00  0.00    -0.491 OA
ATOM     29  C   UNL     1      -6.941  -6.236   1.314  0.00  0.00    +0.277 C 
ENDBRANCH  26  28
BRANCH  25  30
ATOM     30  O   UNL     1      -7.386  -5.197  -2.713  0.00  0.00    -0.503 OA
ATOM     31  H   UNL     1      -8.230  -5.670  -2.190  0.00  0.00    +0.292 HD
ENDBRANCH  25  30
ENDBRANCH  16  22
BRANCH   1  32
ATOM     32  O   UNL     1       4.779   4.009  -0.022  0.00  0.00    -0.492 OA
BRANCH  32  34
ATOM     33  C   UNL     1       6.959   5.052  -0.038  0.00  0.00    +0.048 C 
ATOM     34  C   UNL     1       6.181   3.734  -0.037  0.00  0.00    +0.225 C 
ENDBRANCH  32  34
ENDBRANCH   1  32
TORSDOF 5
