REMARK  Name = ZINC19320154
REMARK  8 active torsions:
REMARK  status: ('A' for Active; 'I' for Inactive)
REMARK    1  A    between atoms: C_1  and  C_2
REMARK    2  A    between atoms: C_2  and  C_3
REMARK    3  A    between atoms: C_3  and  C_4
REMARK    4  A    between atoms: C_8  and  C_24
REMARK    5  A    between atoms: C_9  and  O_10
REMARK    6  A    between atoms: C_14  and  C_15
REMARK    7  A    between atoms: C_24  and  C_25
REMARK    8  A    between atoms: C_25  and  C_26
REMARK                            x       y       z     vdW  Elec       q    Type
REMARK                         _______ _______ _______ _____ _____    ______ ____
ROOT
ATOM      1  C   UNL     1      -1.413  -2.063   0.004  0.00  0.00    -0.005 C 
ATOM      2  C   UNL     1      -0.702  -2.572  -1.256  0.00  0.00    -0.065 C 
ATOM      3  N   UNL     1      -0.687  -4.042  -1.252  0.00  0.00    +0.394 N 
ATOM      4  C   UNL     1      -2.052  -4.591  -1.270  0.00  0.00    -0.065 C 
ATOM      5  C   UNL     1      -2.787  -4.141  -0.002  0.00  0.00    -0.005 C 
ATOM      6  C   UNL     1      -2.846  -2.608   0.015  0.00  0.00    +0.126 C 
ATOM      7  C   UNL     1      -2.008  -4.618   1.229  0.00  0.00    +0.090 C 
ATOM      8  N   UNL     1      -0.630  -4.068   1.148  0.00  0.00    -0.310 NA
ATOM      9  C   UNL     1      -0.678  -2.586   1.245  0.00  0.00    +0.090 C 
ATOM     10  C   UNL     1       0.049  -4.524  -0.074  0.00  0.00    +0.033 C 
ATOM     11  H   UNL     1      -0.180  -4.389  -2.164  0.00  0.00    -0.079 HD
ENDROOT
BRANCH  10  12
ATOM     12  C   UNL     1       1.453  -3.978  -0.101  0.00  0.00    -0.044 A 
ATOM     13  C   UNL     1       2.067  -3.716  -1.312  0.00  0.00    +0.007 A 
ATOM     14  C   UNL     1       3.356  -3.216  -1.342  0.00  0.00    +0.050 A 
ATOM     15  C   UNL     1       4.035  -2.976  -0.159  0.00  0.00    +0.166 A 
ATOM     16  C   UNL     1       3.416  -3.240   1.061  0.00  0.00    +0.166 A 
ATOM     17  C   UNL     1       2.122  -3.736   1.084  0.00  0.00    +0.052 A 
ATOM     18  O   UNL     1       4.282  -2.923   2.067  0.00  0.00    -0.453 OA
ATOM     19  C   UNL     1       5.281  -2.080   1.463  0.00  0.00    +0.466 C 
ATOM     20  O   UNL     1       5.288  -2.494   0.084  0.00  0.00    -0.453 OA
ENDBRANCH  10  12
BRANCH   6  21
ATOM     21  O   UNL     1      -3.547  -2.139  -1.138  0.00  0.00    -0.391 OA
ATOM     22  H   UNL     1      -4.595  -2.429  -1.301  0.00  0.00    +0.210 HD
ENDBRANCH   6  21
BRANCH   1  23
ATOM     23  C   UNL     1      -1.433  -0.534   0.013  0.00  0.00    +0.008 C 
BRANCH  23  25
ATOM     24  C   UNL     1      -0.019   1.526   0.010  0.00  0.00    +0.004 C 
ATOM     25  C   UNL     1       0.002  -0.004   0.002  0.00  0.00    -0.003 C 
ENDBRANCH  23  25
ENDBRANCH   1  23
BRANCH   5  26
ATOM     26  C   UNL     1      -4.203  -4.720   0.017  0.00  0.00    +0.008 C 
BRANCH  26  27
ATOM     27  C   UNL     1      -4.128  -6.248  -0.001  0.00  0.00    -0.003 C 
ATOM     28  C   UNL     1      -5.544  -6.828   0.018  0.00  0.00    +0.004 C 
ENDBRANCH  26  27
ENDBRANCH   5  26
TORSDOF 6
