REMARK  Name = ZINC40320570
REMARK  9 active torsions:
REMARK  status: ('A' for Active; 'I' for Inactive)
REMARK    1  A    between atoms: C_1  and  C_2
REMARK    2  A    between atoms: C_2  and  C_3
REMARK    3  A    between atoms: C_3  and  C_4
REMARK    4  A    between atoms: C_4  and  N_5
REMARK    5  A    between atoms: N_5  and  C_6
REMARK    6  A    between atoms: N_5  and  S_10
REMARK    7  A    between atoms: C_6  and  C_7
REMARK    8  A    between atoms: S_10  and  C_13
REMARK    9  A    between atoms: C_14  and  N_21
REMARK                            x       y       z     vdW  Elec       q    Type
REMARK                         _______ _______ _______ _____ _____    ______ ____
ROOT
ATOM      1  S   UNL     1      -3.797  -3.299   2.085  0.00  0.00    +0.064 S 
ATOM      2  O   UNL     1      -4.916  -4.163   1.947  0.00  0.00    -0.153 OA
ATOM      3  O   UNL     1      -2.796  -3.500   3.074  0.00  0.00    -0.153 OA
ENDROOT
BRANCH   1   4
ATOM      4  C   UNL     1      -4.440  -1.679   2.340  0.00  0.00    +0.140 A 
ATOM      5  C   UNL     1      -3.663  -0.714   2.970  0.00  0.00    +0.053 A 
ATOM      6  C   UNL     1      -4.174   0.563   3.169  0.00  0.00    +0.040 A 
ATOM      7  C   UNL     1      -5.452   0.869   2.741  0.00  0.00    +0.021 A 
ATOM      8  C   UNL     1      -6.223  -0.094   2.115  0.00  0.00    +0.032 A 
ATOM      9  C   UNL     1      -5.715  -1.365   1.910  0.00  0.00    +0.047 A 
ATOM     10 BR   UNL     1      -6.770  -2.676   1.047  0.00  0.00    -0.048 Br
ATOM     11 BR   UNL     1      -6.147   2.607   3.011  0.00  0.00    -0.050 Br
BRANCH   5  12
ATOM     12  N   UNL     1      -2.373  -1.026   3.401  0.00  0.00    -0.356 N 
ATOM     13  H   UNL     1      -1.900  -1.779   3.013  0.00  0.00    +0.142 HD
ATOM     14  H   UNL     1      -1.948  -0.491   4.090  0.00  0.00    +0.142 HD
ENDBRANCH   5  12
ENDBRANCH   1   4
BRANCH   1  15
ATOM     15  N   UNL     1      -3.021  -3.293   0.622  0.00  0.00    -0.168 NA
BRANCH  15  16
ATOM     16  C   UNL     1      -1.598  -2.952   0.549  0.00  0.00    +0.110 C 
BRANCH  16  17
ATOM     17  C   UNL     1      -1.446  -1.465   0.224  0.00  0.00    +0.017 C 
BRANCH  17  19
ATOM     18  C   UNL     1       0.192   0.379  -0.177  0.00  0.00    +0.004 C 
ATOM     19  C   UNL     1       0.040  -1.109   0.147  0.00  0.00    -0.002 C 
ENDBRANCH  17  19
ENDBRANCH  16  17
ENDBRANCH  15  16
BRANCH  15  20
ATOM     20  C   UNL     1      -3.757  -3.628  -0.599  0.00  0.00    +0.204 C 
BRANCH  20  21
ATOM     21  C   UNL     1      -3.571  -5.091  -0.912  0.00  0.00    +0.226 C 
ATOM     22  O   UNL     1      -2.891  -5.784  -0.187  0.00  0.00    -0.275 OA
ATOM     23  N   UNL     1      -4.162  -5.628  -1.998  0.00  0.00    -0.328 N 
ATOM     24  H   UNL     1      -4.706  -5.073  -2.579  0.00  0.00    +0.145 HD
ATOM     25  H   UNL     1      -4.042  -6.569  -2.200  0.00  0.00    +0.145 HD
ENDBRANCH  20  21
ENDBRANCH  15  20
ENDBRANCH   1  15
TORSDOF 8
