REMARK  Name = ZINC36219716
REMARK  9 active torsions:
REMARK  status: ('A' for Active; 'I' for Inactive)
REMARK    1  A    between atoms: C_1  and  C_2
REMARK    2  A    between atoms: C_11  and  N_30
REMARK    3  A    between atoms: C_13  and  S_15
REMARK    4  A    between atoms: S_15  and  C_16
REMARK    5  A    between atoms: C_16  and  C_17
REMARK    6  A    between atoms: N_19  and  C_20
REMARK    7  A    between atoms: N_19  and  C_24
REMARK    8  A    between atoms: C_20  and  C_21
REMARK    9  A    between atoms: C_21  and  C_22
REMARK                            x       y       z     vdW  Elec       q    Type
REMARK                         _______ _______ _______ _____ _____    ______ ____
ROOT
ATOM      1  C   UNL     1      -2.355   0.056  -0.212  0.00  0.00    +0.008 C 
ATOM      2  C   UNL     1      -1.830  -1.376  -0.327  0.00  0.00    -0.009 C 
ATOM      3  C   UNL     1      -0.678  -1.422  -1.336  0.00  0.00    +0.008 C 
ATOM      4  C   UNL     1      -0.315  -2.875  -1.641  0.00  0.00    +0.037 C 
ATOM      5  C   UNL     1      -0.062  -3.609  -0.326  0.00  0.00    -0.025 A 
ATOM      6  C   UNL     1      -0.525  -3.107   0.840  0.00  0.00    -0.004 A 
ATOM      7  S   UNL     1      -0.011  -4.265   2.084  0.00  0.00    -0.073 S 
ATOM      8  C   UNL     1       0.823  -5.418   1.044  0.00  0.00    +0.115 A 
ATOM      9  C   UNL     1       0.674  -4.861  -0.252  0.00  0.00    +0.051 A 
ATOM     10  C   UNL     1       1.256  -5.581  -1.335  0.00  0.00    +0.129 A 
ATOM     11  N   UNL     1       1.883  -6.710  -1.015  0.00  0.00    -0.207 NA
ATOM     12  C   UNL     1       1.985  -7.173   0.222  0.00  0.00    +0.191 A 
ATOM     13  N   UNL     1       1.461  -6.547   1.279  0.00  0.00    -0.214 NA
ATOM     14  C   UNL     1      -1.309  -1.845   1.039  0.00  0.00    +0.046 C 
ENDROOT
BRANCH  10  15
ATOM     15  N   UNL     1       1.173  -5.133  -2.641  0.00  0.00    -0.343 N 
ATOM     16  H   UNL     1       1.761  -5.503  -3.319  0.00  0.00    +0.144 HD
ATOM     17  H   UNL     1       0.527  -4.450  -2.880  0.00  0.00    +0.144 HD
ENDBRANCH  10  15
BRANCH  12  18
ATOM     18  S   UNL     1       2.849  -8.686   0.485  0.00  0.00    -0.077 S 
BRANCH  18  19
ATOM     19  C   UNL     1       3.379  -9.182  -1.177  0.00  0.00    +0.173 C 
BRANCH  19  20
ATOM     20  C   UNL     1       4.141 -10.480  -1.095  0.00  0.00    +0.230 C 
ATOM     21  O   UNL     1       4.309 -11.018  -0.021  0.00  0.00    -0.274 OA
ATOM     22  N   UNL     1       4.635 -11.044  -2.215  0.00  0.00    -0.270 N 
BRANCH  22  23
ATOM     23  C   UNL     1       5.250 -12.300  -2.154  0.00  0.00    +0.036 A 
ATOM     24  C   UNL     1       6.452 -12.453  -1.475  0.00  0.00    +0.023 A 
ATOM     25  C   UNL     1       7.056 -13.694  -1.416  0.00  0.00    +0.002 A 
ATOM     26  C   UNL     1       6.466 -14.782  -2.033  0.00  0.00    +0.000 A 
ATOM     27  C   UNL     1       5.269 -14.632  -2.710  0.00  0.00    +0.002 A 
ATOM     28  C   UNL     1       4.657 -13.395  -2.767  0.00  0.00    +0.023 A 
ENDBRANCH  22  23
BRANCH  22  29
ATOM     29  C   UNL     1       4.528 -10.342  -3.497  0.00  0.00    +0.128 C 
BRANCH  29  30
ATOM     30  C   UNL     1       5.764  -9.463  -3.701  0.00  0.00    +0.138 C 
BRANCH  30  31
ATOM     31  C   UNL     1       5.656  -8.758  -4.989  0.00  0.00    +0.064 C 
ATOM     32  N   UNL     1       5.574  -8.214  -5.983  0.00  0.00    -0.197 NA
ENDBRANCH  30  31
ENDBRANCH  29  30
ENDBRANCH  22  29
ENDBRANCH  19  20
ENDBRANCH  18  19
ENDBRANCH  12  18
TORSDOF 8
