REMARK  Name = ZINC11430782
REMARK  7 active torsions:
REMARK  status: ('A' for Active; 'I' for Inactive)
REMARK    1  A    between atoms: C_1  and  C_2
REMARK    2  A    between atoms: C_2  and  C_4
REMARK    3  A    between atoms: C_2  and  O_17
REMARK    4  A    between atoms: N_6  and  C_7
REMARK    5  A    between atoms: C_9  and  N_14
REMARK    6  A    between atoms: O_17  and  C_18
REMARK    7  A    between atoms: C_18  and  C_20
REMARK                            x       y       z     vdW  Elec       q    Type
REMARK                         _______ _______ _______ _____ _____    ______ ____
ROOT
ATOM      1  C   UNL     1      -6.889  -0.537  -1.499  0.00  0.00    +0.062 C 
ATOM      2  C   UNL     1      -6.191  -0.911  -0.190  0.00  0.00    +0.259 C 
ENDROOT
BRANCH   2   3
ATOM      3  C   UNL     1      -4.894  -0.151  -0.078  0.00  0.00    +0.258 C 
ATOM      4  O   UNL     1      -3.838  -0.748  -0.087  0.00  0.00    -0.271 OA
ATOM      5  N   UNL     1      -4.908   1.192   0.031  0.00  0.00    -0.281 N 
ATOM      6  H   UNL     1      -5.864   1.726   0.130  0.00  0.00    +0.155 HD
BRANCH   5   7
ATOM      7  C   UNL     1      -3.704   1.908   0.019  0.00  0.00    +0.054 A 
ATOM      8  C   UNL     1      -2.582   1.371  -0.597  0.00  0.00    +0.057 A 
ATOM      9  C   UNL     1      -1.397   2.079  -0.608  0.00  0.00    +0.128 A 
ATOM     10  C   UNL     1      -1.324   3.320  -0.002  0.00  0.00    +0.034 A 
ATOM     11  C   UNL     1      -2.441   3.861   0.608  0.00  0.00    +0.024 A 
ATOM     12  C   UNL     1      -3.631   3.157   0.623  0.00  0.00    +0.062 A 
ATOM     13 CL   UNL     1      -5.031   3.833   1.394  0.00  0.00    -0.082 Cl
BRANCH   9  14
ATOM     14  N   UNL     1      -0.200   1.507  -1.265  0.00  0.00    +0.056 N 
ATOM     15  O   UNL     1      -0.261   0.412  -1.795  0.00  0.00    -0.126 OA
ATOM     16  O   UNL     1       0.845   2.133  -1.280  0.00  0.00    -0.126 OA
ENDBRANCH   9  14
ENDBRANCH   5   7
ENDBRANCH   2   3
BRANCH   2  17
ATOM     17  O   UNL     1      -5.918  -2.337  -0.177  0.00  0.00    -0.452 OA
BRANCH  17  18
ATOM     18  C   UNL     1      -6.867  -3.134   0.340  0.00  0.00    +0.314 C 
ATOM     19  O   UNL     1      -7.891  -2.655   0.766  0.00  0.00    -0.250 OA
BRANCH  18  20
ATOM     20  C   UNL     1      -6.655  -4.625   0.387  0.00  0.00    +0.070 C 
ATOM     21  C   UNL     1      -5.414  -4.937   1.226  0.00  0.00    +0.021 C 
ATOM     22  C   UNL     1      -5.199  -6.451   1.274  0.00  0.00    -0.008 C 
ATOM     23  C   UNL     1      -5.002  -6.984  -0.147  0.00  0.00    +0.007 C 
ATOM     24  C   UNL     1      -6.243  -6.672  -0.985  0.00  0.00    -0.008 C 
ATOM     25  C   UNL     1      -6.458  -5.158  -1.033  0.00  0.00    +0.021 C 
ATOM     26  C   UNL     1      -7.466  -7.341  -0.354  0.00  0.00    +0.021 C 
ATOM     27  C   UNL     1      -7.663  -6.808   1.066  0.00  0.00    +0.028 C 
ATOM     28  C   UNL     1      -6.421  -7.120   1.905  0.00  0.00    +0.021 C 
ATOM     29  C   UNL     1      -7.878  -5.294   1.018  0.00  0.00    +0.036 C 
ATOM     30 BR   UNL     1      -9.234  -7.668   1.877  0.00  0.00    -0.084 Br
ENDBRANCH  18  20
ENDBRANCH  17  18
ENDBRANCH   2  17
TORSDOF 6
