REMARK  Name = ZINC64085669
REMARK  11 active torsions:
REMARK  status: ('A' for Active; 'I' for Inactive)
REMARK    1  A    between atoms: C_1  and  C_2
REMARK    2  A    between atoms: C_6  and  C_27
REMARK    3  A    between atoms: C_8  and  N_11
REMARK    4  A    between atoms: C_12  and  C_14
REMARK    5  A    between atoms: C_14  and  C_15
REMARK    6  A    between atoms: C_15  and  C_16
REMARK    7  A    between atoms: C_17  and  C_26
REMARK    8  A    between atoms: C_18  and  C_24
REMARK    9  A    between atoms: C_22  and  C_23
REMARK   10  A    between atoms: C_27  and  C_28
REMARK   11  A    between atoms: C_27  and  C_29
REMARK                            x       y       z     vdW  Elec       q    Type
REMARK                         _______ _______ _______ _____ _____    ______ ____
ROOT
ATOM      1  N   UNL     1       1.537  -2.391   2.465  0.00  0.00    -0.312 N 
ATOM      2  C   UNL     1       2.884  -2.336   2.462  0.00  0.00    +0.214 C 
ATOM      3  O   UNL     1       3.473  -1.970   1.467  0.00  0.00    -0.276 OA
ATOM      4  H   UNL     1       1.065  -2.684   3.261  0.00  0.00    +0.149 HD
ENDROOT
BRANCH   1  10
ATOM      5  C   UNL     1      -0.301   1.434  -0.071  0.00  0.00    +0.007 C 
ATOM      6  C   UNL     1      -0.150  -0.088  -0.028  0.00  0.00    -0.012 C 
ATOM      7  C   UNL     1      -1.535  -0.737   0.011  0.00  0.00    +0.004 C 
ATOM      8  C   UNL     1      -1.385  -2.259   0.054  0.00  0.00    +0.006 C 
ATOM      9  C   UNL     1      -0.600  -2.658   1.305  0.00  0.00    +0.012 C 
ATOM     10  C   UNL     1       0.785  -2.009   1.267  0.00  0.00    +0.076 C 
ATOM     11  C   UNL     1       0.634  -0.487   1.224  0.00  0.00    +0.025 C 
BRANCH   9  12
ATOM     12  C   UNL     1      -0.449  -4.180   1.349  0.00  0.00    -0.012 C 
ATOM     13  C   UNL     1      -1.824  -4.824   1.536  0.00  0.00    +0.007 C 
ATOM     14  C   UNL     1       0.169  -4.669   0.037  0.00  0.00    +0.007 C 
ENDBRANCH   9  12
ENDBRANCH   1  10
BRANCH   2  15
ATOM     15  C   UNL     1       3.657  -2.729   3.694  0.00  0.00    +0.100 C 
BRANCH  15  16
ATOM     16  C   UNL     1       5.155  -2.577   3.426  0.00  0.00    +0.046 C 
BRANCH  16  17
ATOM     17  C   UNL     1       5.928  -2.970   4.659  0.00  0.00    -0.024 A 
ATOM     18  C   UNL     1       6.145  -2.036   5.673  0.00  0.00    -0.023 A 
ATOM     19  C   UNL     1       6.862  -2.421   6.803  0.00  0.00    +0.119 A 
ATOM     20  C   UNL     1       7.348  -3.752   6.884  0.00  0.00    +0.267 A 
ATOM     21  O   UNL     1       7.978  -4.114   7.863  0.00  0.00    -0.266 OA
ATOM     22  N   UNL     1       7.111  -4.614   5.877  0.00  0.00    -0.325 N 
ATOM     23  C   UNL     1       6.408  -4.234   4.783  0.00  0.00    +0.019 A 
ATOM     24  C   UNL     1       6.159  -5.231   3.681  0.00  0.00    +0.063 C 
ATOM     25  C   UNL     1       5.611  -0.633   5.546  0.00  0.00    +0.045 C 
ATOM     26  H   UNL     1       7.446  -5.522   5.938  0.00  0.00    +0.169 HD
BRANCH  19  27
ATOM     27  C   UNL     1       7.104  -1.490   7.864  0.00  0.00    +0.105 C 
ATOM     28  N   UNL     1       7.297  -0.752   8.705  0.00  0.00    -0.191 NA
ENDBRANCH  19  27
ENDBRANCH  16  17
ENDBRANCH  15  16
ENDBRANCH   2  15
TORSDOF 6
