REMARK  Name = ZINC12439696
REMARK  9 active torsions:
REMARK  status: ('A' for Active; 'I' for Inactive)
REMARK    1  A    between atoms: C_1  and  C_2
REMARK    2  A    between atoms: C_4  and  C_10
REMARK    3  A    between atoms: C_7  and  O_8
REMARK    4  A    between atoms: O_8  and  C_9
REMARK    5  A    between atoms: C_10  and  N_65
REMARK    6  A    between atoms: C_16  and  C_18
REMARK    7  A    between atoms: C_18  and  C_19
REMARK    8  A    between atoms: N_21  and  C_22
REMARK    9  A    between atoms: C_22  and  C_23
REMARK                            x       y       z     vdW  Elec       q    Type
REMARK                         _______ _______ _______ _____ _____    ______ ____
ROOT
ATOM      1  C   UNL     1       1.488  -0.434  -0.601  0.00  0.00    -0.058 C 
ATOM      2  C   UNL     1       0.083  -0.051  -0.131  0.00  0.00    +0.085 C 
ATOM      3  N   UNL     1      -0.014   1.398   0.025  0.00  0.00    -0.318 N 
ATOM      4  C   UNL     1       1.057   2.191   0.129  0.00  0.00    +0.200 C 
ATOM      5  O   UNL     1       0.885   3.381   0.287  0.00  0.00    -0.278 OA
ATOM      6  C   UNL     1       2.465   1.670   0.058  0.00  0.00    +0.028 C 
ATOM      7  H   UNL     1      -0.895   1.803   0.051  0.00  0.00    +0.149 HD
ATOM      8  N   UNL     1       2.463   0.215   0.298  0.00  0.00    +0.391 N 
ATOM      9  H   UNL     1       2.193   0.036   1.272  0.00  0.00    -0.080 HD
ENDROOT
BRANCH   8  10
ATOM     10  C   UNL     1       3.817  -0.338   0.064  0.00  0.00    -0.042 C 
BRANCH  10  14
ATOM     11  C   UNL     1       3.302  -5.310  -0.161  0.00  0.00    +0.047 C 
ATOM     12  C   UNL     1       3.664  -4.069   0.614  0.00  0.00    -0.009 A 
ATOM     13  C   UNL     1       3.579  -2.829   0.012  0.00  0.00    +0.008 A 
ATOM     14  C   UNL     1       3.911  -1.690   0.722  0.00  0.00    -0.063 A 
ATOM     15  C   UNL     1       4.335  -1.790   2.035  0.00  0.00    +0.005 A 
ATOM     16  C   UNL     1       4.417  -3.028   2.643  0.00  0.00    +0.046 A 
ATOM     17  C   UNL     1       4.084  -4.172   1.932  0.00  0.00    +0.123 A 
BRANCH  17  18
ATOM     18  O   UNL     1       4.169  -5.391   2.526  0.00  0.00    -0.495 OA
ATOM     19  C   UNL     1       4.609  -5.421   3.885  0.00  0.00    +0.277 C 
ENDBRANCH  17  18
ENDBRANCH  10  14
ENDBRANCH   8  10
BRANCH   6  20
ATOM     20  C   UNL     1       3.313   2.351   1.133  0.00  0.00    +0.089 C 
BRANCH  20  21
ATOM     21  C   UNL     1       2.766   2.010   2.496  0.00  0.00    +0.212 C 
ATOM     22  O   UNL     1       1.859   1.213   2.602  0.00  0.00    -0.276 OA
ATOM     23  N   UNL     1       3.286   2.590   3.595  0.00  0.00    -0.310 N 
ATOM     24  H   UNL     1       4.012   3.228   3.510  0.00  0.00    +0.149 HD
BRANCH  23  25
ATOM     25  C   UNL     1       2.754   2.259   4.920  0.00  0.00    +0.161 C 
BRANCH  25  26
ATOM     26  C   UNL     1       3.502   3.037   5.971  0.00  0.00    +0.083 A 
ATOM     27  C   UNL     1       3.159   4.303   6.452  0.00  0.00    -0.002 A 
ATOM     28  C   UNL     1       4.078   4.659   7.381  0.00  0.00    +0.040 A 
ATOM     29  N   UNL     1       4.964   3.650   7.492  0.00  0.00    -0.281 N 
ATOM     30  H   UNL     1       5.753   3.624   8.106  0.00  0.00    +0.189 HD
ATOM     31  N   UNL     1       4.583   2.642   6.595  0.00  0.00    -0.177 NA
ATOM     32  C   UNL     1       4.098   5.961   8.140  0.00  0.00    +0.055 C 
ATOM     33  C   UNL     1       2.696   6.252   8.682  0.00  0.00    +0.006 C 
ATOM     34  C   UNL     1       1.897   7.036   7.645  0.00  0.00    +0.001 C 
ATOM     35  C   UNL     1       2.289   6.614   6.231  0.00  0.00    +0.005 C 
ATOM     36  C   UNL     1       1.971   5.130   6.030  0.00  0.00    +0.039 C 
ENDBRANCH  25  26
ENDBRANCH  23  25
ENDBRANCH  20  21
ENDBRANCH   6  20
TORSDOF 7
