REMARK  Name = ZINC01230530
REMARK  6 active torsions:
REMARK  status: ('A' for Active; 'I' for Inactive)
REMARK    1  A    between atoms: C_3  and  S_15
REMARK    2  A    between atoms: C_5  and  S_7
REMARK    3  A    between atoms: S_7  and  N_10
REMARK    4  A    between atoms: S_15  and  C_18
REMARK    5  A    between atoms: C_22  and  S_24
REMARK    6  A    between atoms: S_24  and  N_27
REMARK                            x       y       z     vdW  Elec       q    Type
REMARK                         _______ _______ _______ _____ _____    ______ ____
ROOT
ATOM      1  S   UNL     1       3.891   2.312  -0.024  0.00  0.00    +0.025 S 
ATOM      2  O   UNL     1       4.872   1.453  -0.588  0.00  0.00    -0.164 OA
ATOM      3  O   UNL     1       3.597   3.593  -0.566  0.00  0.00    -0.164 OA
ENDROOT
BRANCH   1   6
ATOM      4  C   UNL     1      -0.017   1.378   0.010  0.00  0.00    +0.004 A 
ATOM      5  C   UNL     1       1.171   2.086   0.002  0.00  0.00    +0.027 A 
ATOM      6  C   UNL     1       2.377   1.411  -0.013  0.00  0.00    +0.095 A 
ATOM      7  C   UNL     1       2.396   0.029  -0.020  0.00  0.00    +0.056 A 
ATOM      8  C   UNL     1       1.208  -0.679  -0.012  0.00  0.00    +0.107 A 
ATOM      9  C   UNL     1       0.002  -0.004   0.002  0.00  0.00    +0.028 A 
BRANCH   8  10
ATOM     10  S   UNL     1       1.232  -2.441  -0.022  0.00  0.00    +0.061 S 
ATOM     11  O   UNL     1      -0.013  -2.861  -0.562  0.00  0.00    -0.153 OA
ATOM     12  O   UNL     1       2.477  -2.827  -0.588  0.00  0.00    -0.153 OA
BRANCH  10  13
ATOM     13  N   UNL     1       1.256  -2.939   1.557  0.00  0.00    -0.177 NA
ATOM     14  C   UNL     1       2.462  -3.175   2.364  0.00  0.00    +0.109 C 
ATOM     15  C   UNL     1       1.997  -3.650   3.756  0.00  0.00    +0.018 C 
ATOM     16  C   UNL     1       0.572  -4.198   3.478  0.00  0.00    +0.018 C 
ATOM     17  C   UNL     1       0.070  -3.214   2.389  0.00  0.00    +0.109 C 
ENDBRANCH  10  13
ENDBRANCH   8  10
ENDBRANCH   1   6
BRANCH   1  18
ATOM     18  C   UNL     1       4.355   2.571   1.656  0.00  0.00    +0.095 A 
ATOM     19  C   UNL     1       3.920   3.698   2.328  0.00  0.00    +0.027 A 
ATOM     20  C   UNL     1       4.284   3.901   3.646  0.00  0.00    +0.004 A 
ATOM     21  C   UNL     1       5.083   2.977   4.292  0.00  0.00    +0.028 A 
ATOM     22  C   UNL     1       5.518   1.849   3.621  0.00  0.00    +0.107 A 
ATOM     23  C   UNL     1       5.150   1.644   2.304  0.00  0.00    +0.056 A 
BRANCH  22  24
ATOM     24  S   UNL     1       6.537   0.671   4.445  0.00  0.00    +0.061 S 
ATOM     25  O   UNL     1       7.257  -0.021   3.434  0.00  0.00    -0.153 OA
ATOM     26  O   UNL     1       7.184   1.364   5.503  0.00  0.00    -0.153 OA
BRANCH  24  27
ATOM     27  N   UNL     1       5.530  -0.437   5.152  0.00  0.00    -0.177 NA
ATOM     28  C   UNL     1       4.969  -0.344   6.508  0.00  0.00    +0.109 C 
ATOM     29  C   UNL     1       4.116  -1.609   6.739  0.00  0.00    +0.018 C 
ATOM     30  C   UNL     1       4.700  -2.615   5.712  0.00  0.00    +0.018 C 
ATOM     31  C   UNL     1       5.042  -1.679   4.523  0.00  0.00    +0.109 C 
ENDBRANCH  24  27
ENDBRANCH  22  24
ENDBRANCH   1  18
TORSDOF 6
