REMARK  Name = ZINC33332041
REMARK  4 active torsions:
REMARK  status: ('A' for Active; 'I' for Inactive)
REMARK    1  A    between atoms: N_6  and  C_16
REMARK    2  A    between atoms: C_16  and  C_17
REMARK    3  A    between atoms: C_17  and  C_18
REMARK    4  A    between atoms: C_18  and  C_19
REMARK                            x       y       z     vdW  Elec       q    Type
REMARK                         _______ _______ _______ _____ _____    ______ ____
ROOT
ATOM      1  C   UNL     1       2.960   0.951   5.959  0.00  0.00    +0.020 A 
ATOM      2  C   UNL     1       2.697   1.870   4.939  0.00  0.00    +0.033 A 
ATOM      3  C   UNL     1       1.671   1.349   4.181  0.00  0.00    +0.112 A 
ATOM      4  C   UNL     1       0.966   1.837   2.994  0.00  0.00    +0.276 A 
ATOM      5  O   UNL     1       1.268   2.907   2.499  0.00  0.00    -0.265 OA
ATOM      6  N   UNL     1      -0.020   1.094   2.454  0.00  0.00    -0.305 N 
ATOM      7  C   UNL     1      -0.375  -0.131   3.019  0.00  0.00    +0.070 A 
ATOM      8  C   UNL     1      -1.391  -0.885   2.445  0.00  0.00    +0.043 A 
ATOM      9  C   UNL     1      -1.745  -2.102   2.995  0.00  0.00    +0.020 A 
ATOM     10  C   UNL     1      -1.086  -2.577   4.117  0.00  0.00    +0.017 A 
ATOM     11  C   UNL     1      -0.072  -1.837   4.692  0.00  0.00    +0.029 A 
ATOM     12  C   UNL     1       0.290  -0.613   4.146  0.00  0.00    +0.070 A 
ATOM     13  N   UNL     1       1.319   0.134   4.731  0.00  0.00    -0.310 N 
ATOM     14  C   UNL     1       2.110  -0.094   5.809  0.00  0.00    +0.092 A 
ATOM     15 BR   UNL     1      -3.133  -3.121   2.215  0.00  0.00    -0.050 Br
ENDROOT
BRANCH   6  16
ATOM     16  C   UNL     1      -0.729   1.579   1.267  0.00  0.00    +0.126 C 
BRANCH  16  17
ATOM     17  C   UNL     1      -0.013   1.086   0.008  0.00  0.00    +0.031 C 
BRANCH  17  18
ATOM     18  C   UNL     1      -0.753   1.593  -1.232  0.00  0.00    +0.098 C 
BRANCH  18  19
ATOM     19  C   UNL     1      -0.047   1.107  -2.471  0.00  0.00    +0.216 C 
ATOM     20  O   UNL     1       0.949   0.422  -2.373  0.00  0.00    -0.276 OA
ATOM     21  N   UNL     1      -0.524   1.433  -3.689  0.00  0.00    -0.301 N 
ATOM     22  C   UNL     1      -1.733   2.256  -3.824  0.00  0.00    +0.108 C 
ATOM     23  C   UNL     1      -1.410   3.455  -4.728  0.00  0.00    +0.019 C 
ATOM     24  C   UNL     1      -0.844   2.948  -6.056  0.00  0.00    +0.003 C 
ATOM     25  C   UNL     1       0.452   2.176  -5.799  0.00  0.00    +0.019 C 
ATOM     26  C   UNL     1       0.153   0.966  -4.907  0.00  0.00    +0.108 C 
ENDBRANCH  18  19
ENDBRANCH  17  18
ENDBRANCH  16  17
ENDBRANCH   6  16
TORSDOF 4
