REMARK  Name = ZINC20035090
REMARK  12 active torsions:
REMARK  status: ('A' for Active; 'I' for Inactive)
REMARK    1  A    between atoms: C_1  and  C_2
REMARK    2  A    between atoms: C_2  and  C_3
REMARK    3  A    between atoms: C_3  and  O_4
REMARK    4  A    between atoms: O_4  and  C_5
REMARK    5  A    between atoms: C_8  and  N_11
REMARK    6  A    between atoms: C_15  and  N_19
REMARK    7  A    between atoms: N_19  and  C_20
REMARK    8  A    between atoms: C_20  and  C_21
REMARK    9  A    between atoms: C_21  and  C_22
REMARK   10  A    between atoms: C_22  and  N_23
REMARK   11  A    between atoms: C_26  and  C_29
REMARK   12  A    between atoms: C_29  and  C_30
REMARK                            x       y       z     vdW  Elec       q    Type
REMARK                         _______ _______ _______ _____ _____    ______ ____
ROOT
ATOM      1  N   UNL     1      -8.291  -6.918  -1.260  0.00  0.00    -0.305 NA
ATOM      2  H   UNL     1      -9.239  -6.678  -1.513  0.00  0.00    +0.123 HD
ENDROOT
BRANCH   1   7
ATOM      3  N   UNL     1      -6.308  -4.540   0.037  0.00  0.00    -0.209 N 
ATOM      4  C   UNL     1      -7.471  -3.886   0.139  0.00  0.00    +0.228 C 
ATOM      5  O   UNL     1      -7.594  -2.683   0.234  0.00  0.00    -0.275 OA
ATOM      6  C   UNL     1      -8.608  -4.884   0.117  0.00  0.00    +0.125 C 
ATOM      7  C   UNL     1      -7.893  -6.244  -0.017  0.00  0.00    +0.150 C 
ATOM      8  C   UNL     1      -6.427  -5.870  -0.062  0.00  0.00    +0.244 C 
ATOM      9  O   UNL     1      -5.506  -6.652  -0.169  0.00  0.00    -0.273 OA
BRANCH   3  13
ATOM     10  C   UNL     1      -2.617  -2.595   0.012  0.00  0.00    +0.121 A 
ATOM     11  C   UNL     1      -3.068  -3.241  -1.130  0.00  0.00    +0.047 A 
ATOM     12  C   UNL     1      -4.290  -3.885  -1.122  0.00  0.00    +0.027 A 
ATOM     13  C   UNL     1      -5.066  -3.886   0.029  0.00  0.00    +0.044 A 
ATOM     14  C   UNL     1      -4.614  -3.240   1.171  0.00  0.00    +0.027 A 
ATOM     15  C   UNL     1      -3.390  -2.601   1.164  0.00  0.00    +0.047 A 
BRANCH  10  16
ATOM     16  O   UNL     1      -1.414  -1.962   0.004  0.00  0.00    -0.492 OA
BRANCH  16  17
ATOM     17  C   UNL     1      -0.671  -1.996  -1.216  0.00  0.00    +0.229 C 
BRANCH  17  19
ATOM     18  C   UNL     1       1.440  -1.273  -2.340  0.00  0.00    +0.007 C 
ATOM     19  C   UNL     1       0.644  -1.236  -1.034  0.00  0.00    +0.038 C 
ENDBRANCH  17  19
ENDBRANCH  16  17
ENDBRANCH  10  16
ENDBRANCH   3  13
ENDBRANCH   1   7
BRANCH   1  20
ATOM     20  C   UNL     1      -8.129  -8.373  -1.145  0.00  0.00    +0.080 C 
BRANCH  20  21
ATOM     21  C   UNL     1      -8.553  -9.039  -2.456  0.00  0.00    -0.003 C 
BRANCH  21  22
ATOM     22  C   UNL     1      -8.384 -10.554  -2.336  0.00  0.00    -0.078 C 
BRANCH  22  23
ATOM     23  N   UNL     1      -8.792 -11.193  -3.595  0.00  0.00    +0.380 N 
ATOM     24  C   UNL     1     -10.226 -10.971  -3.812  0.00  0.00    -0.079 C 
ATOM     25  C   UNL     1     -10.639 -11.564  -5.161  0.00  0.00    -0.015 C 
ATOM     26  C   UNL     1     -10.349 -13.068  -5.161  0.00  0.00    -0.010 C 
ATOM     27  C   UNL     1      -8.864 -13.291  -4.859  0.00  0.00    -0.015 C 
ATOM     28  C   UNL     1      -8.517 -12.633  -3.522  0.00  0.00    -0.079 C 
ATOM     29  H   UNL     1      -8.271 -10.791  -4.359  0.00  0.00    -0.082 HD
BRANCH  26  30
ATOM     30  C   UNL     1     -10.685 -13.654  -6.534  0.00  0.00    +0.038 C 
BRANCH  30  31
ATOM     31  C   UNL     1     -10.516 -15.151  -6.496  0.00  0.00    -0.047 A 
ATOM     32  C   UNL     1      -9.293 -15.716  -6.805  0.00  0.00    +0.003 A 
ATOM     33  C   UNL     1      -9.138 -17.090  -6.771  0.00  0.00    +0.000 A 
ATOM     34  C   UNL     1     -10.206 -17.897  -6.426  0.00  0.00    +0.000 A 
ATOM     35  C   UNL     1     -11.429 -17.332  -6.116  0.00  0.00    +0.000 A 
ATOM     36  C   UNL     1     -11.583 -15.958  -6.147  0.00  0.00    +0.003 A 
ENDBRANCH  30  31
ENDBRANCH  26  30
ENDBRANCH  22  23
ENDBRANCH  21  22
ENDBRANCH  20  21
ENDBRANCH   1  20
TORSDOF 11
