REMARK  Name = ZINC49918594
REMARK  5 active torsions:
REMARK  status: ('A' for Active; 'I' for Inactive)
REMARK    1  A    between atoms: C_1  and  C_2
REMARK    2  A    between atoms: C_4  and  C_23
REMARK    3  A    between atoms: C_5  and  C_9
REMARK    4  A    between atoms: C_6  and  C_8
REMARK    5  A    between atoms: C_9  and  C_11
REMARK                            x       y       z     vdW  Elec       q    Type
REMARK                         _______ _______ _______ _____ _____    ______ ____
ROOT
ATOM      1  C   UNL     1      -0.037  -5.003   1.280  0.00  0.00    +0.291 C 
ATOM      2  O   UNL     1      -0.194  -4.397   2.320  0.00  0.00    -0.266 OA
ATOM      3  N   UNL     1      -0.105  -6.349   1.268  0.00  0.00    -0.265 N 
ATOM      4  C   UNL     1       0.063  -7.094   0.013  0.00  0.00    +0.114 C 
ATOM      5  C   UNL     1      -1.026  -8.174  -0.040  0.00  0.00    +0.024 C 
ATOM      6  C   UNL     1      -0.810  -9.149   1.116  0.00  0.00    +0.038 C 
ATOM      7  C   UNL     1      -0.678  -8.403   2.418  0.00  0.00    -0.026 A 
ATOM      8  C   UNL     1      -0.330  -7.061   2.452  0.00  0.00    +0.040 A 
ATOM      9  C   UNL     1      -0.206  -6.403   3.671  0.00  0.00    +0.024 A 
ATOM     10  C   UNL     1      -0.427  -7.087   4.850  0.00  0.00    +0.002 A 
ATOM     11  C   UNL     1      -0.772  -8.425   4.817  0.00  0.00    +0.000 A 
ATOM     12  C   UNL     1      -0.905  -9.081   3.604  0.00  0.00    +0.005 A 
ENDROOT
BRANCH   1  13
ATOM     13  C   UNL     1       0.231  -4.258   0.016  0.00  0.00    +0.248 C 
ATOM     14  O   UNL     1       0.530  -4.863  -0.993  0.00  0.00    -0.282 OA
BRANCH  13  19
ATOM     15  C   UNL     1      -0.149   1.480  -0.080  0.00  0.00    +0.044 C 
ATOM     16  C   UNL     1      -0.049  -0.024  -0.055  0.00  0.00    -0.050 A 
ATOM     17  C   UNL     1       1.179  -0.629   0.152  0.00  0.00    +0.007 A 
ATOM     18  C   UNL     1       1.278  -2.004   0.176  0.00  0.00    -0.039 A 
ATOM     19  C   UNL     1       0.134  -2.787  -0.008  0.00  0.00    +0.033 A 
ATOM     20  C   UNL     1      -1.103  -2.168  -0.216  0.00  0.00    -0.039 A 
ATOM     21  C   UNL     1      -1.187  -0.792  -0.232  0.00  0.00    +0.007 A 
ATOM     22  C   UNL     1      -2.342  -3.003  -0.415  0.00  0.00    +0.044 C 
ATOM     23  C   UNL     1       2.616  -2.661   0.400  0.00  0.00    +0.044 C 
ENDBRANCH  13  19
ENDBRANCH   1  13
TORSDOF 2
