REMARK  Name = ZINC13843655
REMARK  4 active torsions:
REMARK  status: ('A' for Active; 'I' for Inactive)
REMARK    1  A    between atoms: C_1  and  C_2
REMARK    2  A    between atoms: N_6  and  C_19
REMARK    3  A    between atoms: N_8  and  S_9
REMARK    4  A    between atoms: S_9  and  C_12
REMARK                            x       y       z     vdW  Elec       q    Type
REMARK                         _______ _______ _______ _____ _____    ______ ____
ROOT
ATOM      1  C   UNL     1       1.038   2.474  -0.109  0.00  0.00    +0.029 C 
ATOM      2  C   UNL     1       0.788   0.985   0.140  0.00  0.00    +0.138 C 
ATOM      3  C   UNL     1       1.402   0.133  -0.959  0.00  0.00    +0.239 C 
ATOM      4  O   UNL     1       1.046   0.219  -2.115  0.00  0.00    -0.274 OA
ATOM      5  N   UNL     1       2.348  -0.708  -0.576  0.00  0.00    -0.217 N 
ATOM      6  C   UNL     1       2.758  -0.810   0.741  0.00  0.00    +0.189 C 
ATOM      7  N   UNL     1       3.671  -1.593   1.240  0.00  0.00    -0.105 NA
ATOM      8  S   UNL     1       1.738   0.383   1.597  0.00  0.00    -0.076 S 
ENDROOT
BRANCH   5   9
ATOM      9  C   UNL     1       2.956  -1.525  -1.539  0.00  0.00    +0.043 A 
ATOM     10  C   UNL     1       3.850  -0.978  -2.450  0.00  0.00    +0.024 A 
ATOM     11  C   UNL     1       4.448  -1.786  -3.398  0.00  0.00    +0.002 A 
ATOM     12  C   UNL     1       4.157  -3.137  -3.439  0.00  0.00    +0.000 A 
ATOM     13  C   UNL     1       3.268  -3.684  -2.533  0.00  0.00    +0.002 A 
ATOM     14  C   UNL     1       2.670  -2.883  -1.580  0.00  0.00    +0.024 A 
ENDBRANCH   5   9
BRANCH   7  15
ATOM     15  S   UNL     1       4.899  -2.152   0.279  0.00  0.00    +0.107 S 
ATOM     16  O   UNL     1       4.448  -3.376  -0.285  0.00  0.00    -0.146 OA
ATOM     17  O   UNL     1       5.321  -1.055  -0.519  0.00  0.00    -0.146 OA
BRANCH  15  18
ATOM     18  C   UNL     1       6.249  -2.552   1.338  0.00  0.00    +0.151 A 
ATOM     19  C   UNL     1       6.537  -3.728   1.946  0.00  0.00    +0.038 A 
ATOM     20  C   UNL     1       7.664  -3.814   2.743  0.00  0.00    +0.030 A 
ATOM     21  C   UNL     1       8.447  -2.716   2.892  0.00  0.00    +0.080 A 
ATOM     22  S   UNL     1       7.596  -1.515   1.883  0.00  0.00    -0.056 S 
ATOM     23 CL   UNL     1       9.903  -2.531   3.819  0.00  0.00    -0.076 Cl
ENDBRANCH  15  18
ENDBRANCH   7  15
TORSDOF 3
