REMARK  Name = ZINC33810285
REMARK  6 active torsions:
REMARK  status: ('A' for Active; 'I' for Inactive)
REMARK    1  A    between atoms: C_1  and  C_2
REMARK    2  A    between atoms: C_2  and  C_30
REMARK    3  A    between atoms: C_6  and  C_20
REMARK    4  A    between atoms: C_11  and  S_15
REMARK    5  A    between atoms: S_15  and  C_16
REMARK    6  A    between atoms: C_16  and  C_17
REMARK                            x       y       z     vdW  Elec       q    Type
REMARK                         _______ _______ _______ _____ _____    ______ ____
ROOT
ATOM      1  C   UNL     1       7.255   1.521  -1.105  0.00  0.00    +0.011 C 
ATOM      2  C   UNL     1       7.176   1.740   0.407  0.00  0.00    -0.023 C 
ATOM      3  C   UNL     1       5.849   2.415   0.760  0.00  0.00    +0.058 C 
ATOM      4  C   UNL     1       4.702   1.524   0.352  0.00  0.00    +0.017 C 
ATOM      5  C   UNL     1       4.832   0.180   0.354  0.00  0.00    +0.024 C 
ATOM      6  C   UNL     1       3.686  -0.711  -0.056  0.00  0.00    +0.092 C 
ATOM      7  C   UNL     1       2.382   0.031  -0.026  0.00  0.00    +0.069 A 
ATOM      8  C   UNL     1       2.350   1.390  -0.014  0.00  0.00    +0.135 A 
ATOM      9  N   UNL     1       1.141   2.033   0.002  0.00  0.00    -0.208 NA
ATOM     10  C   UNL     1      -0.016   1.313   0.009  0.00  0.00    +0.171 A 
ATOM     11  N   UNL     1       0.002  -0.004   0.002  0.00  0.00    -0.302 N 
ATOM     12  C   UNL     1       1.162  -0.679  -0.013  0.00  0.00    +0.258 A 
ATOM     13  O   UNL     1       1.161  -1.901  -0.017  0.00  0.00    -0.267 OA
ATOM     14  N   UNL     1       3.522   2.110  -0.019  0.00  0.00    -0.302 N 
ATOM     15  C   UNL     1       6.040  -0.431   0.734  0.00  0.00    +0.162 C 
ATOM     16  O   UNL     1       6.117  -1.644   0.745  0.00  0.00    -0.292 OA
ATOM     17  C   UNL     1       7.238   0.388   1.126  0.00  0.00    +0.086 C 
ATOM     18  C   UNL     1       8.339   2.623   0.861  0.00  0.00    +0.011 C 
ATOM     19  H   UNL     1       3.506   3.167  -0.324  0.00  0.00    +0.153 HD
ATOM     20  H   UNL     1      -0.943  -0.567   0.008  0.00  0.00    +0.171 HD
ENDROOT
BRANCH   6  21
ATOM     21  C   UNL     1       3.932  -1.219  -1.453  0.00  0.00    -0.032 A 
ATOM     22  C   UNL     1       4.018  -0.328  -2.507  0.00  0.00    +0.005 A 
ATOM     23  C   UNL     1       4.249  -0.792  -3.789  0.00  0.00    +0.003 A 
ATOM     24  C   UNL     1       4.383  -2.149  -4.019  0.00  0.00    +0.038 A 
ATOM     25  C   UNL     1       4.293  -3.042  -2.965  0.00  0.00    +0.124 A 
ATOM     26  C   UNL     1       4.067  -2.575  -1.681  0.00  0.00    +0.043 A 
ATOM     27  F   UNL     1       4.424  -4.367  -3.189  0.00  0.00    -0.205 F 
ENDBRANCH   6  21
BRANCH  10  28
ATOM     28  S   UNL     1      -1.562   2.157   0.021  0.00  0.00    -0.084 S 
BRANCH  28  29
ATOM     29  C   UNL     1      -2.692   0.744   0.019  0.00  0.00    +0.104 C 
BRANCH  29  30
ATOM     30  C   UNL     1      -4.116   1.239   0.028  0.00  0.00    -0.023 C 
ATOM     31  C   UNL     1      -4.897   1.007  -0.998  0.00  0.00    +0.005 C 
ENDBRANCH  29  30
ENDBRANCH  28  29
ENDBRANCH  10  28
TORSDOF 4
