REMARK  Name = ZINC10129688
REMARK  11 active torsions:
REMARK  status: ('A' for Active; 'I' for Inactive)
REMARK    1  A    between atoms: C_1  and  C_2
REMARK    2  A    between atoms: C_2  and  C_3
REMARK    3  A    between atoms: C_6  and  N_9
REMARK    4  A    between atoms: C_10  and  C_12
REMARK    5  A    between atoms: N_14  and  C_15
REMARK    6  A    between atoms: C_15  and  C_16
REMARK    7  A    between atoms: C_16  and  C_18
REMARK    8  A    between atoms: C_16  and  N_69
REMARK    9  A    between atoms: C_21  and  N_24
REMARK   10  A    between atoms: N_24  and  C_25
REMARK   11  A    between atoms: N_24  and  C_26
REMARK                            x       y       z     vdW  Elec       q    Type
REMARK                         _______ _______ _______ _____ _____    ______ ____
ROOT
ATOM      1  C   UNL     1      -2.525   7.371   8.865  0.00  0.00    -0.020 C 
ENDROOT
BRANCH   1  11
ATOM      2  C   UNL     1      -0.160   7.155   9.349  0.00  0.00    -0.073 C 
ATOM      3  C   UNL     1       1.198   7.730   8.947  0.00  0.00    +0.017 C 
ATOM      4  C   UNL     1       1.266   9.191   9.312  0.00  0.00    -0.048 A 
ATOM      5  C   UNL     1       2.509   9.803   9.361  0.00  0.00    +0.004 A 
ATOM      6  C   UNL     1       2.616  11.140   9.688  0.00  0.00    +0.000 A 
ATOM      7  C   UNL     1       1.477  11.873   9.967  0.00  0.00    +0.000 A 
ATOM      8  C   UNL     1       0.239  11.264   9.919  0.00  0.00    +0.002 A 
ATOM      9  C   UNL     1       0.131   9.920   9.593  0.00  0.00    -0.061 A 
ATOM     10  C   UNL     1      -1.241   9.299   9.563  0.00  0.00    -0.042 C 
ATOM     11  N   UNL     1      -1.206   8.040   8.798  0.00  0.00    +0.388 N 
ATOM     12  H   UNL     1      -0.987   8.249   7.817  0.00  0.00    -0.080 HD
ENDBRANCH   1  11
BRANCH   1  13
ATOM     13  C   UNL     1      -2.878   7.050  10.294  0.00  0.00    -0.059 A 
ATOM     14  C   UNL     1      -2.147   6.104  10.989  0.00  0.00    +0.004 A 
ATOM     15  C   UNL     1      -2.464   5.812  12.302  0.00  0.00    +0.023 A 
ATOM     16  C   UNL     1      -3.525   6.462  12.919  0.00  0.00    +0.029 A 
ATOM     17  C   UNL     1      -4.260   7.408  12.216  0.00  0.00    +0.023 A 
ATOM     18  C   UNL     1      -3.934   7.699  10.906  0.00  0.00    +0.004 A 
BRANCH  16  19
ATOM     19  N   UNL     1      -3.852   6.165  14.244  0.00  0.00    -0.336 N 
ATOM     20  C   UNL     1      -4.971   6.851  14.894  0.00  0.00    +0.129 C 
ATOM     21  C   UNL     1      -3.076   5.167  14.984  0.00  0.00    +0.129 C 
ENDBRANCH  16  19
ENDBRANCH   1  13
BRANCH   1  22
ATOM     22  C   UNL     1      -2.469   6.077   8.051  0.00  0.00    +0.094 C 
BRANCH  22  25
ATOM     23  C   UNL     1      -1.955   5.395   5.769  0.00  0.00    +0.299 C 
ATOM     24  O   UNL     1      -2.315   4.272   6.054  0.00  0.00    -0.265 OA
ATOM     25  N   UNL     1      -1.993   6.371   6.697  0.00  0.00    -0.309 N 
ATOM     26  H   UNL     1      -1.705   7.269   6.469  0.00  0.00    +0.149 HD
BRANCH  23  28
ATOM     27  N   UNL     1      -1.431   4.719   3.460  0.00  0.00    -0.278 N 
ATOM     28  C   UNL     1      -1.469   5.695   4.388  0.00  0.00    +0.303 C 
ATOM     29  O   UNL     1      -1.109   6.819   4.103  0.00  0.00    -0.265 OA
ATOM     30  H   UNL     1      -1.787   3.840   3.666  0.00  0.00    +0.155 HD
BRANCH  27  34
ATOM     31  C   UNL     1       0.213   5.475  -0.290  0.00  0.00    -0.048 A 
ATOM     32  C   UNL     1       0.730   6.102   0.829  0.00  0.00    +0.005 A 
ATOM     33  C   UNL     1       0.184   5.857   2.074  0.00  0.00    +0.023 A 
ATOM     34  C   UNL     1      -0.879   4.972   2.202  0.00  0.00    +0.034 A 
ATOM     35  C   UNL     1      -1.393   4.340   1.076  0.00  0.00    +0.023 A 
ATOM     36  C   UNL     1      -0.845   4.594  -0.166  0.00  0.00    +0.005 A 
BRANCH  31  38
ATOM     37  C   UNL     1       0.082   6.929  -2.295  0.00  0.00    +0.009 C 
ATOM     38  C   UNL     1       0.809   5.749  -1.647  0.00  0.00    +0.032 C 
ENDBRANCH  31  38
ENDBRANCH  27  34
ENDBRANCH  23  28
ENDBRANCH  22  25
ENDBRANCH   1  22
TORSDOF 8
