REMARK  Name = ZINC09266836
REMARK  11 active torsions:
REMARK  status: ('A' for Active; 'I' for Inactive)
REMARK    1  A    between atoms: C_1  and  C_2
REMARK    2  A    between atoms: C_2  and  O_3
REMARK    3  A    between atoms: O_3  and  C_4
REMARK    4  A    between atoms: C_9  and  C_10
REMARK    5  A    between atoms: C_18  and  O_38
REMARK    6  A    between atoms: C_21  and  C_22
REMARK    7  A    between atoms: C_21  and  N_75
REMARK    8  A    between atoms: N_24  and  C_25
REMARK    9  A    between atoms: C_26  and  C_34
REMARK   10  A    between atoms: C_34  and  O_36
REMARK   11  A    between atoms: O_36  and  C_37
REMARK                            x       y       z     vdW  Elec       q    Type
REMARK                         _______ _______ _______ _____ _____    ______ ____
ROOT
ATOM      1  C   UNL     1      -2.517   2.391  -7.225  0.00  0.00    -0.028 C 
ATOM      2  C   UNL     1      -3.738   2.865  -8.015  0.00  0.00    +0.011 C 
ATOM      3  C   UNL     1      -3.601   2.423  -9.472  0.00  0.00    +0.005 C 
ATOM      4  C   UNL     1      -2.352   3.048 -10.095  0.00  0.00    +0.000 C 
ATOM      5  C   UNL     1      -2.462   4.573 -10.033  0.00  0.00    +0.003 C 
ATOM      6  C   UNL     1      -2.576   5.015  -8.572  0.00  0.00    +0.035 C 
ATOM      7  C   UNL     1      -3.824   4.392  -7.944  0.00  0.00    +0.066 C 
ATOM      8  C   UNL     1      -3.911   4.816  -6.474  0.00  0.00    +0.016 C 
ATOM      9  C   UNL     1      -2.685   4.288  -5.726  0.00  0.00    -0.075 C 
ATOM     10  N   UNL     1      -2.665   2.812  -5.816  0.00  0.00    +0.390 N 
ATOM     11  H   UNL     1      -3.550   2.444  -5.449  0.00  0.00    -0.080 HD
ENDROOT
BRANCH   1  17
ATOM     12  C   UNL     1      -3.320   0.117  -6.538  0.00  0.00    +0.122 A 
ATOM     13  C   UNL     1      -3.247  -1.268  -6.595  0.00  0.00    +0.046 A 
ATOM     14  C   UNL     1      -2.287  -1.876  -7.380  0.00  0.00    +0.004 A 
ATOM     15  C   UNL     1      -1.403  -1.106  -8.114  0.00  0.00    +0.000 A 
ATOM     16  C   UNL     1      -1.478   0.274  -8.064  0.00  0.00    +0.005 A 
ATOM     17  C   UNL     1      -2.436   0.887  -7.280  0.00  0.00    -0.019 A 
BRANCH  12  18
ATOM     18  O   UNL     1      -4.260   0.718  -5.762  0.00  0.00    -0.492 OA
BRANCH  18  20
ATOM     19  C   UNL     1      -6.118   0.713  -4.216  0.00  0.00    +0.048 C 
ATOM     20  C   UNL     1      -5.136  -0.138  -5.026  0.00  0.00    +0.225 C 
ENDBRANCH  18  20
ENDBRANCH  12  18
ENDBRANCH   1  17
BRANCH   7  21
ATOM     21  O   UNL     1      -4.988   4.840  -8.642  0.00  0.00    -0.388 OA
ATOM     22  H   UNL     1      -5.109   5.799  -8.630  0.00  0.00    +0.210 HD
ENDBRANCH   7  21
BRANCH  10  23
ATOM     23  C   UNL     1      -1.551   2.273  -5.008  0.00  0.00    +0.020 C 
BRANCH  23  24
ATOM     24  C   UNL     1      -1.844   2.522  -3.551  0.00  0.00    +0.201 C 
ATOM     25  O   UNL     1      -2.859   3.101  -3.227  0.00  0.00    -0.278 OA
ATOM     26  N   UNL     1      -0.978   2.101  -2.608  0.00  0.00    -0.281 N 
ATOM     27  H   UNL     1      -0.166   1.638  -2.868  0.00  0.00    +0.155 HD
BRANCH  26  28
ATOM     28  C   UNL     1      -1.247   2.330  -1.268  0.00  0.00    +0.086 A 
ATOM     29  C   UNL     1      -0.485   1.977  -0.162  0.00  0.00    +0.091 A 
ATOM     30  C   UNL     1      -0.995   2.343   1.149  0.00  0.00    -0.021 A 
ATOM     31  C   UNL     1      -2.178   2.995   1.145  0.00  0.00    -0.004 A 
ATOM     32  S   UNL     1      -2.617   3.125  -0.566  0.00  0.00    -0.077 S 
ATOM     33  C   UNL     1      -2.940   3.491   2.334  0.00  0.00    +0.043 C 
ATOM     34  C   UNL     1      -2.364   2.823   3.591  0.00  0.00    +0.005 C 
ATOM     35  C   UNL     1      -0.837   2.937   3.554  0.00  0.00    +0.005 C 
ATOM     36  C   UNL     1      -0.274   2.034   2.455  0.00  0.00    +0.037 C 
BRANCH  29  37
ATOM     37  C   UNL     1       0.787   1.267  -0.311  0.00  0.00    +0.342 C 
ATOM     38  O   UNL     1       0.808   0.050  -0.313  0.00  0.00    -0.245 OA
BRANCH  37  39
ATOM     39  O   UNL     1       1.934   1.961  -0.453  0.00  0.00    -0.464 OA
ATOM     40  C   UNL     1       3.157   1.192  -0.602  0.00  0.00    +0.280 C 
ENDBRANCH  37  39
ENDBRANCH  29  37
ENDBRANCH  26  28
ENDBRANCH  23  24
ENDBRANCH  10  23
TORSDOF 9
