REMARK  Name = ZINC09354363
REMARK  5 active torsions:
REMARK  status: ('A' for Active; 'I' for Inactive)
REMARK    1  A    between atoms: C_5  and  N_7
REMARK    2  A    between atoms: C_15  and  C_35
REMARK    3  A    between atoms: C_18  and  C_24
REMARK    4  A    between atoms: C_24  and  C_26
REMARK    5  A    between atoms: C_30  and  N_32
REMARK                            x       y       z     vdW  Elec       q    Type
REMARK                         _______ _______ _______ _____ _____    ______ ____
ROOT
ATOM      1  N   UNL     1       4.249   0.451   1.317  0.00  0.00    -0.208 N 
ATOM      2  C   UNL     1       3.121   0.137   0.613  0.00  0.00    +0.232 C 
ATOM      3  O   UNL     1       2.620  -0.959   0.489  0.00  0.00    -0.274 OA
ATOM      4  C   UNL     1       2.629   1.431   0.023  0.00  0.00    +0.113 C 
ATOM      5  C   UNL     1       1.215   1.831   0.000  0.00  0.00    +0.093 C 
ATOM      6  C   UNL     1      -0.013   1.076   0.008  0.00  0.00    +0.013 C 
ATOM      7  C   UNL     1      -1.194   1.759   0.017  0.00  0.00    +0.051 C 
ATOM      8  C   UNL     1      -1.201   3.233   0.053  0.00  0.00    +0.032 C 
ATOM      9  C   UNL     1      -0.075   3.953   0.227  0.00  0.00    +0.054 C 
ATOM     10  C   UNL     1       2.393   3.638   0.996  0.00  0.00    +0.141 C 
ATOM     11  C   UNL     1       3.068   2.350   1.240  0.00  0.00    +0.116 C 
ATOM     12  C   UNL     1       4.362   1.796   1.571  0.00  0.00    +0.232 C 
ATOM     13  O   UNL     1       5.336   2.396   1.973  0.00  0.00    -0.274 OA
ATOM     14  N   UNL     1       1.265   3.248   0.068  0.00  0.00    -0.384 NA
ATOM     15  H   UNL     1       1.580   3.543  -0.864  0.00  0.00    +0.127 HD
ENDROOT
BRANCH   1  20
ATOM     16  C   UNL     1       7.188  -1.763   1.331  0.00  0.00    +0.002 A 
ATOM     17  C   UNL     1       7.050  -2.375   2.563  0.00  0.00    +0.002 A 
ATOM     18  C   UNL     1       5.986  -2.052   3.384  0.00  0.00    +0.022 A 
ATOM     19  C   UNL     1       5.055  -1.115   2.974  0.00  0.00    +0.063 A 
ATOM     20  C   UNL     1       5.191  -0.499   1.736  0.00  0.00    +0.062 A 
ATOM     21  C   UNL     1       6.258  -0.831   0.913  0.00  0.00    +0.025 A 
ATOM     22 CL   UNL     1       3.719  -0.709   4.005  0.00  0.00    -0.082 Cl
ENDBRANCH   1  20
BRANCH  10  23
ATOM     23  C   UNL     1       3.190   4.481   0.034  0.00  0.00    +0.183 C 
ATOM     24  O   UNL     1       2.821   4.605  -1.114  0.00  0.00    -0.290 OA
BRANCH  23  25
ATOM     25  C   UNL     1       4.418   5.154   0.489  0.00  0.00    +0.021 A 
ATOM     26  C   UNL     1       4.847   5.013   1.813  0.00  0.00    +0.011 A 
ATOM     27  C   UNL     1       5.998   5.646   2.231  0.00  0.00    +0.003 A 
ATOM     28  C   UNL     1       6.728   6.420   1.345  0.00  0.00    +0.033 A 
ATOM     29  C   UNL     1       6.310   6.564   0.034  0.00  0.00    +0.127 A 
ATOM     30  C   UNL     1       5.164   5.932  -0.402  0.00  0.00    +0.044 A 
BRANCH  29  31
ATOM     31  N   UNL     1       7.098   7.392  -0.906  0.00  0.00    +0.056 N 
ATOM     32  O   UNL     1       8.114   7.946  -0.524  0.00  0.00    -0.126 OA
ATOM     33  O   UNL     1       6.731   7.520  -2.060  0.00  0.00    -0.126 OA
ENDBRANCH  29  31
ENDBRANCH  23  25
ENDBRANCH  10  23
BRANCH   7  34
ATOM     34  C   UNL     1      -2.433   1.041  -0.004  0.00  0.00    +0.099 C 
ATOM     35  N   UNL     1      -3.415   0.471  -0.021  0.00  0.00    -0.191 NA
ENDBRANCH   7  34
TORSDOF 5
