REMARK  Name = ZINC15947599
REMARK  6 active torsions:
REMARK  status: ('A' for Active; 'I' for Inactive)
REMARK    1  A    between atoms: C_1  and  C_2
REMARK    2  A    between atoms: C_11  and  O_35
REMARK    3  A    between atoms: C_13  and  C_16
REMARK    4  A    between atoms: C_19  and  O_22
REMARK    5  A    between atoms: O_22  and  C_23
REMARK    6  A    between atoms: C_23  and  C_25
REMARK                            x       y       z     vdW  Elec       q    Type
REMARK                         _______ _______ _______ _____ _____    ______ ____
ROOT
ATOM      1  C   UNL     1      -1.482  -6.422   3.514  0.00  0.00    -0.005 A 
ATOM      2  C   UNL     1      -0.894  -6.115   4.727  0.00  0.00    +0.011 A 
ATOM      3  C   UNL     1      -1.681  -5.887   5.840  0.00  0.00    +0.047 A 
ATOM      4  C   UNL     1      -3.063  -5.967   5.739  0.00  0.00    +0.132 A 
ATOM      5  C   UNL     1      -3.650  -6.275   4.520  0.00  0.00    +0.047 A 
ATOM      6  C   UNL     1      -2.859  -6.496   3.409  0.00  0.00    +0.011 A 
ENDROOT
BRANCH   1  18
ATOM      7  C   UNL     1       0.419   1.540   0.284  0.00  0.00    +0.008 C 
ATOM      8  C   UNL     1       0.366   0.012   0.228  0.00  0.00    -0.009 C 
ATOM      9  C   UNL     1      -1.094  -0.450   0.208  0.00  0.00    +0.008 C 
ATOM     10  C   UNL     1      -1.162  -1.948  -0.095  0.00  0.00    +0.037 C 
ATOM     11  C   UNL     1      -0.246  -2.684   0.872  0.00  0.00    -0.023 A 
ATOM     12  C   UNL     1       0.727  -2.031   1.548  0.00  0.00    -0.004 A 
ATOM     13  S   UNL     1       1.513  -3.280   2.529  0.00  0.00    -0.078 S 
ATOM     14  C   UNL     1       0.607  -4.593   2.078  0.00  0.00    +0.080 A 
ATOM     15  C   UNL     1      -0.323  -4.106   1.152  0.00  0.00    +0.068 A 
ATOM     16  C   UNL     1      -1.274  -5.082   0.558  0.00  0.00    +0.220 C 
ATOM     17  N   UNL     1      -1.353  -6.263   1.108  0.00  0.00    -0.223 NA
ATOM     18  C   UNL     1      -0.621  -6.669   2.302  0.00  0.00    +0.224 C 
ATOM     19  N   UNL     1       0.639  -5.919   2.448  0.00  0.00    -0.313 N 
ATOM     20  C   UNL     1       1.057  -0.573   1.469  0.00  0.00    +0.046 C 
ATOM     21  H   UNL     1       1.447  -6.337   2.786  0.00  0.00    +0.149 HD
BRANCH  16  22
ATOM     22  O   UNL     1      -2.030  -4.757  -0.516  0.00  0.00    -0.492 OA
ATOM     23  H   UNL     1      -2.612  -5.469  -0.817  0.00  0.00    +0.294 HD
ENDBRANCH  16  22
ENDBRANCH   1  18
BRANCH   4  24
ATOM     24  O   UNL     1      -3.839  -5.744   6.831  0.00  0.00    -0.422 OA
BRANCH  24  25
ATOM     25  C   UNL     1      -3.864  -4.499   7.347  0.00  0.00    +0.345 C 
ATOM     26  O   UNL     1      -3.282  -3.595   6.780  0.00  0.00    -0.245 OA
BRANCH  25  27
ATOM     27  C   UNL     1      -4.595  -4.234   8.598  0.00  0.00    +0.067 A 
ATOM     28  C   UNL     1      -5.156  -5.276   9.326  0.00  0.00    +0.015 A 
ATOM     29  C   UNL     1      -5.845  -5.023  10.504  0.00  0.00    +0.001 A 
ATOM     30  C   UNL     1      -5.997  -3.760  10.990  0.00  0.00    +0.008 A 
ATOM     31  C   UNL     1      -5.456  -2.659  10.307  0.00  0.00    -0.017 A 
ATOM     32  C   UNL     1      -4.740  -2.870   9.103  0.00  0.00    -0.004 A 
ATOM     33  C   UNL     1      -4.194  -1.775   8.421  0.00  0.00    +0.009 A 
ATOM     34  C   UNL     1      -4.353  -0.520   8.927  0.00  0.00    +0.001 A 
ATOM     35  C   UNL     1      -5.051  -0.309  10.114  0.00  0.00    +0.001 A 
ATOM     36  C   UNL     1      -5.605  -1.349  10.796  0.00  0.00    +0.008 A 
ENDBRANCH  25  27
ENDBRANCH  24  25
ENDBRANCH   4  24
TORSDOF 5
