REMARK  Name = ZINC01214757
REMARK  5 active torsions:
REMARK  status: ('A' for Active; 'I' for Inactive)
REMARK    1  A    between atoms: C_1  and  C_2
REMARK    2  A    between atoms: C_4  and  C_27
REMARK    3  A    between atoms: C_6  and  N_8
REMARK    4  A    between atoms: C_12  and  C_13
REMARK    5  A    between atoms: C_16  and  O_20
REMARK                            x       y       z     vdW  Elec       q    Type
REMARK                         _______ _______ _______ _____ _____    ______ ____
ROOT
ATOM      1  N   UNL     1      -0.130   5.219  -0.542  0.00  0.00    -0.190 N 
ATOM      2  C   UNL     1      -1.245   5.890  -0.185  0.00  0.00    +0.263 C 
ATOM      3  O   UNL     1      -2.173   5.318   0.354  0.00  0.00    -0.269 OA
ATOM      4  C   UNL     1      -1.308   7.337  -0.468  0.00  0.00    +0.100 C 
ATOM      5  C   UNL     1      -2.416   8.091  -0.132  0.00  0.00    +0.026 C 
ATOM      6  C   UNL     1      -0.133   7.944  -1.126  0.00  0.00    +0.257 C 
ATOM      7  O   UNL     1      -0.110   9.130  -1.392  0.00  0.00    -0.270 OA
ATOM      8  N   UNL     1       0.912   7.145  -1.425  0.00  0.00    -0.235 N 
ATOM      9  C   UNL     1       0.902   5.837  -1.132  0.00  0.00    +0.320 C 
ATOM     10  O   UNL     1       1.879   5.175  -1.423  0.00  0.00    -0.251 OA
ATOM     11  H   UNL     1       1.692   7.527  -1.857  0.00  0.00    +0.159 HD
ENDROOT
BRANCH   1  17
ATOM     12  C   UNL     1       0.110   0.602  -2.220  0.00  0.00    +0.044 C 
ATOM     13  C   UNL     1       0.071   1.585  -1.079  0.00  0.00    -0.048 A 
ATOM     14  C   UNL     1       0.118   1.129   0.226  0.00  0.00    +0.006 A 
ATOM     15  C   UNL     1       0.077   2.028   1.277  0.00  0.00    -0.048 A 
ATOM     16  C   UNL     1       0.001   3.384   1.026  0.00  0.00    +0.027 A 
ATOM     17  C   UNL     1      -0.047   3.844  -0.283  0.00  0.00    +0.046 A 
ATOM     18  C   UNL     1      -0.012   2.939  -1.336  0.00  0.00    +0.027 A 
ATOM     19  C   UNL     1       0.122   1.527   2.697  0.00  0.00    +0.044 C 
ENDBRANCH   1  17
BRANCH   5  20
ATOM     20  C   UNL     1      -2.365   9.549  -0.229  0.00  0.00    -0.022 A 
ATOM     21  C   UNL     1      -3.423  10.253  -0.824  0.00  0.00    +0.031 A 
ATOM     22  C   UNL     1      -3.370  11.625  -0.911  0.00  0.00    +0.084 A 
ATOM     23  C   UNL     1      -2.269  12.315  -0.410  0.00  0.00    +0.149 A 
ATOM     24  C   UNL     1      -1.216  11.623   0.181  0.00  0.00    +0.061 A 
ATOM     25  C   UNL     1      -1.260  10.251   0.279  0.00  0.00    +0.027 A 
ATOM     26 BR   UNL     1       0.274  12.569   0.858  0.00  0.00    -0.046 Br
ATOM     27 CL   UNL     1      -4.678  12.498  -1.647  0.00  0.00    -0.080 Cl
BRANCH  23  28
ATOM     28  O   UNL     1      -2.221  13.668  -0.500  0.00  0.00    -0.504 OA
ATOM     29  H   UNL     1      -2.606  14.126   0.260  0.00  0.00    +0.292 HD
ENDBRANCH  23  28
ENDBRANCH   5  20
TORSDOF 3
