REMARK  Name = ZINC21672847
REMARK  12 active torsions:
REMARK  status: ('A' for Active; 'I' for Inactive)
REMARK    1  A    between atoms: C_1  and  C_2
REMARK    2  A    between atoms: C_2  and  C_3
REMARK    3  A    between atoms: C_3  and  C_26
REMARK    4  A    between atoms: N_6  and  N_10
REMARK    5  A    between atoms: C_11  and  C_13
REMARK    6  A    between atoms: C_13  and  N_14
REMARK    7  A    between atoms: N_14  and  C_15
REMARK    8  A    between atoms: N_14  and  C_16
REMARK    9  A    between atoms: C_16  and  C_17
REMARK   10  A    between atoms: C_17  and  O_18
REMARK   11  A    between atoms: O_18  and  C_19
REMARK   12  A    between atoms: C_24  and  C_25
REMARK                            x       y       z     vdW  Elec       q    Type
REMARK                         _______ _______ _______ _____ _____    ______ ____
ROOT
ATOM      1  N   UNL     1      -3.773   1.696  -2.663  0.00  0.00    -0.225 N 
ATOM      2  C   UNL     1      -3.812   0.589  -3.430  0.00  0.00    +0.213 C 
ATOM      3  O   UNL     1      -3.167  -0.390  -3.116  0.00  0.00    -0.276 OA
ATOM      4  H   UNL     1      -4.358   2.583  -2.947  0.00  0.00    +0.173 HD
ENDROOT
BRANCH   1   8
ATOM      5  C   UNL     1      -1.332   2.114   0.020  0.00  0.00    +0.139 C 
ATOM      6  C   UNL     1      -1.812   2.367  -1.395  0.00  0.00    +0.268 C 
ATOM      7  O   UNL     1      -1.255   3.018  -2.253  0.00  0.00    -0.271 OA
ATOM      8  N   UNL     1      -2.988   1.717  -1.502  0.00  0.00    -0.137 N 
ATOM      9  C   UNL     1      -3.314   1.095  -0.363  0.00  0.00    +0.327 C 
ATOM     10  O   UNL     1      -4.329   0.444  -0.216  0.00  0.00    -0.251 OA
ATOM     11  N   UNL     1      -2.392   1.272   0.600  0.00  0.00    -0.280 N 
ATOM     12  H   UNL     1      -2.312   0.926   1.641  0.00  0.00    +0.152 HD
BRANCH   5  13
ATOM     13  C   UNL     1      -0.017   1.378   0.010  0.00  0.00    -0.015 A 
ATOM     14  C   UNL     1       1.171   2.086   0.002  0.00  0.00    +0.006 A 
ATOM     15  C   UNL     1       2.377   1.411  -0.015  0.00  0.00    +0.000 A 
ATOM     16  C   UNL     1       2.396   0.029  -0.022  0.00  0.00    +0.000 A 
ATOM     17  C   UNL     1       1.208  -0.679  -0.013  0.00  0.00    +0.000 A 
ATOM     18  C   UNL     1       0.002  -0.004   0.002  0.00  0.00    +0.006 A 
ENDBRANCH   5  13
BRANCH   5  20
ATOM     19  C   UNL     1      -2.578   4.096   0.891  0.00  0.00    +0.007 C 
ATOM     20  C   UNL     1      -1.204   3.431   0.788  0.00  0.00    +0.037 C 
ENDBRANCH   5  20
ENDBRANCH   1   8
BRANCH   2  21
ATOM     21  C   UNL     1      -4.656   0.566  -4.678  0.00  0.00    +0.020 C 
BRANCH  21  22
ATOM     22  N   UNL     1      -4.528  -0.743  -5.332  0.00  0.00    +0.386 N 
ATOM     23  C   UNL     1      -3.162  -0.952  -5.830  0.00  0.00    -0.095 C 
ATOM     24  H   UNL     1      -4.735  -1.519  -4.580  0.00  0.00    -0.081 HD
BRANCH  22  25
ATOM     25  C   UNL     1      -5.511  -0.890  -6.414  0.00  0.00    -0.037 C 
BRANCH  25  26
ATOM     26  C   UNL     1      -5.519  -2.339  -6.903  0.00  0.00    +0.210 C 
BRANCH  26  27
ATOM     27  O   UNL     1      -5.981  -3.193  -5.854  0.00  0.00    -0.494 OA
BRANCH  27  28
ATOM     28  C   UNL     1      -6.049  -4.523  -6.126  0.00  0.00    +0.123 A 
ATOM     29  C   UNL     1      -5.684  -4.996  -7.379  0.00  0.00    +0.046 A 
ATOM     30  C   UNL     1      -5.749  -6.348  -7.651  0.00  0.00    +0.004 A 
ATOM     31  C   UNL     1      -6.187  -7.230  -6.680  0.00  0.00    +0.000 A 
ATOM     32  C   UNL     1      -6.557  -6.761  -5.433  0.00  0.00    +0.007 A 
ATOM     33  C   UNL     1      -6.489  -5.409  -5.154  0.00  0.00    -0.009 A 
ATOM     34  C   UNL     1      -6.892  -4.899  -3.795  0.00  0.00    +0.047 C 
ENDBRANCH  27  28
ENDBRANCH  26  27
ENDBRANCH  25  26
ENDBRANCH  22  25
ENDBRANCH  21  22
ENDBRANCH   2  21
TORSDOF 9
