REMARK  Name = ZINC38658443
REMARK  11 active torsions:
REMARK  status: ('A' for Active; 'I' for Inactive)
REMARK    1  A    between atoms: C_1  and  O_2
REMARK    2  A    between atoms: O_2  and  C_3
REMARK    3  A    between atoms: C_6  and  C_11
REMARK    4  A    between atoms: C_8  and  O_9
REMARK    5  A    between atoms: O_9  and  C_10
REMARK    6  A    between atoms: C_16  and  O_25
REMARK    7  A    between atoms: C_20  and  N_24
REMARK    8  A    between atoms: C_21  and  C_22
REMARK    9  A    between atoms: O_25  and  C_26
REMARK   10  A    between atoms: C_26  and  C_28
REMARK   11  A    between atoms: C_31  and  N_34
REMARK                            x       y       z     vdW  Elec       q    Type
REMARK                         _______ _______ _______ _____ _____    ______ ____
ROOT
ATOM      1  C   UNL     1      -4.935  -2.641  -0.002  0.00  0.00    +0.098 C 
ATOM      2  C   UNL     1      -5.727  -2.244  -1.220  0.00  0.00    +0.008 A 
ATOM      3  C   UNL     1      -5.350  -2.724  -2.462  0.00  0.00    +0.012 A 
ATOM      4  C   UNL     1      -6.064  -2.371  -3.590  0.00  0.00    +0.047 A 
ATOM      5  C   UNL     1      -7.165  -1.532  -3.480  0.00  0.00    +0.135 A 
ATOM      6  C   UNL     1      -7.544  -1.051  -2.238  0.00  0.00    +0.093 A 
ATOM      7  C   UNL     1      -6.824  -1.406  -1.105  0.00  0.00    +0.138 A 
ATOM      8  O   UNL     1      -7.208  -0.926   0.104  0.00  0.00    -0.441 OA
ATOM      9  C   UNL     1      -6.798  -1.535   1.228  0.00  0.00    +0.199 C 
ATOM     10  C   UNL     1      -5.727  -2.359   1.243  0.00  0.00    +0.098 C 
ENDROOT
BRANCH   1  14
ATOM     11  C   UNL     1      -1.292  -0.404   0.106  0.00  0.00    +0.162 A 
ATOM     12  C   UNL     1      -2.512   0.252   0.135  0.00  0.00    +0.050 A 
ATOM     13  C   UNL     1      -3.688  -0.474   0.100  0.00  0.00    +0.008 A 
ATOM     14  C   UNL     1      -3.650  -1.854   0.035  0.00  0.00    -0.031 A 
ATOM     15  C   UNL     1      -2.436  -2.515   0.006  0.00  0.00    +0.054 A 
ATOM     16  C   UNL     1      -1.253  -1.793   0.035  0.00  0.00    +0.162 A 
BRANCH  11  18
ATOM     17  C   UNL     1      -0.250   1.732   0.212  0.00  0.00    +0.277 C 
ATOM     18  O   UNL     1      -0.134   0.309   0.140  0.00  0.00    -0.491 OA
ENDBRANCH  11  18
BRANCH  16  19
ATOM     19  O   UNL     1      -0.058  -2.441   0.001  0.00  0.00    -0.491 OA
ATOM     20  C   UNL     1      -0.096  -3.868  -0.071  0.00  0.00    +0.277 C 
ENDBRANCH  16  19
ENDBRANCH   1  14
BRANCH   9  21
ATOM     21  N   UNL     1      -7.486  -1.313   2.395  0.00  0.00    -0.328 N 
ATOM     22  H   UNL     1      -8.256  -0.723   2.400  0.00  0.00    +0.145 HD
ATOM     23  H   UNL     1      -7.202  -1.746   3.216  0.00  0.00    +0.145 HD
ENDBRANCH   9  21
BRANCH  10  24
ATOM     24  C   UNL     1      -5.341  -2.978   2.475  0.00  0.00    +0.101 C 
ATOM     25  N   UNL     1      -5.035  -3.469   3.453  0.00  0.00    -0.191 NA
ENDBRANCH  10  24
BRANCH   5  26
ATOM     26  O   UNL     1      -7.868  -1.184  -4.589  0.00  0.00    -0.422 OA
BRANCH  26  27
ATOM     27  C   UNL     1      -8.597  -2.137  -5.202  0.00  0.00    +0.344 C 
ATOM     28  O   UNL     1      -8.695  -3.241  -4.703  0.00  0.00    -0.245 OA
BRANCH  27  29
ATOM     29  C   UNL     1      -9.276  -1.841  -6.480  0.00  0.00    +0.060 A 
ATOM     30  C   UNL     1      -9.160  -0.576  -7.059  0.00  0.00    +0.017 A 
ATOM     31  C   UNL     1      -9.797  -0.306  -8.252  0.00  0.00    +0.033 A 
ATOM     32  C   UNL     1     -10.549  -1.286  -8.876  0.00  0.00    +0.126 A 
ATOM     33  C   UNL     1     -10.668  -2.542  -8.308  0.00  0.00    +0.033 A 
ATOM     34  C   UNL     1     -10.031  -2.827  -7.117  0.00  0.00    +0.017 A 
BRANCH  32  35
ATOM     35  N   UNL     1     -11.231  -0.989 -10.156  0.00  0.00    +0.056 N 
ATOM     36  O   UNL     1     -11.129   0.108 -10.654  0.00  0.00    -0.126 OA
ATOM     37  O   UNL     1     -11.889  -1.843 -10.703  0.00  0.00    -0.126 OA
ENDBRANCH  32  35
ENDBRANCH  27  29
ENDBRANCH  26  27
ENDBRANCH   5  26
TORSDOF 9
