REMARK  Name = ZINC04140451
REMARK  4 active torsions:
REMARK  status: ('A' for Active; 'I' for Inactive)
REMARK    1  A    between atoms: C_1  and  O_2
REMARK    2  A    between atoms: O_2  and  C_3
REMARK    3  A    between atoms: C_6  and  C_12
REMARK    4  A    between atoms: C_8  and  N_9
REMARK                            x       y       z     vdW  Elec       q    Type
REMARK                         _______ _______ _______ _____ _____    ______ ____
ROOT
ATOM      1  C   UNL     1      -0.668   1.625   1.267  0.00  0.00    +0.105 C 
ATOM      2  C   UNL     1      -0.013   1.086   0.008  0.00  0.00    +0.029 C 
ATOM      3  C   UNL     1      -0.476   1.651  -1.341  0.00  0.00    +0.033 C 
ATOM      4  C   UNL     1       0.787   1.498  -2.190  0.00  0.00    -0.030 C 
ATOM      5  C   UNL     1       1.861   1.501  -1.410  0.00  0.00    -0.023 C 
ATOM      6  C   UNL     1       1.425   1.687  -0.003  0.00  0.00    +0.049 C 
ATOM      7  C   UNL     1       2.176   1.089   1.121  0.00  0.00    -0.019 A 
ATOM      8  C   UNL     1       3.523   0.806   1.044  0.00  0.00    +0.006 A 
ATOM      9  C   UNL     1       4.185   0.260   2.128  0.00  0.00    +0.000 A 
ATOM     10  C   UNL     1       3.495  -0.005   3.297  0.00  0.00    +0.002 A 
ATOM     11  C   UNL     1       2.146   0.269   3.383  0.00  0.00    +0.023 A 
ATOM     12  C   UNL     1       1.469   0.811   2.296  0.00  0.00    +0.031 A 
ATOM     13  N   UNL     1       0.092   1.045   2.394  0.00  0.00    -0.336 N 
ATOM     14  H   UNL     1      -0.371   0.821   3.216  0.00  0.00    +0.147 HD
ENDROOT
BRANCH   1  18
ATOM     15  C   UNL     1      -4.754   0.388   1.451  0.00  0.00    +0.150 A 
ATOM     16  C   UNL     1      -3.745  -0.488   1.825  0.00  0.00    +0.048 A 
ATOM     17  C   UNL     1      -2.425  -0.088   1.759  0.00  0.00    +0.009 A 
ATOM     18  C   UNL     1      -2.109   1.189   1.332  0.00  0.00    -0.025 A 
ATOM     19  C   UNL     1      -3.112   2.064   0.959  0.00  0.00    +0.042 A 
ATOM     20  C   UNL     1      -4.434   1.666   1.017  0.00  0.00    +0.168 A 
BRANCH  20  21
ATOM     21  N   UNL     1      -5.507   2.604   0.617  0.00  0.00    +0.060 N 
ATOM     22  O   UNL     1      -5.226   3.726   0.237  0.00  0.00    -0.126 OA
ATOM     23  O   UNL     1      -6.673   2.253   0.669  0.00  0.00    -0.126 OA
ENDBRANCH  20  21
BRANCH  15  25
ATOM     24  C   UNL     1      -6.309  -1.335   1.965  0.00  0.00    +0.277 C 
ATOM     25  O   UNL     1      -6.054  -0.005   1.508  0.00  0.00    -0.493 OA
ENDBRANCH  15  25
ENDBRANCH   1  18
TORSDOF 3
