REMARK  Name = ZINC28381728
REMARK  13 active torsions:
REMARK  status: ('A' for Active; 'I' for Inactive)
REMARK    1  A    between atoms: C_1  and  C_2
REMARK    2  A    between atoms: C_4  and  C_8
REMARK    3  A    between atoms: N_12  and  N_13
REMARK    4  A    between atoms: C_14  and  C_15
REMARK    5  A    between atoms: C_17  and  C_26
REMARK    6  A    between atoms: C_18  and  O_25
REMARK    7  A    between atoms: C_19  and  C_21
REMARK    8  A    between atoms: C_21  and  C_22
REMARK    9  A    between atoms: C_21  and  C_23
REMARK   10  A    between atoms: C_21  and  C_24
REMARK   11  A    between atoms: C_26  and  C_27
REMARK   12  A    between atoms: C_26  and  C_28
REMARK   13  A    between atoms: C_26  and  C_29
REMARK                            x       y       z     vdW  Elec       q    Type
REMARK                         _______ _______ _______ _____ _____    ______ ____
ROOT
ATOM      1  C   UNL     1       5.569   0.700  -1.184  0.00  0.00    -0.004 A 
ATOM      2  C   UNL     1       6.279   0.700   0.019  0.00  0.00    +0.017 A 
ATOM      3  C   UNL     1       7.657   0.707   0.004  0.00  0.00    +0.000 A 
ATOM      4  C   UNL     1       8.340   0.725  -1.206  0.00  0.00    +0.124 A 
ATOM      5  C   UNL     1       7.638   0.730  -2.405  0.00  0.00    +0.000 A 
ATOM      6  C   UNL     1       6.260   0.718  -2.399  0.00  0.00    +0.017 A 
ENDROOT
BRANCH   5   7
ATOM      7  C   UNL     1       8.384   0.750  -3.714  0.00  0.00    -0.009 C 
ATOM      8  C   UNL     1       7.384   0.752  -4.872  0.00  0.00    +0.015 C 
ATOM      9  C   UNL     1       9.252   2.008  -3.787  0.00  0.00    +0.015 C 
ATOM     10  C   UNL     1       9.275  -0.490  -3.812  0.00  0.00    +0.015 C 
ENDBRANCH   5   7
BRANCH   3  11
ATOM     11  C   UNL     1       8.424   0.702   1.301  0.00  0.00    -0.009 C 
ATOM     12  C   UNL     1       7.442   0.682   2.474  0.00  0.00    +0.015 C 
ATOM     13  C   UNL     1       9.316  -0.539   1.361  0.00  0.00    +0.015 C 
ATOM     14  C   UNL     1       9.293   1.959   1.385  0.00  0.00    +0.015 C 
ENDBRANCH   3  11
BRANCH   1  16
ATOM     15  N   UNL     1       3.455   0.670  -0.044  0.00  0.00    -0.170 NA
ATOM     16  C   UNL     1       4.095   0.687  -1.173  0.00  0.00    +0.141 C 
BRANCH  15  21
ATOM     17  C   UNL     1       1.210   1.749  -0.015  0.00  0.00    +0.203 A 
ATOM     18  N   UNL     1      -0.020   1.283  -0.009  0.00  0.00    -0.125 NA
ATOM     19  N   UNL     1      -0.004  -0.002  -0.022  0.00  0.00    -0.119 NA
ATOM     20  C   UNL     1       1.236  -0.440  -0.036  0.00  0.00    +0.223 A 
ATOM     21  N   UNL     1       2.054   0.658  -0.033  0.00  0.00    -0.185 N 
ATOM     22  S   UNL     1       1.748  -2.125  -0.057  0.00  0.00    -0.007 SA
BRANCH  17  26
ATOM     23  C   UNL     1       1.097   6.806   0.412  0.00  0.00    +0.067 C 
ATOM     24  C   UNL     1       1.579   5.397   0.178  0.00  0.00    +0.060 A 
ATOM     25  C   UNL     1       0.804   4.244   0.293  0.00  0.00    +0.055 A 
ATOM     26  C   UNL     1       1.611   3.166  -0.006  0.00  0.00    +0.105 A 
ATOM     27  N   UNL     1       2.853   3.660  -0.285  0.00  0.00    -0.274 N 
ATOM     28  H   UNL     1       3.672   2.974  -0.546  0.00  0.00    +0.189 HD
ATOM     29  N   UNL     1       2.794   5.054  -0.166  0.00  0.00    -0.179 NA
ENDBRANCH  17  26
ENDBRANCH  15  21
ENDBRANCH   1  16
BRANCH   4  30
ATOM     30  O   UNL     1       9.698   0.738  -1.217  0.00  0.00    -0.506 OA
ATOM     31  H   UNL     1      10.240   0.752  -2.174  0.00  0.00    +0.292 HD
ENDBRANCH   4  30
TORSDOF 6
