REMARK  Name = ZINC05681526
REMARK  3 active torsions:
REMARK  status: ('A' for Active; 'I' for Inactive)
REMARK    1  A    between atoms: C_4  and  C_7
REMARK    2  A    between atoms: C_10  and  C_13
REMARK    3  A    between atoms: C_13  and  N_14
REMARK                            x       y       z     vdW  Elec       q    Type
REMARK                         _______ _______ _______ _____ _____    ______ ____
ROOT
ATOM      1  N   UNL     1       6.658  -1.249   1.318  0.00  0.00    -0.220 N 
ATOM      2  C   UNL     1       6.344  -2.351   2.031  0.00  0.00    +0.251 C 
ATOM      3  O   UNL     1       5.671  -3.292   1.670  0.00  0.00    -0.272 OA
ATOM      4  C   UNL     1       7.009  -2.163   3.373  0.00  0.00    +0.139 C 
ATOM      5  C   UNL     1       8.005  -3.279   3.651  0.00  0.00    +0.040 C 
ATOM      6  C   UNL     1       7.266  -4.591   3.931  0.00  0.00    +0.008 C 
ATOM      7  C   UNL     1       6.534  -4.471   5.276  0.00  0.00    +0.043 C 
ATOM      8  C   UNL     1       5.788  -3.178   5.298  0.00  0.00    -0.005 A 
ATOM      9  C   UNL     1       5.958  -2.111   4.469  0.00  0.00    -0.005 A 
ATOM     10  C   UNL     1       5.130  -1.011   4.692  0.00  0.00    +0.014 A 
ATOM     11  C   UNL     1       4.218  -1.041   5.691  0.00  0.00    +0.046 A 
ATOM     12  S   UNL     1       4.486  -2.665   6.386  0.00  0.00    -0.101 S 
ATOM     13  N   UNL     1       7.684  -0.866   3.263  0.00  0.00    -0.281 N 
ATOM     14  C   UNL     1       7.426  -0.408   2.022  0.00  0.00    +0.310 C 
ATOM     15  O   UNL     1       7.842   0.649   1.592  0.00  0.00    -0.252 OA
ATOM     16  H   UNL     1       8.214  -0.427   3.947  0.00  0.00    +0.152 HD
ENDROOT
BRANCH   1  17
ATOM     17  C   UNL     1       6.219  -1.005  -0.058  0.00  0.00    +0.153 C 
BRANCH  17  21
ATOM     18  C   UNL     1       2.481   1.070  -0.015  0.00  0.00    -0.018 A 
ATOM     19  C   UNL     1       2.507  -0.323  -0.016  0.00  0.00    +0.009 A 
ATOM     20  C   UNL     1       3.717  -0.988  -0.036  0.00  0.00    +0.006 A 
ATOM     21  C   UNL     1       4.901  -0.274  -0.043  0.00  0.00    -0.030 A 
ATOM     22  C   UNL     1       4.881   1.109  -0.036  0.00  0.00    +0.006 A 
ATOM     23  C   UNL     1       3.677   1.784  -0.022  0.00  0.00    +0.009 A 
BRANCH  18  27
ATOM     24  C   UNL     1      -1.236   3.134   0.030  0.00  0.00    +0.000 A 
ATOM     25  C   UNL     1      -1.216   1.751   0.017  0.00  0.00    +0.001 A 
ATOM     26  C   UNL     1      -0.013   1.076   0.008  0.00  0.00    +0.008 A 
ATOM     27  C   UNL     1       1.184   1.790   0.000  0.00  0.00    -0.018 A 
ATOM     28  C   UNL     1       1.157   3.183   0.008  0.00  0.00    +0.008 A 
ATOM     29  C   UNL     1      -0.052   3.848   0.022  0.00  0.00    +0.001 A 
ENDBRANCH  18  27
ENDBRANCH  17  21
ENDBRANCH   1  17
TORSDOF 3
