REMARK  Name = ZINC37067302
REMARK  8 active torsions:
REMARK  status: ('A' for Active; 'I' for Inactive)
REMARK    1  A    between atoms: C_1  and  C_2
REMARK    2  A    between atoms: C_2  and  O_3
REMARK    3  A    between atoms: O_3  and  C_4
REMARK    4  A    between atoms: C_5  and  N_21
REMARK    5  A    between atoms: C_8  and  N_10
REMARK    6  A    between atoms: N_10  and  C_11
REMARK    7  A    between atoms: C_16  and  S_17
REMARK    8  A    between atoms: S_17  and  C_18
REMARK                            x       y       z     vdW  Elec       q    Type
REMARK                         _______ _______ _______ _____ _____    ______ ____
ROOT
ATOM      1  C   UNL     1      -1.497  -1.847   0.058  0.00  0.00    +0.238 A 
ATOM      2  C   UNL     1      -2.760  -2.381   0.304  0.00  0.00    +0.087 A 
ATOM      3  C   UNL     1      -2.897  -3.757   0.447  0.00  0.00    +0.031 A 
ATOM      4  C   UNL     1      -1.766  -4.550   0.339  0.00  0.00    +0.046 A 
ATOM      5  C   UNL     1      -0.538  -3.950   0.092  0.00  0.00    +0.127 A 
ATOM      6  N   UNL     1      -0.440  -2.635  -0.044  0.00  0.00    -0.196 NA
ENDROOT
BRANCH   2   7
ATOM      7  N   UNL     1      -3.879  -1.541   0.407  0.00  0.00    -0.354 N 
ATOM      8  H   UNL     1      -3.776  -0.582   0.307  0.00  0.00    +0.142 HD
ATOM      9  H   UNL     1      -4.755  -1.919   0.579  0.00  0.00    +0.142 HD
ENDBRANCH   2   7
BRANCH   5  10
ATOM     10  N   UNL     1       0.604  -4.740  -0.018  0.00  0.00    -0.298 N 
ATOM     11  H   UNL     1       0.527  -5.707  -0.020  0.00  0.00    +0.154 HD
BRANCH  10  12
ATOM     12  C   UNL     1       1.864  -4.138  -0.127  0.00  0.00    +0.046 A 
ATOM     13  C   UNL     1       2.101  -2.909   0.468  0.00  0.00    +0.024 A 
ATOM     14  C   UNL     1       3.346  -2.316   0.359  0.00  0.00    +0.002 A 
ATOM     15  C   UNL     1       4.357  -2.946  -0.342  0.00  0.00    +0.001 A 
ATOM     16  C   UNL     1       4.130  -4.173  -0.939  0.00  0.00    +0.017 A 
ATOM     17  C   UNL     1       2.886  -4.777  -0.830  0.00  0.00    +0.034 A 
BRANCH  17  18
ATOM     18  S   UNL     1       2.596  -6.344  -1.583  0.00  0.00    -0.054 S 
BRANCH  18  19
ATOM     19  C   UNL     1       4.183  -6.758  -2.359  0.00  0.00    +0.404 C 
ATOM     20  F   UNL     1       4.514  -5.775  -3.298  0.00  0.00    -0.197 F 
ATOM     21  F   UNL     1       5.179  -6.821  -1.379  0.00  0.00    -0.197 F 
ENDBRANCH  18  19
ENDBRANCH  17  18
ENDBRANCH  10  12
ENDBRANCH   5  10
BRANCH   1  22
ATOM     22  O   UNL     1      -1.351  -0.505  -0.084  0.00  0.00    -0.475 OA
BRANCH  22  24
ATOM     23  C   UNL     1      -0.065   1.505  -0.470  0.00  0.00    +0.048 C 
ATOM     24  C   UNL     1      -0.031  -0.019  -0.341  0.00  0.00    +0.227 C 
ENDBRANCH  22  24
ENDBRANCH   1  22
TORSDOF 7
