REMARK  Name = ZINC11990638
REMARK  6 active torsions:
REMARK  status: ('A' for Active; 'I' for Inactive)
REMARK    1  A    between atoms: C_4  and  C_7
REMARK    2  A    between atoms: C_7  and  C_9
REMARK    3  A    between atoms: C_11  and  C_23
REMARK    4  A    between atoms: C_17  and  C_18
REMARK    5  A    between atoms: C_17  and  O_22
REMARK    6  A    between atoms: C_26  and  C_28
REMARK                            x       y       z     vdW  Elec       q    Type
REMARK                         _______ _______ _______ _____ _____    ______ ____
ROOT
ATOM      1  C   UNL     1       7.762   2.106  -1.485  0.00  0.00    +0.147 C 
ATOM      2  C   UNL     1       7.302   2.420  -0.058  0.00  0.00    +0.156 C 
ATOM      3  N   UNL     1       7.664   1.305   0.819  0.00  0.00    -0.289 N 
ATOM      4  C   UNL     1       8.731   0.534   0.564  0.00  0.00    +0.302 C 
ATOM      5  O   UNL     1       8.994  -0.372   1.330  0.00  0.00    -0.253 OA
ATOM      6  N   UNL     1       9.521   0.724  -0.504  0.00  0.00    -0.264 N 
ATOM      7  C   UNL     1       9.265   1.805  -1.458  0.00  0.00    +0.243 C 
ATOM      8  H   UNL     1       7.121   1.120   1.602  0.00  0.00    +0.151 HD
ATOM      9  H   UNL     1      10.276   0.133  -0.648  0.00  0.00    +0.153 HD
ENDROOT
BRANCH   2  10
ATOM     10  C   UNL     1       5.807   2.609  -0.041  0.00  0.00    +0.127 A 
ATOM     11  C   UNL     1       5.165   3.793  -0.028  0.00  0.00    +0.047 A 
ATOM     12  C   UNL     1       3.784   3.514  -0.021  0.00  0.00    +0.050 A 
ATOM     13  C   UNL     1       3.658   2.161  -0.022  0.00  0.00    +0.135 A 
ATOM     14  O   UNL     1       4.893   1.625  -0.037  0.00  0.00    -0.458 OA
BRANCH  13  15
ATOM     15  C   UNL     1       2.386   1.408  -0.014  0.00  0.00    +0.019 A 
ATOM     16  C   UNL     1       2.397   0.012  -0.022  0.00  0.00    +0.013 A 
ATOM     17  C   UNL     1       1.207  -0.685  -0.014  0.00  0.00    +0.022 A 
ATOM     18  C   UNL     1       0.002  -0.004   0.002  0.00  0.00    +0.059 A 
ATOM     19  C   UNL     1      -0.017   1.381   0.010  0.00  0.00    +0.060 A 
ATOM     20  C   UNL     1       1.168   2.090   0.002  0.00  0.00    +0.033 A 
ATOM     21 CL   UNL     1      -1.533   2.228   0.021  0.00  0.00    -0.082 Cl
ATOM     22 CL   UNL     1      -1.491  -0.889   0.011  0.00  0.00    -0.082 Cl
ENDBRANCH  13  15
ENDBRANCH   2  10
BRANCH   7  23
ATOM     23  C   UNL     1       9.726   1.376  -2.852  0.00  0.00    +0.436 C 
ATOM     24  F   UNL     1       9.023   0.233  -3.245  0.00  0.00    -0.166 F 
ATOM     25  F   UNL     1       9.482   2.410  -3.762  0.00  0.00    -0.166 F 
ATOM     26  F   UNL     1      11.097   1.095  -2.824  0.00  0.00    -0.166 F 
ENDBRANCH   7  23
BRANCH   1  27
ATOM     27  C   UNL     1       7.014   0.906  -2.006  0.00  0.00    +0.173 C 
ATOM     28  O   UNL     1       7.462  -0.208  -1.836  0.00  0.00    -0.292 OA
BRANCH  27  32
ATOM     29  C   UNL     1       3.344   1.425  -4.069  0.00  0.00    +0.000 A 
ATOM     30  C   UNL     1       3.852   0.152  -3.877  0.00  0.00    +0.001 A 
ATOM     31  C   UNL     1       5.044  -0.025  -3.207  0.00  0.00    +0.011 A 
ATOM     32  C   UNL     1       5.741   1.086  -2.722  0.00  0.00    +0.018 A 
ATOM     33  C   UNL     1       5.219   2.369  -2.916  0.00  0.00    +0.011 A 
ATOM     34  C   UNL     1       4.028   2.530  -3.592  0.00  0.00    +0.001 A 
ENDBRANCH  27  32
ENDBRANCH   1  27
BRANCH   7  35
ATOM     35  O   UNL     1       9.980   2.975  -1.056  0.00  0.00    -0.364 OA
ATOM     36  H   UNL     1      10.939   2.854  -1.013  0.00  0.00    +0.212 HD
ENDBRANCH   7  35
TORSDOF 6
