REMARK  Name = ZINC38211800
REMARK  10 active torsions:
REMARK  status: ('A' for Active; 'I' for Inactive)
REMARK    1  A    between atoms: C_4  and  C_7
REMARK    2  A    between atoms: C_7  and  N_8
REMARK    3  A    between atoms: N_8  and  C_9
REMARK    4  A    between atoms: N_8  and  C_25
REMARK    5  A    between atoms: C_9  and  C_10
REMARK    6  A    between atoms: C_10  and  C_12
REMARK    7  A    between atoms: C_10  and  O_24
REMARK    8  A    between atoms: C_25  and  C_26
REMARK    9  A    between atoms: C_26  and  C_28
REMARK   10  A    between atoms: C_26  and  O_40
REMARK                            x       y       z     vdW  Elec       q    Type
REMARK                         _______ _______ _______ _____ _____    ______ ____
ROOT
ATOM      1  N   UNL     1       4.126  -0.400   0.630  0.00  0.00    +0.386 N 
ATOM      2  H   UNL     1       4.550  -1.123   0.069  0.00  0.00    -0.081 HD
ENDROOT
BRANCH   1   3
ATOM      3  C   UNL     1       2.666  -0.561   0.615  0.00  0.00    -0.043 C 
BRANCH   3   7
ATOM      4  C   UNL     1       0.828   3.188  -0.287  0.00  0.00    +0.000 A 
ATOM      5  C   UNL     1       1.000   2.246  -1.284  0.00  0.00    +0.000 A 
ATOM      6  C   UNL     1       1.595   1.032  -0.992  0.00  0.00    +0.002 A 
ATOM      7  C   UNL     1       2.018   0.762   0.296  0.00  0.00    -0.064 A 
ATOM      8  C   UNL     1       1.847   1.705   1.292  0.00  0.00    +0.002 A 
ATOM      9  C   UNL     1       1.251   2.918   1.001  0.00  0.00    +0.000 A 
ENDBRANCH   3   7
ENDBRANCH   1   3
BRANCH   1  10
ATOM     10  C   UNL     1       4.479   0.916   0.081  0.00  0.00    -0.043 C 
BRANCH  10  11
ATOM     11  C   UNL     1       5.393   0.734  -1.132  0.00  0.00    +0.139 C 
BRANCH  11  12
ATOM     12  C   UNL     1       5.397   2.017  -1.965  0.00  0.00    +0.200 C 
ATOM     13  C   UNL     1       6.322   1.844  -3.177  0.00  0.00    +0.052 C 
ATOM     14  C   UNL     1       6.216   3.100  -4.045  0.00  0.00    +0.042 C 
ATOM     15  C   UNL     1       6.354   4.328  -3.181  0.00  0.00    -0.003 A 
ATOM     16  C   UNL     1       6.662   5.536  -3.784  0.00  0.00    +0.045 A 
ATOM     17  C   UNL     1       6.792   6.683  -3.022  0.00  0.00    +0.124 A 
ATOM     18  C   UNL     1       6.613   6.626  -1.651  0.00  0.00    +0.042 A 
ATOM     19  C   UNL     1       6.307   5.424  -1.046  0.00  0.00    +0.049 A 
ATOM     20  C   UNL     1       6.178   4.268  -1.810  0.00  0.00    +0.124 A 
ATOM     21  O   UNL     1       5.886   3.102  -1.175  0.00  0.00    -0.486 OA
ATOM     22  F   UNL     1       7.094   7.858  -3.616  0.00  0.00    -0.205 F 
ENDBRANCH  11  12
BRANCH  11  23
ATOM     23  O   UNL     1       4.915  -0.351  -1.930  0.00  0.00    -0.390 OA
ATOM     24  H   UNL     1       4.041  -0.200  -2.316  0.00  0.00    +0.210 HD
ENDBRANCH  11  23
ENDBRANCH  10  11
ENDBRANCH   1  10
BRANCH   1  25
ATOM     25  C   UNL     1       4.615  -0.502   2.011  0.00  0.00    -0.043 C 
BRANCH  25  26
ATOM     26  C   UNL     1       6.078  -0.058   2.069  0.00  0.00    +0.139 C 
BRANCH  26  27
ATOM     27  C   UNL     1       6.642  -0.338   3.463  0.00  0.00    +0.200 C 
ATOM     28  C   UNL     1       8.143  -0.023   3.486  0.00  0.00    +0.052 C 
ATOM     29  C   UNL     1       8.651  -0.207   4.918  0.00  0.00    +0.042 C 
ATOM     30  C   UNL     1       8.165  -1.526   5.463  0.00  0.00    -0.003 A 
ATOM     31  C   UNL     1       8.799  -2.062   6.572  0.00  0.00    +0.045 A 
ATOM     32  C   UNL     1       8.378  -3.268   7.101  0.00  0.00    +0.124 A 
ATOM     33  C   UNL     1       7.317  -3.945   6.521  0.00  0.00    +0.042 A 
ATOM     34  C   UNL     1       6.685  -3.414   5.415  0.00  0.00    +0.049 A 
ATOM     35  C   UNL     1       7.109  -2.202   4.880  0.00  0.00    +0.124 A 
ATOM     36  O   UNL     1       6.466  -1.718   3.784  0.00  0.00    -0.486 OA
ATOM     37  F   UNL     1       9.000  -3.787   8.183  0.00  0.00    -0.205 F 
ENDBRANCH  26  27
BRANCH  26  38
ATOM     38  O   UNL     1       6.834  -0.780   1.095  0.00  0.00    -0.390 OA
ATOM     39  H   UNL     1       6.840  -1.738   1.233  0.00  0.00    +0.210 HD
ENDBRANCH  26  38
ENDBRANCH  25  26
ENDBRANCH   1  25
TORSDOF 10
