REMARK  Name = ZINC12298511
REMARK  8 active torsions:
REMARK  status: ('A' for Active; 'I' for Inactive)
REMARK    1  A    between atoms: C_2  and  C_20
REMARK    2  A    between atoms: N_3  and  C_13
REMARK    3  A    between atoms: C_4  and  S_6
REMARK    4  A    between atoms: S_6  and  C_9
REMARK    5  A    between atoms: C_9  and  C_10
REMARK    6  A    between atoms: C_13  and  C_14
REMARK    7  A    between atoms: C_20  and  N_63
REMARK    8  A    between atoms: C_24  and  C_27
REMARK                            x       y       z     vdW  Elec       q    Type
REMARK                         _______ _______ _______ _____ _____    ______ ____
ROOT
ATOM      1  C   UNL     1       1.272  -0.566  -0.228  0.00  0.00    +0.133 A 
ATOM      2  C   UNL     1       2.068   0.518  -0.279  0.00  0.00    +0.023 A 
ATOM      3  N   UNL     1       1.249   1.614  -0.238  0.00  0.00    -0.315 N 
ATOM      4  C   UNL     1      -0.021   1.160  -0.163  0.00  0.00    +0.251 A 
ATOM      5  N   UNL     1       0.001  -0.145  -0.158  0.00  0.00    -0.220 NA
ENDROOT
BRANCH   4   6
ATOM      6  S   UNL     1      -1.468   2.163  -0.092  0.00  0.00    +0.030 S 
ATOM      7  O   UNL     1      -1.005   3.485  -0.332  0.00  0.00    -0.166 OA
ATOM      8  O   UNL     1      -2.383   1.544  -0.985  0.00  0.00    -0.166 OA
BRANCH   6   9
ATOM      9  C   UNL     1      -2.059   2.008   1.616  0.00  0.00    +0.179 C 
BRANCH   9  10
ATOM     10  C   UNL     1      -3.396   2.738   1.761  0.00  0.00    +0.011 C 
ATOM     11  C   UNL     1      -3.446   3.939   2.706  0.00  0.00    +0.005 C 
ATOM     12  C   UNL     1      -4.121   2.625   3.103  0.00  0.00    +0.005 C 
ENDBRANCH   9  10
ENDBRANCH   6   9
ENDBRANCH   4   6
BRANCH   3  13
ATOM     13  C   UNL     1       1.670   3.017  -0.269  0.00  0.00    +0.128 C 
BRANCH  13  14
ATOM     14  C   UNL     1       2.059   3.464   1.141  0.00  0.00    +0.009 C 
ATOM     15  C   UNL     1       0.834   3.394   2.055  0.00  0.00    +0.005 C 
ATOM     16  C   UNL     1       1.224   3.841   3.465  0.00  0.00    +0.000 C 
ATOM     17  C   UNL     1       1.744   5.279   3.419  0.00  0.00    +0.000 C 
ATOM     18  C   UNL     1       2.969   5.349   2.505  0.00  0.00    +0.000 C 
ATOM     19  C   UNL     1       2.580   4.902   1.095  0.00  0.00    +0.005 C 
ENDBRANCH  13  14
ENDBRANCH   3  13
BRANCH   2  20
ATOM     20  C   UNL     1       3.573   0.525  -0.366  0.00  0.00    -0.023 C 
BRANCH  20  26
ATOM     21  C   UNL     1       3.319   1.700  -2.467  0.00  0.00    -0.078 C 
ATOM     22  C   UNL     1       3.654   1.647  -3.959  0.00  0.00    -0.018 C 
ATOM     23  C   UNL     1       5.172   1.740  -4.141  0.00  0.00    +0.009 C 
ATOM     24  C   UNL     1       5.841   0.598  -3.371  0.00  0.00    +0.058 C 
ATOM     25  C   UNL     1       5.443   0.682  -1.896  0.00  0.00    -0.066 C 
ATOM     26  N   UNL     1       3.973   0.562  -1.788  0.00  0.00    +0.384 N 
ATOM     27  H   UNL     1       3.676  -0.311  -2.240  0.00  0.00    -0.081 HD
BRANCH  24  28
ATOM     28  C   UNL     1       7.338   0.716  -3.496  0.00  0.00    +0.212 C 
ATOM     29  O   UNL     1       8.020   0.854  -2.502  0.00  0.00    -0.276 OA
ATOM     30  N   UNL     1       7.919   0.669  -4.711  0.00  0.00    -0.329 N 
ATOM     31  H   UNL     1       7.373   0.558  -5.505  0.00  0.00    +0.145 HD
ATOM     32  H   UNL     1       8.882   0.745  -4.791  0.00  0.00    +0.145 HD
ENDBRANCH  24  28
ENDBRANCH  20  26
ENDBRANCH   2  20
TORSDOF 8
