REMARK  Name = ZINC09088073
REMARK  5 active torsions:
REMARK  status: ('A' for Active; 'I' for Inactive)
REMARK    1  A    between atoms: C_1  and  C_2
REMARK    2  A    between atoms: C_9  and  C_27
REMARK    3  A    between atoms: C_11  and  C_18
REMARK    4  A    between atoms: C_21  and  N_24
REMARK    5  A    between atoms: C_27  and  C_29
REMARK                            x       y       z     vdW  Elec       q    Type
REMARK                         _______ _______ _______ _____ _____    ______ ____
ROOT
ATOM      1  C   UNL     1      -4.940  -2.239   1.099  0.00  0.00    +0.044 C 
ATOM      2  C   UNL     1      -3.482  -2.338   1.464  0.00  0.00    -0.050 A 
ATOM      3  C   UNL     1      -2.988  -3.495   2.040  0.00  0.00    +0.005 A 
ATOM      4  C   UNL     1      -1.654  -3.592   2.377  0.00  0.00    +0.024 A 
ATOM      5  C   UNL     1      -0.793  -2.523   2.138  0.00  0.00    +0.036 A 
ATOM      6  C   UNL     1      -1.300  -1.365   1.559  0.00  0.00    -0.027 A 
ATOM      7  C   UNL     1      -2.632  -1.272   1.225  0.00  0.00    +0.008 A 
ATOM      8  C   UNL     1      -0.137  -0.416   1.436  0.00  0.00    +0.052 C 
ATOM      9  C   UNL     1      -0.392   0.864   2.240  0.00  0.00    +0.070 C 
ATOM     10  C   UNL     1      -0.719   1.929   1.171  0.00  0.00    +0.016 C 
ATOM     11  C   UNL     1       0.006   1.419  -0.093  0.00  0.00    -0.047 C 
ATOM     12  C   UNL     1       1.318  -0.674  -0.496  0.00  0.00    -0.005 C 
ATOM     13  S   UNL     1       2.322   0.763  -1.065  0.00  0.00    -0.181 S 
ATOM     14  C   UNL     1       1.423   2.068  -0.114  0.00  0.00    +0.052 C 
ATOM     15  C   UNL     1       1.036  -1.176   2.005  0.00  0.00    +0.212 C 
ATOM     16  O   UNL     1       2.178  -0.777   2.101  0.00  0.00    -0.277 OA
ATOM     17  N   UNL     1       0.574  -2.381   2.385  0.00  0.00    -0.286 N 
ATOM     18  H   UNL     1       1.126  -3.071   2.785  0.00  0.00    +0.155 HD
ATOM     19  N   UNL     1       0.043  -0.068   0.031  0.00  0.00    +0.401 N 
ATOM     20  H   UNL     1      -0.739  -0.456  -0.510  0.00  0.00    -0.078 HD
ENDROOT
BRANCH  10  21
ATOM     21  C   UNL     1      -0.180   3.275   1.583  0.00  0.00    -0.045 A 
ATOM     22  C   UNL     1      -0.084   3.601   2.922  0.00  0.00    +0.006 A 
ATOM     23  C   UNL     1       0.414   4.833   3.300  0.00  0.00    +0.033 A 
ATOM     24  C   UNL     1       0.808   5.744   2.338  0.00  0.00    +0.126 A 
ATOM     25  C   UNL     1       0.707   5.421   0.998  0.00  0.00    +0.033 A 
ATOM     26  C   UNL     1       0.213   4.186   0.620  0.00  0.00    +0.006 A 
BRANCH  24  27
ATOM     27  N   UNL     1       1.337   7.066   2.742  0.00  0.00    +0.056 N 
ATOM     28  O   UNL     1       1.684   7.869   1.894  0.00  0.00    -0.126 OA
ATOM     29  O   UNL     1       1.426   7.351   3.923  0.00  0.00    -0.126 OA
ENDBRANCH  24  27
ENDBRANCH  10  21
BRANCH   9  30
ATOM     30  C   UNL     1       0.840   1.253   3.016  0.00  0.00    +0.184 C 
ATOM     31  O   UNL     1       1.881   1.466   2.433  0.00  0.00    -0.290 OA
BRANCH  30  32
ATOM     32  C   UNL     1       0.779   1.375   4.485  0.00  0.00    +0.106 A 
ATOM     33  C   UNL     1       1.923   1.736   5.198  0.00  0.00    +0.031 A 
ATOM     34  C   UNL     1       1.849   1.847   6.577  0.00  0.00    +0.004 A 
ATOM     35  C   UNL     1       0.635   1.594   7.197  0.00  0.00    +0.020 A 
ATOM     36  C   UNL     1      -0.461   1.240   6.427  0.00  0.00    +0.111 A 
ATOM     37  N   UNL     1      -0.366   1.146   5.119  0.00  0.00    -0.252 NA
ENDBRANCH  30  32
ENDBRANCH   9  30
TORSDOF 4
