REMARK  Name = ZINC43137529
REMARK  7 active torsions:
REMARK  status: ('A' for Active; 'I' for Inactive)
REMARK    1  A    between atoms: C_1  and  N_2
REMARK    2  A    between atoms: N_2  and  C_3
REMARK    3  A    between atoms: N_2  and  C_4
REMARK    4  A    between atoms: C_4  and  C_6
REMARK    5  A    between atoms: C_4  and  C_25
REMARK    6  A    between atoms: C_6  and  N_7
REMARK    7  A    between atoms: C_14  and  C_16
REMARK                            x       y       z     vdW  Elec       q    Type
REMARK                         _______ _______ _______ _____ _____    ______ ____
ROOT
ATOM      1  N   UNL     1       0.008  -2.509  -1.135  0.00  0.00    -0.300 N 
ATOM      2  C   UNL     1       0.087  -3.853  -1.206  0.00  0.00    +0.303 C 
ATOM      3  O   UNL     1       1.166  -4.391  -1.362  0.00  0.00    -0.253 OA
ATOM      4  N   UNL     1      -1.030  -4.600  -1.103  0.00  0.00    -0.277 N 
ATOM      5  C   UNL     1      -2.397  -4.080  -0.919  0.00  0.00    +0.110 C 
ATOM      6  C   UNL     1      -3.178  -5.243  -0.257  0.00  0.00    +0.021 C 
ATOM      7  C   UNL     1      -2.563  -6.476  -0.971  0.00  0.00    +0.031 C 
ATOM      8  C   UNL     1      -1.087  -6.068  -1.162  0.00  0.00    +0.133 C 
ATOM      9  H   UNL     1      -0.853  -2.080  -1.011  0.00  0.00    +0.150 HD
ENDROOT
BRANCH   8  10
ATOM     10  C   UNL     1      -0.590  -6.546  -2.502  0.00  0.00    +0.100 A 
ATOM     11  N   UNL     1      -0.861  -6.055  -3.675  0.00  0.00    -0.242 NA
ATOM     12  C   UNL     1      -0.348  -6.576  -4.809  0.00  0.00    +0.079 A 
ATOM     13  C   UNL     1      -0.530  -6.180  -6.151  0.00  0.00    +0.029 A 
ATOM     14  C   UNL     1       0.087  -6.853  -7.160  0.00  0.00    +0.002 A 
ATOM     15  C   UNL     1       0.910  -7.943  -6.912  0.00  0.00    +0.001 A 
ATOM     16  C   UNL     1       1.112  -8.361  -5.610  0.00  0.00    +0.017 A 
ATOM     17  C   UNL     1       0.494  -7.689  -4.584  0.00  0.00    +0.039 A 
ATOM     18  S   UNL     1       0.448  -7.834  -2.817  0.00  0.00    -0.070 S 
ENDBRANCH   8  10
BRANCH   1  19
ATOM     19  C   UNL     1       1.222  -1.697  -1.247  0.00  0.00    +0.098 C 
BRANCH  19  20
ATOM     20  C   UNL     1       0.844  -0.214  -1.265  0.00  0.00    +0.016 C 
BRANCH  20  21
ATOM     21  C   UNL     1       0.242   0.167   0.064  0.00  0.00    +0.093 A 
ATOM     22  C   UNL     1       0.881   0.801   1.063  0.00  0.00    +0.043 A 
ATOM     23  C   UNL     1      -0.054   0.956   2.113  0.00  0.00    +0.041 A 
ATOM     24  C   UNL     1      -1.207   0.406   1.692  0.00  0.00    +0.195 A 
ATOM     25  O   UNL     1      -1.023  -0.065   0.448  0.00  0.00    -0.469 OA
ENDBRANCH  20  21
BRANCH  20  27
ATOM     26  C   UNL     1      -0.504   1.451  -2.344  0.00  0.00    -0.096 C 
ATOM     27  N   UNL     1      -0.134   0.029  -2.333  0.00  0.00    +0.384 N 
ATOM     28  C   UNL     1       0.455  -0.333  -3.629  0.00  0.00    -0.096 C 
ATOM     29  H   UNL     1      -0.957  -0.531  -2.170  0.00  0.00    -0.082 HD
ENDBRANCH  20  27
ENDBRANCH  19  20
ENDBRANCH   1  19
TORSDOF 5
