REMARK  Name = ZINC02361425
REMARK  8 active torsions:
REMARK  status: ('A' for Active; 'I' for Inactive)
REMARK    1  A    between atoms: C_4  and  C_7
REMARK    2  A    between atoms: C_7  and  C_8
REMARK    3  A    between atoms: C_8  and  N_9
REMARK    4  A    between atoms: C_10  and  C_12
REMARK    5  A    between atoms: C_12  and  C_33
REMARK    6  A    between atoms: C_13  and  C_14
REMARK    7  A    between atoms: C_15  and  O_25
REMARK    8  A    between atoms: O_25  and  C_26
REMARK                            x       y       z     vdW  Elec       q    Type
REMARK                         _______ _______ _______ _____ _____    ______ ____
ROOT
ATOM      1  C   UNL     1      -0.091  -2.931   0.239  0.00  0.00    +0.103 A 
ATOM      2  C   UNL     1      -1.419  -2.445   0.302  0.00  0.00    +0.235 A 
ATOM      3  N   UNL     1      -1.633  -1.160   0.526  0.00  0.00    -0.194 NA
ATOM      4  C   UNL     1      -0.626  -0.300   0.697  0.00  0.00    +0.144 A 
ATOM      5  C   UNL     1      -0.917   1.055   0.933  0.00  0.00    +0.047 A 
ATOM      6  C   UNL     1       0.103   1.942   1.109  0.00  0.00    +0.005 A 
ATOM      7  C   UNL     1       1.428   1.491   1.051  0.00  0.00    +0.018 A 
ATOM      8  C   UNL     1       1.690   0.183   0.823  0.00  0.00    +0.096 A 
ATOM      9  N   UNL     1       0.676  -0.710   0.647  0.00  0.00    -0.268 N 
ATOM     10  C   UNL     1       0.973  -2.009   0.421  0.00  0.00    +0.269 A 
ATOM     11  O   UNL     1       2.131  -2.381   0.375  0.00  0.00    -0.266 OA
ENDROOT
BRANCH   1  13
ATOM     12  C   UNL     1      -0.345  -4.910  -1.132  0.00  0.00    +0.114 C 
ATOM     13  C   UNL     1       0.168  -4.293   0.001  0.00  0.00    +0.042 C 
BRANCH  12  15
ATOM     14  N   UNL     1      -0.691  -6.956  -2.412  0.00  0.00    -0.310 N 
ATOM     15  C   UNL     1      -0.193  -6.357  -1.312  0.00  0.00    +0.254 C 
ATOM     16  O   UNL     1       0.383  -7.018  -0.467  0.00  0.00    -0.269 OA
ATOM     17  H   UNL     1      -1.150  -6.429  -3.085  0.00  0.00    +0.149 HD
BRANCH  14  18
ATOM     18  C   UNL     1      -0.540  -8.402  -2.591  0.00  0.00    +0.109 C 
BRANCH  18  19
ATOM     19  C   UNL     1      -1.189  -8.823  -3.911  0.00  0.00    +0.054 C 
BRANCH  19  23
ATOM     20  C   UNL     1      -0.747 -13.039  -4.434  0.00  0.00    +0.000 A 
ATOM     21  C   UNL     1      -1.857 -12.536  -3.782  0.00  0.00    +0.000 A 
ATOM     22  C   UNL     1      -2.000 -11.172  -3.612  0.00  0.00    +0.004 A 
ATOM     23  C   UNL     1      -1.033 -10.310  -4.096  0.00  0.00    -0.046 A 
ATOM     24  C   UNL     1       0.074 -10.813  -4.753  0.00  0.00    +0.004 A 
ATOM     25  C   UNL     1       0.220 -12.178  -4.918  0.00  0.00    +0.000 A 
ENDBRANCH  19  23
ENDBRANCH  18  19
ENDBRANCH  14  18
ENDBRANCH  12  15
BRANCH  12  26
ATOM     26  C   UNL     1      -1.022  -4.132  -2.126  0.00  0.00    +0.104 C 
ATOM     27  N   UNL     1      -1.560  -3.515  -2.914  0.00  0.00    -0.191 NA
ENDBRANCH  12  26
ENDBRANCH   1  13
BRANCH   2  28
ATOM     28  O   UNL     1      -2.462  -3.288   0.133  0.00  0.00    -0.437 OA
BRANCH  28  29
ATOM     29  C   UNL     1      -3.716  -2.796   0.313  0.00  0.00    +0.130 A 
ATOM     30  C   UNL     1      -4.413  -3.080   1.478  0.00  0.00    +0.047 A 
ATOM     31  C   UNL     1      -5.686  -2.576   1.661  0.00  0.00    +0.019 A 
ATOM     32  C   UNL     1      -6.270  -1.796   0.679  0.00  0.00    +0.018 A 
ATOM     33  C   UNL     1      -5.579  -1.517  -0.487  0.00  0.00    +0.019 A 
ATOM     34  C   UNL     1      -4.304  -2.015  -0.672  0.00  0.00    +0.047 A 
ATOM     35 BR   UNL     1      -8.015  -1.112   0.929  0.00  0.00    -0.050 Br
ENDBRANCH  28  29
ENDBRANCH   2  28
TORSDOF 8
