REMARK  Name = ZINC43224018
REMARK  16 active torsions:
REMARK  status: ('A' for Active; 'I' for Inactive)
REMARK    1  A    between atoms: C_1  and  C_2
REMARK    2  A    between atoms: C_3  and  C_26
REMARK    3  A    between atoms: C_5  and  C_11
REMARK    4  A    between atoms: N_6  and  C_7
REMARK    5  A    between atoms: C_7  and  C_8
REMARK    6  A    between atoms: C_8  and  C_9
REMARK    7  A    between atoms: C_8  and  C_10
REMARK    8  A    between atoms: C_13  and  C_22
REMARK    9  A    between atoms: C_14  and  O_21
REMARK   10  A    between atoms: C_15  and  C_17
REMARK   11  A    between atoms: C_17  and  C_18
REMARK   12  A    between atoms: C_17  and  C_19
REMARK   13  A    between atoms: C_17  and  C_20
REMARK   14  A    between atoms: C_22  and  C_23
REMARK   15  A    between atoms: C_22  and  C_24
REMARK   16  A    between atoms: C_22  and  C_25
REMARK                            x       y       z     vdW  Elec       q    Type
REMARK                         _______ _______ _______ _____ _____    ______ ____
ROOT
ATOM      1  C   UNL     1      -0.003  -2.371   1.508  0.00  0.00    -0.001 A 
ATOM      2  C   UNL     1      -0.228  -2.578   2.869  0.00  0.00    +0.017 A 
ATOM      3  C   UNL     1      -0.216  -3.858   3.382  0.00  0.00    +0.000 A 
ATOM      4  C   UNL     1       0.020  -4.940   2.545  0.00  0.00    +0.124 A 
ATOM      5  C   UNL     1       0.244  -4.739   1.190  0.00  0.00    +0.000 A 
ATOM      6  C   UNL     1       0.227  -3.462   0.668  0.00  0.00    +0.017 A 
ENDROOT
BRANCH   1  11
ATOM      7  C   UNL     1      -0.271   1.437  -1.793  0.00  0.00    +0.064 C 
ATOM      8  C   UNL     1      -0.134   0.672  -0.501  0.00  0.00    +0.028 A 
ATOM      9  C   UNL     1       0.057   1.223   0.747  0.00  0.00    +0.057 A 
ATOM     10  C   UNL     1       0.131   0.146   1.668  0.00  0.00    +0.041 A 
ATOM     11  C   UNL     1      -0.015  -0.999   0.954  0.00  0.00    +0.050 A 
ATOM     12  N   UNL     1      -0.181  -0.669  -0.368  0.00  0.00    -0.343 N 
BRANCH   9  13
ATOM     13  C   UNL     1       0.163   2.658   1.065  0.00  0.00    +0.243 C 
ATOM     14  O   UNL     1       0.083   3.485   0.177  0.00  0.00    -0.270 OA
ATOM     15  N   UNL     1       0.350   3.053   2.340  0.00  0.00    -0.325 N 
ATOM     16  H   UNL     1       0.414   2.393   3.048  0.00  0.00    +0.145 HD
ATOM     17  H   UNL     1       0.420   3.997   2.550  0.00  0.00    +0.145 HD
ENDBRANCH   9  13
BRANCH  12  18
ATOM     18  C   UNL     1      -0.375  -1.624  -1.463  0.00  0.00    +0.125 C 
BRANCH  18  19
ATOM     19  C   UNL     1       0.985  -2.015  -2.045  0.00  0.00    +0.003 C 
ATOM     20  C   UNL     1       0.784  -3.039  -3.164  0.00  0.00    +0.009 C 
ATOM     21  C   UNL     1       1.675  -0.772  -2.609  0.00  0.00    +0.009 C 
ENDBRANCH  18  19
ENDBRANCH  12  18
ENDBRANCH   1  11
BRANCH   5  22
ATOM     22  C   UNL     1       0.499  -5.917   0.285  0.00  0.00    -0.009 C 
ATOM     23  C   UNL     1       0.653  -5.430  -1.157  0.00  0.00    +0.015 C 
ATOM     24  C   UNL     1       1.781  -6.628   0.723  0.00  0.00    +0.015 C 
ATOM     25  C   UNL     1      -0.678  -6.890   0.372  0.00  0.00    +0.015 C 
ENDBRANCH   5  22
BRANCH   3  26
ATOM     26  C   UNL     1      -0.457  -4.082   4.852  0.00  0.00    -0.009 C 
ATOM     27  C   UNL     1      -0.620  -2.732   5.554  0.00  0.00    +0.015 C 
ATOM     28  C   UNL     1      -1.730  -4.911   5.039  0.00  0.00    +0.015 C 
ATOM     29  C   UNL     1       0.732  -4.831   5.456  0.00  0.00    +0.015 C 
ENDBRANCH   3  26
BRANCH   4  30
ATOM     30  O   UNL     1       0.031  -6.200   3.053  0.00  0.00    -0.506 OA
ATOM     31  H   UNL     1      -0.833  -6.635   3.047  0.00  0.00    +0.292 HD
ENDBRANCH   4  30
TORSDOF 7
