REMARK  Name = ZINC12622071
REMARK  9 active torsions:
REMARK  status: ('A' for Active; 'I' for Inactive)
REMARK    1  A    between atoms: C_1  and  O_2
REMARK    2  A    between atoms: O_2  and  C_3
REMARK    3  A    between atoms: C_8  and  N_9
REMARK    4  A    between atoms: N_9  and  S_10
REMARK    5  A    between atoms: S_10  and  C_13
REMARK    6  A    between atoms: C_15  and  N_30
REMARK    7  A    between atoms: C_18  and  N_19
REMARK    8  A    between atoms: N_19  and  N_20
REMARK    9  A    between atoms: C_21  and  C_22
REMARK                            x       y       z     vdW  Elec       q    Type
REMARK                         _______ _______ _______ _____ _____    ______ ____
ROOT
ATOM      1  C   UNL     1       1.692   2.445   1.527  0.00  0.00    +0.133 A 
ATOM      2  C   UNL     1       2.778   2.058   2.287  0.00  0.00    +0.063 A 
ATOM      3  C   UNL     1       2.995   2.629   3.527  0.00  0.00    +0.128 A 
ATOM      4  C   UNL     1       2.121   3.583   4.016  0.00  0.00    +0.035 A 
ATOM      5  C   UNL     1       1.029   3.970   3.264  0.00  0.00    +0.029 A 
ATOM      6  C   UNL     1       0.811   3.402   2.014  0.00  0.00    +0.075 A 
ENDROOT
BRANCH   1   7
ATOM      7  S   UNL     1       1.420   1.720  -0.056  0.00  0.00    +0.074 S 
ATOM      8  O   UNL     1       0.060   1.309  -0.087  0.00  0.00    -0.150 OA
ATOM      9  O   UNL     1       2.494   0.817  -0.280  0.00  0.00    -0.150 OA
BRANCH   7  10
ATOM     10  N   UNL     1       1.575   2.927  -1.180  0.00  0.00    -0.213 N 
ATOM     11  H   UNL     1       0.829   3.150  -1.758  0.00  0.00    +0.174 HD
BRANCH  10  17
ATOM     12  C   UNL     1       2.783   4.980  -1.604  0.00  0.00    +0.142 A 
ATOM     13  C   UNL     1       3.983   5.662  -1.721  0.00  0.00    +0.047 A 
ATOM     14  C   UNL     1       5.179   4.994  -1.534  0.00  0.00    +0.004 A 
ATOM     15  C   UNL     1       5.182   3.645  -1.231  0.00  0.00    +0.002 A 
ATOM     16  C   UNL     1       3.988   2.958  -1.108  0.00  0.00    +0.028 A 
ATOM     17  C   UNL     1       2.785   3.621  -1.299  0.00  0.00    +0.090 A 
BRANCH  12  19
ATOM     18  C   UNL     1       1.680   7.029  -2.097  0.00  0.00    +0.277 C 
ATOM     19  O   UNL     1       1.605   5.636  -1.787  0.00  0.00    -0.493 OA
ENDBRANCH  12  19
ENDBRANCH  10  17
ENDBRANCH   7  10
ENDBRANCH   1   7
BRANCH   3  20
ATOM     20  N   UNL     1       4.164   2.215   4.336  0.00  0.00    +0.056 N 
ATOM     21  O   UNL     1       4.354   2.714   5.431  0.00  0.00    -0.126 OA
ATOM     22  O   UNL     1       4.935   1.376   3.907  0.00  0.00    -0.126 OA
ENDBRANCH   3  20
BRANCH   6  23
ATOM     23  N   UNL     1      -0.291   3.791   1.252  0.00  0.00    -0.236 N 
ATOM     24  H   UNL     1      -0.401   3.452   0.350  0.00  0.00    +0.174 HD
BRANCH  23  25
ATOM     25  N   UNL     1      -1.239   4.671   1.790  0.00  0.00    -0.190 NA
ATOM     26  C   UNL     1      -2.314   4.956   1.120  0.00  0.00    +0.139 C 
BRANCH  26  27
ATOM     27  C   UNL     1      -3.257   5.966   1.634  0.00  0.00    +0.013 A 
ATOM     28  C   UNL     1      -4.415   6.274   0.915  0.00  0.00    +0.012 A 
ATOM     29  C   UNL     1      -5.293   7.220   1.402  0.00  0.00    +0.021 A 
ATOM     30  C   UNL     1      -5.030   7.864   2.599  0.00  0.00    +0.042 A 
ATOM     31  C   UNL     1      -3.885   7.564   3.317  0.00  0.00    +0.040 A 
ATOM     32  C   UNL     1      -3.000   6.615   2.845  0.00  0.00    +0.051 A 
ATOM     33 CL   UNL     1      -1.567   6.235   3.749  0.00  0.00    -0.083 Cl
ATOM     34 CL   UNL     1      -6.141   9.053   3.203  0.00  0.00    -0.083 Cl
ENDBRANCH  26  27
ENDBRANCH  23  25
ENDBRANCH   6  23
TORSDOF 8
