REMARK  Name = ZINC17590431
REMARK  9 active torsions:
REMARK  status: ('A' for Active; 'I' for Inactive)
REMARK    1  A    between atoms: C_1  and  N_2
REMARK    2  A    between atoms: C_6  and  C_7
REMARK    3  A    between atoms: C_7  and  C_9
REMARK    4  A    between atoms: C_7  and  N_16
REMARK    5  A    between atoms: N_16  and  C_17
REMARK    6  A    between atoms: C_20  and  S_26
REMARK    7  A    between atoms: C_22  and  N_23
REMARK    8  A    between atoms: S_26  and  N_29
REMARK    9  A    between atoms: N_32  and  C_35
REMARK                            x       y       z     vdW  Elec       q    Type
REMARK                         _______ _______ _______ _____ _____    ______ ____
ROOT
ATOM      1  C   UNL     1      -2.123  -1.032   3.666  0.00  0.00    +0.059 A 
ATOM      2  C   UNL     1      -2.759   0.053   3.076  0.00  0.00    +0.027 A 
ATOM      3  C   UNL     1      -4.134   0.061   2.951  0.00  0.00    +0.030 A 
ATOM      4  C   UNL     1      -4.879  -1.009   3.414  0.00  0.00    +0.108 A 
ATOM      5  C   UNL     1      -4.249  -2.090   4.003  0.00  0.00    +0.063 A 
ATOM      6  C   UNL     1      -2.873  -2.108   4.125  0.00  0.00    +0.149 A 
ENDROOT
BRANCH   6   7
ATOM      7  N   UNL     1      -2.199  -3.268   4.750  0.00  0.00    +0.058 N 
ATOM      8  O   UNL     1      -1.139  -3.656   4.317  0.00  0.00    -0.126 OA
ATOM      9  O   UNL     1      -2.709  -3.828   5.692  0.00  0.00    -0.126 OA
ENDBRANCH   6   7
BRANCH   4  10
ATOM     10  S   UNL     1      -6.633  -0.995   3.253  0.00  0.00    +0.061 S 
ATOM     11  O   UNL     1      -7.140  -1.866   4.255  0.00  0.00    -0.153 OA
ATOM     12  O   UNL     1      -7.021   0.369   3.163  0.00  0.00    -0.153 OA
BRANCH  10  13
ATOM     13  N   UNL     1      -6.997  -1.688   1.794  0.00  0.00    -0.174 NA
ATOM     14  C   UNL     1      -7.097  -0.872   0.575  0.00  0.00    +0.125 C 
ATOM     15  C   UNL     1      -6.223  -1.510  -0.511  0.00  0.00    +0.101 C 
ATOM     16  N   UNL     1      -6.602  -2.920  -0.674  0.00  0.00    -0.303 NA
ATOM     17  C   UNL     1      -6.350  -3.685   0.554  0.00  0.00    +0.101 C 
ATOM     18  C   UNL     1      -7.223  -3.137   1.682  0.00  0.00    +0.125 C 
ATOM     19  C   UNL     1      -5.909  -3.522  -1.821  0.00  0.00    +0.105 C 
ENDBRANCH  10  13
ENDBRANCH   4  10
BRANCH   1  20
ATOM     20  N   UNL     1      -0.732  -1.044   3.793  0.00  0.00    -0.329 N 
ATOM     21  H   UNL     1      -0.295  -1.762   4.278  0.00  0.00    +0.147 HD
BRANCH  20  22
ATOM     22  C   UNL     1       0.067   0.028   3.194  0.00  0.00    +0.165 C 
BRANCH  22  28
ATOM     23  C   UNL     1       0.255   2.050   0.854  0.00  0.00    +0.150 C 
ATOM     24  N   UNL     1       0.419   0.598   0.741  0.00  0.00    -0.337 N 
ATOM     25  C   UNL     1       0.685  -0.102  -0.404  0.00  0.00    +0.104 A 
ATOM     26  C   UNL     1       0.756  -1.402  -0.059  0.00  0.00    +0.102 A 
ATOM     27  N   UNL     1       0.538  -1.492   1.262  0.00  0.00    -0.348 N 
ATOM     28  C   UNL     1       0.341  -0.298   1.748  0.00  0.00    +0.112 A 
ATOM     29  H   UNL     1       0.533  -2.316   1.775  0.00  0.00    +0.167 HD
ENDBRANCH  22  28
BRANCH  22  30
ATOM     30  C   UNL     1       1.373   0.155   3.936  0.00  0.00    -0.020 A 
ATOM     31  C   UNL     1       2.046  -0.979   4.349  0.00  0.00    +0.009 A 
ATOM     32  C   UNL     1       3.244  -0.864   5.029  0.00  0.00    +0.038 A 
ATOM     33  C   UNL     1       3.769   0.389   5.297  0.00  0.00    +0.123 A 
ATOM     34  C   UNL     1       3.093   1.525   4.883  0.00  0.00    +0.038 A 
ATOM     35  C   UNL     1       1.899   1.407   4.198  0.00  0.00    +0.009 A 
ATOM     36  F   UNL     1       4.939   0.504   5.962  0.00  0.00    -0.205 F 
ENDBRANCH  22  30
ENDBRANCH  20  22
ENDBRANCH   1  20
TORSDOF 7
