REMARK  Name = ZINC61851170
REMARK  2 active torsions:
REMARK  status: ('A' for Active; 'I' for Inactive)
REMARK    1  A    between atoms: C_3  and  C_20
REMARK    2  A    between atoms: C_6  and  N_7
REMARK                            x       y       z     vdW  Elec       q    Type
REMARK                         _______ _______ _______ _____ _____    ______ ____
ROOT
ATOM      1  N   UNL     1      -1.195  -0.715   0.010  0.00  0.00    -0.322 N 
ATOM      2  C   UNL     1      -2.494  -0.028   0.129  0.00  0.00    +0.133 C 
ATOM      3  C   UNL     1      -3.309  -0.701   1.237  0.00  0.00    +0.179 C 
ATOM      4  O   UNL     1      -3.345  -2.116   1.023  0.00  0.00    -0.373 OA
ATOM      5  C   UNL     1      -2.059  -2.730   1.054  0.00  0.00    +0.139 C 
ATOM      6  C   UNL     1      -1.216  -2.178  -0.107  0.00  0.00    +0.102 C 
ATOM      7  C   UNL     1       0.196  -2.752  -0.013  0.00  0.00    +0.025 C 
ATOM      8  C   UNL     1       0.120  -4.277  -0.141  0.00  0.00    +0.002 C 
ATOM      9  C   UNL     1      -0.753  -4.852   0.975  0.00  0.00    +0.003 C 
ATOM     10  C   UNL     1      -2.161  -4.245   0.899  0.00  0.00    +0.033 C 
ENDROOT
BRANCH   1  16
ATOM     11  C   UNL     1       0.565   0.396  -1.207  0.00  0.00    +0.024 A 
ATOM     12  C   UNL     1       1.748   1.098  -1.219  0.00  0.00    +0.022 A 
ATOM     13  C   UNL     1       2.386   1.411  -0.015  0.00  0.00    +0.070 A 
ATOM     14  C   UNL     1       1.818   1.008   1.199  0.00  0.00    +0.060 A 
ATOM     15  C   UNL     1       0.633   0.305   1.203  0.00  0.00    +0.044 A 
ATOM     16  C   UNL     1       0.002  -0.004   0.002  0.00  0.00    +0.032 A 
ATOM     17 CL   UNL     1       2.606   1.393   2.697  0.00  0.00    -0.082 Cl
BRANCH  13  18
ATOM     18  C   UNL     1       3.618   2.142  -0.024  0.00  0.00    +0.101 C 
ATOM     19  N   UNL     1       4.595   2.721  -0.031  0.00  0.00    -0.191 NA
ENDBRANCH  13  18
ENDBRANCH   1  16
TORSDOF 2
