REMARK  Name = ZINC38926118
REMARK  10 active torsions:
REMARK  status: ('A' for Active; 'I' for Inactive)
REMARK    1  A    between atoms: C_1  and  C_2
REMARK    2  A    between atoms: C_5  and  N_8
REMARK    3  A    between atoms: N_8  and  C_9
REMARK    4  A    between atoms: C_9  and  C_10
REMARK    5  A    between atoms: C_15  and  C_22
REMARK    6  A    between atoms: C_23  and  C_25
REMARK    7  A    between atoms: C_28  and  C_31
REMARK    8  A    between atoms: C_31  and  C_32
REMARK    9  A    between atoms: C_31  and  C_33
REMARK   10  A    between atoms: C_31  and  C_34
REMARK                            x       y       z     vdW  Elec       q    Type
REMARK                         _______ _______ _______ _____ _____    ______ ____
ROOT
ATOM      1  N   UNL     1       0.694  -3.911  -0.034  0.00  0.00    -0.266 N 
ATOM      2  C   UNL     1       0.735  -4.583  -1.201  0.00  0.00    +0.251 C 
ATOM      3  O   UNL     1       0.145  -4.150  -2.172  0.00  0.00    -0.270 OA
ENDROOT
BRANCH   1   8
ATOM      4  C   UNL     1      -2.632   0.654   0.498  0.00  0.00    +0.044 C 
ATOM      5  C   UNL     1      -1.748  -0.559   0.357  0.00  0.00    -0.050 A 
ATOM      6  C   UNL     1      -1.883  -1.387  -0.742  0.00  0.00    +0.005 A 
ATOM      7  C   UNL     1      -1.075  -2.499  -0.875  0.00  0.00    +0.024 A 
ATOM      8  C   UNL     1      -0.126  -2.785   0.097  0.00  0.00    +0.037 A 
ATOM      9  C   UNL     1       0.008  -1.951   1.200  0.00  0.00    +0.024 A 
ATOM     10  C   UNL     1      -0.800  -0.838   1.324  0.00  0.00    +0.005 A 
ENDBRANCH   1   8
BRANCH   2  11
ATOM     11  C   UNL     1       1.496  -5.846  -1.301  0.00  0.00    +0.037 A 
ATOM     12  C   UNL     1       1.595  -6.694  -0.196  0.00  0.00    +0.013 A 
ATOM     13  C   UNL     1       2.306  -7.871  -0.296  0.00  0.00    +0.005 A 
ATOM     14  C   UNL     1       2.921  -8.213  -1.488  0.00  0.00    -0.042 A 
ATOM     15  C   UNL     1       2.827  -7.377  -2.586  0.00  0.00    +0.005 A 
ATOM     16  C   UNL     1       2.114  -6.199  -2.501  0.00  0.00    +0.013 A 
BRANCH  14  17
ATOM     17  C   UNL     1       3.698  -9.500  -1.589  0.00  0.00    -0.013 C 
ATOM     18  C   UNL     1       2.768 -10.680  -1.299  0.00  0.00    +0.015 C 
ATOM     19  C   UNL     1       4.274  -9.639  -3.000  0.00  0.00    +0.015 C 
ATOM     20  C   UNL     1       4.840  -9.489  -0.571  0.00  0.00    +0.015 C 
ENDBRANCH  14  17
ENDBRANCH   2  11
BRANCH   1  21
ATOM     21  C   UNL     1       1.509  -4.359   1.098  0.00  0.00    +0.131 C 
BRANCH  21  22
ATOM     22  C   UNL     1       0.599  -4.689   2.283  0.00  0.00    +0.116 C 
ATOM     23  C   UNL     1       1.479  -4.934   3.492  0.00  0.00    -0.003 C 
ATOM     24  C   UNL     1       1.371  -6.146   4.109  0.00  0.00    -0.007 A 
ATOM     25  C   UNL     1       2.185  -6.466   5.282  0.00  0.00    +0.012 A 
ATOM     26  C   UNL     1       2.044  -7.685   5.864  0.00  0.00    -0.050 A 
ATOM     27  C   UNL     1       1.145  -8.628   5.365  0.00  0.00    +0.005 A 
ATOM     28  C   UNL     1       0.362  -8.393   4.280  0.00  0.00    +0.024 A 
ATOM     29  C   UNL     1       0.430  -7.160   3.604  0.00  0.00    +0.040 A 
ATOM     30  N   UNL     1      -0.343  -6.940   2.541  0.00  0.00    -0.284 N 
ATOM     31  C   UNL     1      -0.327  -5.807   1.859  0.00  0.00    +0.226 C 
ATOM     32  O   UNL     1      -1.056  -5.665   0.896  0.00  0.00    -0.275 OA
ATOM     33  C   UNL     1       2.876  -8.027   7.073  0.00  0.00    +0.044 C 
ATOM     34  H   UNL     1      -0.944  -7.644   2.252  0.00  0.00    +0.155 HD
ENDBRANCH  21  22
ENDBRANCH   1  21
TORSDOF 5
