REMARK  Name = ZINC38934610
REMARK  4 active torsions:
REMARK  status: ('A' for Active; 'I' for Inactive)
REMARK    1  A    between atoms: C_6  and  O_7
REMARK    2  A    between atoms: O_7  and  C_8
REMARK    3  A    between atoms: C_8  and  C_9
REMARK    4  A    between atoms: C_15  and  C_17
REMARK                            x       y       z     vdW  Elec       q    Type
REMARK                         _______ _______ _______ _____ _____    ______ ____
ROOT
ATOM      1  C   UNL     1      -2.455  -2.722   0.012  0.00  0.00    +0.258 C 
ATOM      2  O   UNL     1      -3.427  -1.997   0.025  0.00  0.00    -0.272 OA
ATOM      3  N   UNL     1      -2.613  -4.060   0.006  0.00  0.00    -0.236 N 
ATOM      4  C   UNL     1      -3.887  -4.609   0.016  0.00  0.00    +0.315 A 
ATOM      5  N   UNL     1      -5.016  -3.945   0.025  0.00  0.00    -0.092 NA
ATOM      6  N   UNL     1      -6.001  -4.772   0.032  0.00  0.00    -0.106 NA
ATOM      7  C   UNL     1      -5.538  -6.000   0.027  0.00  0.00    +0.252 A 
ATOM      8  O   UNL     1      -4.190  -5.922   0.012  0.00  0.00    -0.405 OA
ATOM      9  H   UNL     1      -1.835  -4.640  -0.005  0.00  0.00    +0.159 HD
ENDROOT
BRANCH   7  10
ATOM     10  C   UNL     1      -6.342  -7.238   0.032  0.00  0.00    +0.065 A 
ATOM     11  C   UNL     1      -7.781  -7.194   0.036  0.00  0.00    +0.042 A 
ATOM     12  C   UNL     1      -8.455  -8.363   0.040  0.00  0.00    +0.080 A 
ATOM     13  S   UNL     1      -7.148  -9.575   0.038  0.00  0.00    -0.064 S 
ATOM     14  C   UNL     1      -5.747  -8.472   0.026  0.00  0.00    +0.092 A 
ATOM     15 CL   UNL     1      -4.056  -8.863   0.013  0.00  0.00    -0.075 Cl
ATOM     16 CL   UNL     1     -10.172  -8.623   0.046  0.00  0.00    -0.076 Cl
ENDBRANCH   7  10
BRANCH   1  17
ATOM     17  C   UNL     1      -1.071  -2.126   0.001  0.00  0.00    +0.325 C 
BRANCH  17  18
ATOM     18  O   UNL     1      -1.165  -0.700   0.010  0.00  0.00    -0.483 OA
BRANCH  18  24
ATOM     19  C   UNL     1      -0.017   1.383   0.010  0.00  0.00    +0.048 A 
ATOM     20  C   UNL     1       1.171   2.089   0.002  0.00  0.00    +0.042 A 
ATOM     21  C   UNL     1       2.379   1.413  -0.013  0.00  0.00    +0.124 A 
ATOM     22  C   UNL     1       2.399   0.029  -0.021  0.00  0.00    +0.042 A 
ATOM     23  C   UNL     1       1.213  -0.680  -0.014  0.00  0.00    +0.048 A 
ATOM     24  C   UNL     1       0.002  -0.004   0.002  0.00  0.00    +0.121 A 
ATOM     25  F   UNL     1       3.539   2.105  -0.020  0.00  0.00    -0.205 F 
ENDBRANCH  18  24
ENDBRANCH  17  18
ENDBRANCH   1  17
TORSDOF 4
