REMARK  Name = ZINC46550082
REMARK  4 active torsions:
REMARK  status: ('A' for Active; 'I' for Inactive)
REMARK    1  A    between atoms: C_1  and  C_2
REMARK    2  A    between atoms: N_5  and  S_8
REMARK    3  A    between atoms: S_8  and  N_11
REMARK    4  A    between atoms: C_15  and  C_18
REMARK                            x       y       z     vdW  Elec       q    Type
REMARK                         _______ _______ _______ _____ _____    ______ ____
ROOT
ATOM      1  N   UNL     1       3.943  -2.728  -0.053  0.00  0.00    -0.166 NA
ATOM      2  C   UNL     1       4.561  -2.320  -1.321  0.00  0.00    +0.110 C 
ATOM      3  C   UNL     1       4.784  -0.804  -1.296  0.00  0.00    +0.018 C 
ATOM      4  C   UNL     1       5.595  -0.432  -0.053  0.00  0.00    +0.013 C 
ATOM      5  C   UNL     1       4.816  -0.828   1.204  0.00  0.00    +0.060 C 
ATOM      6  C   UNL     1       4.591  -2.338   1.207  0.00  0.00    +0.120 C 
ENDROOT
BRANCH   5   7
ATOM      7  C   UNL     1       5.601  -0.431   2.428  0.00  0.00    +0.084 A 
ATOM      8  N   UNL     1       6.793  -0.823   2.772  0.00  0.00    -0.244 NA
ATOM      9  C   UNL     1       7.392  -0.392   3.901  0.00  0.00    +0.078 A 
ATOM     10  C   UNL     1       8.663  -0.705   4.427  0.00  0.00    +0.029 A 
ATOM     11  C   UNL     1       9.082  -0.154   5.599  0.00  0.00    +0.002 A 
ATOM     12  C   UNL     1       8.284   0.729   6.314  0.00  0.00    +0.001 A 
ATOM     13  C   UNL     1       7.033   1.061   5.830  0.00  0.00    +0.017 A 
ATOM     14  C   UNL     1       6.601   0.509   4.648  0.00  0.00    +0.039 A 
ATOM     15  S   UNL     1       5.136   0.624   3.654  0.00  0.00    -0.072 S 
ENDBRANCH   5   7
BRANCH   1  16
ATOM     16  S   UNL     1       2.539  -3.606  -0.043  0.00  0.00    +0.100 S 
ATOM     17  O   UNL     1       2.499  -4.295   1.199  0.00  0.00    -0.141 OA
ATOM     18  O   UNL     1       2.474  -4.282  -1.291  0.00  0.00    -0.141 OA
BRANCH  16  23
ATOM     19  C   UNL     1      -0.019   1.526   0.010  0.00  0.00    +0.007 C 
ATOM     20  C   UNL     1       0.002  -0.004   0.002  0.00  0.00    -0.012 C 
ATOM     21  C   UNL     1       0.717  -0.497  -1.258  0.00  0.00    +0.020 C 
ATOM     22  C   UNL     1       0.705  -2.029  -1.280  0.00  0.00    +0.111 C 
ATOM     23  N   UNL     1       1.285  -2.525  -0.025  0.00  0.00    -0.166 NA
ATOM     24  C   UNL     1       0.731  -2.043   1.248  0.00  0.00    +0.111 C 
ATOM     25  C   UNL     1       0.742  -0.511   1.242  0.00  0.00    +0.020 C 
ENDBRANCH  16  23
ENDBRANCH   1  16
TORSDOF 3
