REMARK  Name = ZINC20323505
REMARK  6 active torsions:
REMARK  status: ('A' for Active; 'I' for Inactive)
REMARK    1  A    between atoms: C_1  and  C_2
REMARK    2  A    between atoms: C_7  and  N_8
REMARK    3  A    between atoms: C_9  and  C_11
REMARK    4  A    between atoms: N_21  and  N_22
REMARK    5  A    between atoms: N_22  and  S_23
REMARK    6  A    between atoms: S_23  and  C_26
REMARK                            x       y       z     vdW  Elec       q    Type
REMARK                         _______ _______ _______ _____ _____    ______ ____
ROOT
ATOM      1  C   UNL     1      -2.131   1.192   0.675  0.00  0.00    +0.099 A 
ATOM      2  C   UNL     1      -0.972   0.548   0.312  0.00  0.00    +0.030 A 
ATOM      3  C   UNL     1       0.270   1.331   0.315  0.00  0.00    +0.018 A 
ATOM      4  C   UNL     1       1.426   0.836  -0.296  0.00  0.00    +0.011 A 
ATOM      5  C   UNL     1       2.580   1.591  -0.283  0.00  0.00    +0.001 A 
ATOM      6  C   UNL     1       2.598   2.833   0.330  0.00  0.00    +0.004 A 
ATOM      7  C   UNL     1       1.462   3.333   0.939  0.00  0.00    +0.047 A 
ATOM      8  C   UNL     1       0.293   2.591   0.938  0.00  0.00    +0.137 A 
ATOM      9  O   UNL     1      -0.829   3.067   1.537  0.00  0.00    -0.437 OA
ATOM     10  C   UNL     1      -2.023   2.621   1.050  0.00  0.00    +0.225 A 
ATOM     11  N   UNL     1      -3.037   3.429   0.914  0.00  0.00    -0.260 N 
ATOM     12  H   UNL     1      -3.964   3.072   0.441  0.00  0.00    +0.189 HD
ENDROOT
BRANCH   1  14
ATOM     13  N   UNL     1      -3.475  -0.837   0.466  0.00  0.00    -0.281 N 
ATOM     14  C   UNL     1      -3.425   0.490   0.695  0.00  0.00    +0.253 C 
ATOM     15  O   UNL     1      -4.449   1.107   0.918  0.00  0.00    -0.270 OA
ATOM     16  H   UNL     1      -2.543  -1.410   0.345  0.00  0.00    +0.155 HD
BRANCH  13  23
ATOM     17  C   UNL     1      -3.540  -3.656   0.852  0.00  0.00    +0.045 C 
ATOM     18  C   UNL     1      -4.788  -2.861   0.563  0.00  0.00    -0.029 A 
ATOM     19  C   UNL     1      -6.011  -3.499   0.484  0.00  0.00    +0.005 A 
ATOM     20  C   UNL     1      -7.155  -2.771   0.214  0.00  0.00    +0.000 A 
ATOM     21  C   UNL     1      -7.080  -1.403   0.027  0.00  0.00    +0.002 A 
ATOM     22  C   UNL     1      -5.862  -0.759   0.110  0.00  0.00    +0.023 A 
ATOM     23  C   UNL     1      -4.710  -1.486   0.382  0.00  0.00    +0.037 A 
ENDBRANCH  13  23
ENDBRANCH   1  14
BRANCH  11  24
ATOM     24  N   UNL     1      -2.946   4.750   1.370  0.00  0.00    -0.157 N 
ATOM     25  H   UNL     1      -2.106   5.086   1.720  0.00  0.00    +0.194 HD
BRANCH  24  26
ATOM     26  S   UNL     1      -4.273   5.739   1.311  0.00  0.00    +0.085 S 
ATOM     27  O   UNL     1      -3.902   6.955   1.945  0.00  0.00    -0.149 OA
ATOM     28  O   UNL     1      -4.755   5.693  -0.025  0.00  0.00    -0.149 OA
BRANCH  26  29
ATOM     29  C   UNL     1      -5.516   5.004   2.321  0.00  0.00    +0.110 A 
ATOM     30  C   UNL     1      -6.485   4.200   1.749  0.00  0.00    +0.029 A 
ATOM     31  C   UNL     1      -7.457   3.620   2.542  0.00  0.00    +0.002 A 
ATOM     32  C   UNL     1      -7.467   3.851   3.905  0.00  0.00    +0.000 A 
ATOM     33  C   UNL     1      -6.501   4.659   4.475  0.00  0.00    +0.002 A 
ATOM     34  C   UNL     1      -5.526   5.236   3.683  0.00  0.00    +0.029 A 
ENDBRANCH  26  29
ENDBRANCH  24  26
ENDBRANCH  11  24
TORSDOF 5
