REMARK  Name = ZINC19241252
REMARK  7 active torsions:
REMARK  status: ('A' for Active; 'I' for Inactive)
REMARK    1  A    between atoms: C_3  and  N_8
REMARK    2  A    between atoms: C_12  and  S_14
REMARK    3  A    between atoms: S_14  and  C_15
REMARK    4  A    between atoms: C_15  and  C_16
REMARK    5  A    between atoms: N_18  and  C_19
REMARK    6  A    between atoms: C_19  and  C_21
REMARK    7  A    between atoms: C_19  and  C_28
REMARK                            x       y       z     vdW  Elec       q    Type
REMARK                         _______ _______ _______ _____ _____    ______ ____
ROOT
ATOM      1  C   UNL     1      -1.137   0.373  -2.352  0.00  0.00    +0.224 C 
ATOM      2  O   UNL     1      -1.390  -0.733  -1.924  0.00  0.00    -0.275 OA
ATOM      3  N   UNL     1      -0.078   1.056  -1.873  0.00  0.00    -0.303 N 
ATOM      4  H   UNL     1       0.152   2.059  -2.262  0.00  0.00    +0.150 HD
ENDROOT
BRANCH   1   5
ATOM      5  C   UNL     1      -2.006   0.985  -3.421  0.00  0.00    +0.172 C 
BRANCH   5   6
ATOM      6  S   UNL     1      -3.336  -0.171  -3.852  0.00  0.00    -0.088 S 
BRANCH   6  11
ATOM      7  N   UNL     1      -6.872   1.894  -7.957  0.00  0.00    -0.292 N 
ATOM      8  C   UNL     1      -5.906   1.612  -6.997  0.00  0.00    +0.187 A 
ATOM      9  N   UNL     1      -4.894   2.351  -6.589  0.00  0.00    -0.125 NA
ATOM     10  N   UNL     1      -4.050   1.876  -5.611  0.00  0.00    -0.133 NA
ATOM     11  C   UNL     1      -4.252   0.678  -5.096  0.00  0.00    +0.160 A 
ATOM     12  S   UNL     1      -5.705   0.151  -5.990  0.00  0.00    -0.024 S 
ATOM     13  H   UNL     1      -7.714   1.203  -8.111  0.00  0.00    +0.154 HD
BRANCH   7  16
ATOM     14  C   UNL     1      -5.438   4.785  -9.716  0.00  0.00    +0.005 A 
ATOM     15  C   UNL     1      -5.533   3.636  -8.956  0.00  0.00    +0.023 A 
ATOM     16  C   UNL     1      -6.774   3.056  -8.726  0.00  0.00    +0.036 A 
ATOM     17  C   UNL     1      -7.917   3.631  -9.268  0.00  0.00    +0.061 A 
ATOM     18  C   UNL     1      -7.816   4.784 -10.024  0.00  0.00    +0.125 A 
ATOM     19  C   UNL     1      -6.576   5.359 -10.250  0.00  0.00    +0.038 A 
ATOM     20  F   UNL     1      -8.927   5.348 -10.547  0.00  0.00    -0.205 F 
ENDBRANCH   7  16
ENDBRANCH   6  11
ENDBRANCH   5   6
ENDBRANCH   1   5
BRANCH   3  21
ATOM     21  C   UNL     1       0.767   0.462  -0.834  0.00  0.00    +0.140 C 
BRANCH  21  22
ATOM     22  C   UNL     1       2.145   1.068  -0.900  0.00  0.00    -0.022 A 
ATOM     23  C   UNL     1       2.293   2.420  -1.147  0.00  0.00    +0.008 A 
ATOM     24  C   UNL     1       3.556   2.979  -1.202  0.00  0.00    +0.038 A 
ATOM     25  C   UNL     1       4.674   2.182  -1.021  0.00  0.00    +0.123 A 
ATOM     26  C   UNL     1       4.524   0.827  -0.778  0.00  0.00    +0.038 A 
ATOM     27  C   UNL     1       3.260   0.271  -0.718  0.00  0.00    +0.008 A 
ATOM     28  F   UNL     1       5.909   2.725  -1.079  0.00  0.00    -0.205 F 
ENDBRANCH  21  22
BRANCH  21  29
ATOM     29  C   UNL     1       0.163   0.732   0.520  0.00  0.00    +0.014 A 
ATOM     30  C   UNL     1       0.076  -0.090   1.595  0.00  0.00    +0.013 A 
ATOM     31  C   UNL     1      -0.527   0.377   2.748  0.00  0.00    +0.008 A 
ATOM     32  C   UNL     1      -1.013   1.642   2.769  0.00  0.00    +0.045 A 
ATOM     33  S   UNL     1      -0.616   2.219   1.127  0.00  0.00    -0.099 S 
ENDBRANCH  21  29
ENDBRANCH   3  21
TORSDOF 7
