REMARK  Name = ZINC49550449
REMARK  3 active torsions:
REMARK  status: ('A' for Active; 'I' for Inactive)
REMARK    1  A    between atoms: C_1  and  N_2
REMARK    2  A    between atoms: C_8  and  C_21
REMARK    3  A    between atoms: N_13  and  C_14
REMARK                            x       y       z     vdW  Elec       q    Type
REMARK                         _______ _______ _______ _____ _____    ______ ____
ROOT
ATOM      1  C   UNL     1      -0.154   1.555   0.842  0.00  0.00    +0.154 C 
ATOM      2  N   UNL     1      -0.059   0.095   0.780  0.00  0.00    -0.293 N 
ATOM      3  C   UNL     1      -1.168  -0.654   0.491  0.00  0.00    +0.126 A 
ATOM      4  C   UNL     1      -0.963  -1.988   0.452  0.00  0.00    +0.042 A 
ATOM      5  S   UNL     1       0.756  -2.151   0.826  0.00  0.00    -0.029 S 
ATOM      6  C   UNL     1       1.123  -0.517   1.003  0.00  0.00    +0.292 A 
ATOM      7  O   UNL     1       2.198  -0.009   1.269  0.00  0.00    -0.259 OA
ATOM      8  C   UNL     1      -1.992  -3.024   0.148  0.00  0.00    +0.068 C 
ATOM      9  C   UNL     1      -3.364  -2.471   0.560  0.00  0.00    +0.110 C 
ATOM     10  C   UNL     1      -3.491  -1.028   0.159  0.00  0.00    +0.226 C 
ATOM     11  O   UNL     1      -4.564  -0.629  -0.242  0.00  0.00    -0.275 OA
ATOM     12  N   UNL     1      -2.466  -0.159   0.225  0.00  0.00    -0.225 N 
ENDROOT
BRANCH  12  13
ATOM     13  C   UNL     1      -2.681   1.212   0.034  0.00  0.00    +0.043 A 
ATOM     14  C   UNL     1      -2.467   1.782  -1.215  0.00  0.00    +0.025 A 
ATOM     15  C   UNL     1      -2.679   3.134  -1.400  0.00  0.00    +0.017 A 
ATOM     16  C   UNL     1      -3.104   3.920  -0.344  0.00  0.00    +0.018 A 
ATOM     17  C   UNL     1      -3.318   3.355   0.900  0.00  0.00    +0.017 A 
ATOM     18  C   UNL     1      -3.113   2.002   1.090  0.00  0.00    +0.025 A 
ATOM     19 BR   UNL     1      -3.393   5.771  -0.602  0.00  0.00    -0.050 Br
ENDBRANCH  12  13
BRANCH   8  20
ATOM     20  C   UNL     1      -1.695  -4.280   0.927  0.00  0.00    -0.039 A 
ATOM     21  C   UNL     1      -1.665  -4.246   2.308  0.00  0.00    +0.004 A 
ATOM     22  C   UNL     1      -1.392  -5.397   3.022  0.00  0.00    +0.000 A 
ATOM     23  C   UNL     1      -1.150  -6.583   2.355  0.00  0.00    +0.000 A 
ATOM     24  C   UNL     1      -1.181  -6.618   0.973  0.00  0.00    +0.000 A 
ATOM     25  C   UNL     1      -1.458  -5.467   0.259  0.00  0.00    +0.004 A 
ENDBRANCH   8  20
TORSDOF 2
