REMARK  Name = ZINC37828746
REMARK  8 active torsions:
REMARK  status: ('A' for Active; 'I' for Inactive)
REMARK    1  A    between atoms: C_1  and  C_2
REMARK    2  A    between atoms: C_2  and  N_3
REMARK    3  A    between atoms: N_3  and  C_4
REMARK    4  A    between atoms: C_4  and  C_5
REMARK    5  A    between atoms: C_11  and  C_13
REMARK    6  A    between atoms: C_13  and  C_15
REMARK    7  A    between atoms: C_15  and  C_16
REMARK    8  A    between atoms: C_15  and  C_17
REMARK                            x       y       z     vdW  Elec       q    Type
REMARK                         _______ _______ _______ _____ _____    ______ ____
ROOT
ATOM      1  N   UNL     1      -1.453  -0.430   0.002  0.00  0.00    -0.296 N 
ATOM      2  C   UNL     1      -1.962  -0.878   1.167  0.00  0.00    +0.230 C 
ATOM      3  O   UNL     1      -2.998  -1.507   1.174  0.00  0.00    -0.274 OA
ENDROOT
BRANCH   1   5
ATOM      4  C   UNL     1      -0.332   1.742   0.095  0.00  0.00    +0.024 C 
ATOM      5  C   UNL     1      -0.144   0.228  -0.022  0.00  0.00    +0.105 C 
ENDBRANCH   1   5
BRANCH   2   6
ATOM      6  C   UNL     1      -1.242  -0.597   2.461  0.00  0.00    +0.145 C 
ATOM      7 BR   UNL     1      -2.515  -0.701   3.955  0.00  0.00    -0.078 Br
BRANCH   6   8
ATOM      8  C   UNL     1      -0.133  -1.631   2.662  0.00  0.00    +0.005 C 
ATOM      9  C   UNL     1       0.656  -1.293   3.929  0.00  0.00    +0.009 C 
ATOM     10  C   UNL     1      -0.752  -3.023   2.804  0.00  0.00    +0.009 C 
ENDBRANCH   6   8
ENDBRANCH   2   6
BRANCH   1  11
ATOM     11  C   UNL     1      -2.209  -0.601  -1.241  0.00  0.00    +0.150 C 
BRANCH  11  12
ATOM     12  C   UNL     1      -1.841  -1.917  -1.877  0.00  0.00    +0.008 A 
ATOM     13  C   UNL     1      -2.408  -3.136  -1.705  0.00  0.00    +0.014 A 
ATOM     14  C   UNL     1      -1.897  -4.217  -2.400  0.00  0.00    +0.023 A 
ATOM     15  C   UNL     1      -0.844  -4.024  -3.233  0.00  0.00    +0.055 A 
ATOM     16  S   UNL     1      -0.548  -2.273  -3.056  0.00  0.00    -0.085 S 
ATOM     17 BR   UNL     1       0.069  -5.284  -4.309  0.00  0.00    -0.043 Br
ENDBRANCH  11  12
ENDBRANCH   1  11
TORSDOF 5
