REMARK  Name = ZINC14545431
REMARK  6 active torsions:
REMARK  status: ('A' for Active; 'I' for Inactive)
REMARK    1  A    between atoms: C_1  and  C_2
REMARK    2  A    between atoms: C_2  and  O_3
REMARK    3  A    between atoms: O_3  and  C_4
REMARK    4  A    between atoms: C_9  and  C_10
REMARK    5  A    between atoms: C_21  and  S_26
REMARK    6  A    between atoms: S_26  and  N_29
REMARK                            x       y       z     vdW  Elec       q    Type
REMARK                         _______ _______ _______ _____ _____    ______ ____
ROOT
ATOM      1  C   UNL     1       4.893   1.494  -0.037  0.00  0.00    +0.108 C 
ATOM      2  C   UNL     1       4.705   0.209  -0.824  0.00  0.00    +0.029 C 
ATOM      3  C   UNL     1       5.885  -0.771  -0.855  0.00  0.00    +0.033 C 
ATOM      4  C   UNL     1       5.166  -2.113  -1.012  0.00  0.00    -0.030 C 
ATOM      5  C   UNL     1       3.936  -2.029  -0.519  0.00  0.00    -0.023 C 
ATOM      6  C   UNL     1       3.714  -0.651   0.016  0.00  0.00    +0.049 C 
ATOM      7  C   UNL     1       2.396   0.021  -0.009  0.00  0.00    -0.018 A 
ATOM      8  C   UNL     1       1.209  -0.678  -0.007  0.00  0.00    +0.034 A 
ATOM      9  C   UNL     1       0.002  -0.004   0.002  0.00  0.00    +0.106 A 
ATOM     10  C   UNL     1      -0.017   1.379   0.010  0.00  0.00    +0.030 A 
ATOM     11  C   UNL     1       1.167   2.088   0.002  0.00  0.00    +0.025 A 
ATOM     12  C   UNL     1       2.385   1.420  -0.013  0.00  0.00    +0.031 A 
ATOM     13  N   UNL     1       3.572   2.162  -0.043  0.00  0.00    -0.336 N 
ATOM     14  H   UNL     1       3.529   3.130  -0.067  0.00  0.00    +0.147 HD
ENDROOT
BRANCH   1  20
ATOM     15  C   UNL     1       6.658   1.052   1.687  0.00  0.00    +0.125 A 
ATOM     16  C   UNL     1       7.042   0.765   2.989  0.00  0.00    +0.046 A 
ATOM     17  C   UNL     1       6.084   0.612   3.973  0.00  0.00    +0.004 A 
ATOM     18  C   UNL     1       4.744   0.744   3.660  0.00  0.00    +0.001 A 
ATOM     19  C   UNL     1       4.359   1.034   2.364  0.00  0.00    +0.009 A 
ATOM     20  C   UNL     1       5.313   1.183   1.376  0.00  0.00    +0.015 A 
BRANCH  15  21
ATOM     21  O   UNL     1       7.599   1.202   0.718  0.00  0.00    -0.492 OA
BRANCH  21  23
ATOM     22  C   UNL     1       9.870   1.256  -0.106  0.00  0.00    +0.048 C 
ATOM     23  C   UNL     1       8.965   1.053   1.110  0.00  0.00    +0.225 C 
ENDBRANCH  21  23
ENDBRANCH  15  21
ENDBRANCH   1  20
BRANCH   9  24
ATOM     24  S   UNL     1      -1.512  -0.906   0.003  0.00  0.00    +0.061 S 
ATOM     25  O   UNL     1      -1.221  -2.187   0.546  0.00  0.00    -0.153 OA
ATOM     26  O   UNL     1      -2.496  -0.047   0.563  0.00  0.00    -0.153 OA
BRANCH  24  27
ATOM     27  N   UNL     1      -1.938  -1.148  -1.578  0.00  0.00    -0.172 NA
ATOM     28  C   UNL     1      -2.785  -0.178  -2.292  0.00  0.00    +0.137 C 
ATOM     29  C   UNL     1      -2.097   0.171  -3.622  0.00  0.00    +0.177 C 
ATOM     30  O   UNL     1      -1.789  -1.038  -4.321  0.00  0.00    -0.377 OA
ATOM     31  C   UNL     1      -0.868  -1.891  -3.638  0.00  0.00    +0.177 C 
ATOM     32  C   UNL     1      -1.488  -2.342  -2.310  0.00  0.00    +0.137 C 
ENDBRANCH  24  27
ENDBRANCH   9  24
TORSDOF 5
