REMARK  Name = ZINC20737932
REMARK  5 active torsions:
REMARK  status: ('A' for Active; 'I' for Inactive)
REMARK    1  A    between atoms: C_1  and  C_2
REMARK    2  A    between atoms: C_14  and  O_31
REMARK    3  A    between atoms: C_17  and  C_19
REMARK    4  A    between atoms: C_22  and  O_25
REMARK    5  A    between atoms: O_25  and  C_26
REMARK                            x       y       z     vdW  Elec       q    Type
REMARK                         _______ _______ _______ _____ _____    ______ ____
ROOT
ATOM      1  C   UNL     1      -0.434   1.650  -0.218  0.00  0.00    +0.068 C 
ATOM      2  C   UNL     1      -0.421   0.146  -0.127  0.00  0.00    +0.067 A 
ATOM      3  C   UNL     1      -0.213  -0.736  -1.203  0.00  0.00    +0.037 A 
ATOM      4  C   UNL     1      -0.271  -2.013  -0.713  0.00  0.00    +0.167 A 
ATOM      5  N   UNL     1      -0.518  -1.903   0.644  0.00  0.00    -0.179 N 
ATOM      6  N   UNL     1      -0.593  -0.547   0.963  0.00  0.00    -0.167 NA
ATOM      7  C   UNL     1      -0.661  -2.962   1.537  0.00  0.00    +0.253 A 
ATOM      8  N   UNL     1      -0.553  -4.203   1.090  0.00  0.00    -0.219 NA
ATOM      9  C   UNL     1      -0.683  -5.232   1.911  0.00  0.00    +0.116 A 
ATOM     10  C   UNL     1      -0.935  -4.998   3.254  0.00  0.00    +0.039 A 
ATOM     11  C   UNL     1      -1.042  -3.685   3.688  0.00  0.00    +0.116 A 
ATOM     12  N   UNL     1      -0.896  -2.703   2.814  0.00  0.00    -0.219 NA
ATOM     13  N   UNL     1      -0.127  -3.209  -1.305  0.00  0.00    -0.197 NA
ATOM     14  C   UNL     1       0.098  -3.630  -2.464  0.00  0.00    +0.199 C 
ATOM     15  C   UNL     1       0.247  -2.883  -3.731  0.00  0.00    +0.165 C 
ATOM     16  S   UNL     1       1.122  -1.325  -3.533  0.00  0.00    -0.138 S 
ATOM     17  C   UNL     1       0.016  -0.256  -2.605  0.00  0.00    +0.112 C 
ENDROOT
BRANCH  17  18
ATOM     18  C   UNL     1       0.608   1.129  -2.553  0.00  0.00    -0.030 A 
ATOM     19  C   UNL     1       1.819   1.339  -1.919  0.00  0.00    +0.008 A 
ATOM     20  C   UNL     1       2.363   2.607  -1.870  0.00  0.00    +0.046 A 
ATOM     21  C   UNL     1       1.694   3.671  -2.458  0.00  0.00    +0.121 A 
ATOM     22  C   UNL     1       0.480   3.458  -3.094  0.00  0.00    +0.046 A 
ATOM     23  C   UNL     1      -0.058   2.186  -3.145  0.00  0.00    +0.008 A 
BRANCH  21  24
ATOM     24  O   UNL     1       2.228   4.920  -2.411  0.00  0.00    -0.489 OA
BRANCH  24  25
ATOM     25  C   UNL     1       1.429   5.987  -2.929  0.00  0.00    +0.173 C 
ATOM     26  C   UNL     1       1.662   6.131  -4.447  0.00  0.00    +0.044 C 
ATOM     27  C   UNL     1       1.617   7.660  -4.694  0.00  0.00    +0.004 C 
ATOM     28  C   UNL     1       2.329   8.230  -3.443  0.00  0.00    +0.004 C 
ATOM     29  C   UNL     1       1.853   7.321  -2.290  0.00  0.00    +0.044 C 
ENDBRANCH  24  25
ENDBRANCH  21  24
ENDBRANCH  17  18
BRANCH  14  30
ATOM     30  O   UNL     1       0.223  -4.968  -2.571  0.00  0.00    -0.495 OA
ATOM     31  H   UNL     1       0.123  -5.441  -1.734  0.00  0.00    +0.293 HD
ENDBRANCH  14  30
TORSDOF 4
