REMARK  Name = ZINC09548951
REMARK  6 active torsions:
REMARK  status: ('A' for Active; 'I' for Inactive)
REMARK    1  A    between atoms: C_4  and  C_7
REMARK    2  A    between atoms: C_7  and  C_9
REMARK    3  A    between atoms: C_7  and  S_15
REMARK    4  A    between atoms: S_15  and  C_16
REMARK    5  A    between atoms: C_19  and  C_24
REMARK    6  A    between atoms: N_20  and  C_21
REMARK                            x       y       z     vdW  Elec       q    Type
REMARK                         _______ _______ _______ _____ _____    ______ ____
ROOT
ATOM      1  C   UNL     1       3.749   2.045  -2.808  0.00  0.00    +0.193 A 
ATOM      2  N   UNL     1       3.707   0.760  -2.539  0.00  0.00    -0.122 NA
ATOM      3  N   UNL     1       3.799   0.078  -3.624  0.00  0.00    -0.128 NA
ATOM      4  C   UNL     1       3.905   0.886  -4.654  0.00  0.00    +0.167 A 
ATOM      5  N   UNL     1       3.871   2.171  -4.165  0.00  0.00    -0.299 N 
ENDROOT
BRANCH   4   6
ATOM      6  C   UNL     1       4.031   0.489  -6.071  0.00  0.00    +0.044 A 
ATOM      7  C   UNL     1       4.013   1.315  -7.149  0.00  0.00    +0.095 A 
ATOM      8  N   UNL     1       4.157   0.583  -8.292  0.00  0.00    -0.360 N 
ATOM      9  H   UNL     1       4.174   0.952  -9.189  0.00  0.00    +0.165 HD
ATOM     10  C   UNL     1       4.275  -0.756  -7.988  0.00  0.00    +0.047 A 
ATOM     11  C   UNL     1       4.207  -0.878  -6.590  0.00  0.00    +0.010 A 
ATOM     12  C   UNL     1       4.294  -2.135  -5.994  0.00  0.00    +0.011 A 
ATOM     13  C   UNL     1       4.456  -3.253  -6.781  0.00  0.00    +0.001 A 
ATOM     14  C   UNL     1       4.527  -3.134  -8.162  0.00  0.00    +0.002 A 
ATOM     15  C   UNL     1       4.438  -1.899  -8.765  0.00  0.00    +0.026 A 
ENDBRANCH   4   6
BRANCH   5  16
ATOM     16  C   UNL     1       3.951   3.415  -4.934  0.00  0.00    +0.091 C 
ATOM     17  C   UNL     1       4.263   4.701  -4.168  0.00  0.00    +0.027 C 
ATOM     18  C   UNL     1       2.853   4.456  -4.711  0.00  0.00    +0.027 C 
ENDBRANCH   5  16
BRANCH   1  19
ATOM     19  S   UNL     1       3.659   3.360  -1.639  0.00  0.00    -0.068 S 
BRANCH  19  20
ATOM     20  C   UNL     1       3.505   2.410  -0.107  0.00  0.00    +0.170 C 
BRANCH  20  21
ATOM     21  C   UNL     1       3.533   3.349   1.071  0.00  0.00    +0.238 C 
ATOM     22  O   UNL     1       3.195   4.505   0.933  0.00  0.00    -0.274 OA
ATOM     23  N   UNL     1       3.934   2.904   2.279  0.00  0.00    -0.239 N 
ATOM     24  C   UNL     1       3.959   3.744   3.333  0.00  0.00    +0.303 C 
ATOM     25  O   UNL     1       3.620   4.902   3.194  0.00  0.00    -0.253 OA
ATOM     26  N   UNL     1       4.360   3.298   4.540  0.00  0.00    -0.313 N 
ATOM     27  H   UNL     1       4.204   1.979   2.389  0.00  0.00    +0.159 HD
ATOM     28  H   UNL     1       4.630   2.373   4.650  0.00  0.00    +0.146 HD
ATOM     29  H   UNL     1       4.378   3.903   5.298  0.00  0.00    +0.146 HD
ENDBRANCH  20  21
BRANCH  20  33
ATOM     30  C   UNL     1      -0.187   0.262  -0.128  0.00  0.00    +0.000 A 
ATOM     31  C   UNL     1      -0.190   1.642  -0.211  0.00  0.00    +0.000 A 
ATOM     32  C   UNL     1       1.005   2.337  -0.203  0.00  0.00    +0.005 A 
ATOM     33  C   UNL     1       2.202   1.652  -0.114  0.00  0.00    -0.025 A 
ATOM     34  C   UNL     1       2.205   0.272  -0.031  0.00  0.00    +0.005 A 
ATOM     35  C   UNL     1       1.010  -0.423  -0.038  0.00  0.00    +0.000 A 
ENDBRANCH  20  33
ENDBRANCH  19  20
ENDBRANCH   1  19
TORSDOF 6
