REMARK  Name = ZINC20175711
REMARK  11 active torsions:
REMARK  status: ('A' for Active; 'I' for Inactive)
REMARK    1  A    between atoms: C_1  and  C_2
REMARK    2  A    between atoms: C_2  and  O_3
REMARK    3  A    between atoms: O_3  and  C_4
REMARK    4  A    between atoms: C_6  and  C_20
REMARK    5  A    between atoms: C_9  and  O_10
REMARK    6  A    between atoms: O_10  and  C_11
REMARK    7  A    between atoms: C_11  and  C_12
REMARK    8  A    between atoms: C_17  and  C_18
REMARK    9  A    between atoms: C_23  and  C_34
REMARK   10  A    between atoms: C_29  and  N_33
REMARK   11  A    between atoms: C_30  and  C_31
REMARK                            x       y       z     vdW  Elec       q    Type
REMARK                         _______ _______ _______ _____ _____    ______ ____
ROOT
ATOM      1  C   UNL     1       0.802  -1.825   1.306  0.00  0.00    +0.163 A 
ATOM      2  C   UNL     1       0.251  -2.673   0.358  0.00  0.00    +0.054 A 
ATOM      3  C   UNL     1       0.366  -4.043   0.505  0.00  0.00    -0.030 A 
ATOM      4  C   UNL     1       1.022  -4.571   1.602  0.00  0.00    +0.023 A 
ATOM      5  C   UNL     1       1.570  -3.730   2.554  0.00  0.00    +0.063 A 
ATOM      6  C   UNL     1       1.462  -2.356   2.409  0.00  0.00    +0.176 A 
ATOM      7 BR   UNL     1       2.466  -4.456   4.053  0.00  0.00    -0.046 Br
ENDROOT
BRANCH   3   8
ATOM      8  C   UNL     1      -0.230  -4.963  -0.529  0.00  0.00    +0.101 C 
ATOM      9  C   UNL     1      -1.262  -5.852   0.116  0.00  0.00    +0.049 A 
ATOM     10  C   UNL     1      -2.532  -5.533   0.577  0.00  0.00    +0.068 A 
ATOM     11  N   UNL     1      -3.075  -6.624   1.064  0.00  0.00    -0.176 NA
ATOM     12  N   UNL     1      -2.156  -7.676   0.924  0.00  0.00    -0.246 N 
ATOM     13  H   UNL     1      -2.418  -8.686   1.274  0.00  0.00    +0.192 HD
ATOM     14  C   UNL     1      -1.052  -7.184   0.340  0.00  0.00    +0.222 A 
ATOM     15  O   UNL     1       0.101  -7.811  -0.002  0.00  0.00    -0.423 OA
ATOM     16  C   UNL     1       0.947  -7.157  -0.824  0.00  0.00    +0.200 C 
ATOM     17  C   UNL     1       0.849  -5.840  -1.112  0.00  0.00    +0.098 C 
ATOM     18  C   UNL     1      -3.175  -4.171   0.529  0.00  0.00    +0.068 C 
BRANCH  16  19
ATOM     19  N   UNL     1       1.968  -7.871  -1.401  0.00  0.00    -0.328 N 
ATOM     20  H   UNL     1       2.677  -7.369  -2.076  0.00  0.00    +0.145 HD
ATOM     21  H   UNL     1       2.077  -8.944  -1.189  0.00  0.00    +0.145 HD
ENDBRANCH  16  19
BRANCH  17  22
ATOM     22  C   UNL     1       1.806  -5.256  -2.003  0.00  0.00    +0.101 C 
ATOM     23  N   UNL     1       2.564  -4.793  -2.711  0.00  0.00    -0.191 NA
ENDBRANCH  17  22
ENDBRANCH   3   8
BRANCH   1  24
ATOM     24  O   UNL     1       0.693  -0.477   1.160  0.00  0.00    -0.489 OA
BRANCH  24  26
ATOM     25  C   UNL     1      -0.019   1.526   0.010  0.00  0.00    +0.048 C 
ATOM     26  C   UNL     1       0.002  -0.004   0.002  0.00  0.00    +0.226 C 
ENDBRANCH  24  26
ENDBRANCH   1  24
BRANCH   6  27
ATOM     27  O   UNL     1       2.001  -1.528   3.344  0.00  0.00    -0.483 OA
BRANCH  27  28
ATOM     28  C   UNL     1       1.162  -1.150   4.438  0.00  0.00    +0.265 C 
BRANCH  28  29
ATOM     29  C   UNL     1       1.924  -0.238   5.364  0.00  0.00    -0.007 A 
ATOM     30  C   UNL     1       3.235   0.097   5.081  0.00  0.00    +0.007 A 
ATOM     31  C   UNL     1       3.932   0.938   5.928  0.00  0.00    +0.000 A 
ATOM     32  C   UNL     1       3.322   1.435   7.064  0.00  0.00    +0.000 A 
ATOM     33  C   UNL     1       2.013   1.096   7.350  0.00  0.00    +0.004 A 
ATOM     34  C   UNL     1       1.313   0.260   6.500  0.00  0.00    -0.044 A 
ATOM     35  C   UNL     1      -0.114  -0.110   6.812  0.00  0.00    +0.044 C 
ENDBRANCH  28  29
ENDBRANCH  27  28
ENDBRANCH   6  27
TORSDOF 8
