REMARK  Name = ZINC67286008
REMARK  8 active torsions:
REMARK  status: ('A' for Active; 'I' for Inactive)
REMARK    1  A    between atoms: C_1  and  C_2
REMARK    2  A    between atoms: C_2  and  O_3
REMARK    3  A    between atoms: O_3  and  C_4
REMARK    4  A    between atoms: C_4  and  C_6
REMARK    5  A    between atoms: C_7  and  C_22
REMARK    6  A    between atoms: C_12  and  C_14
REMARK    7  A    between atoms: C_22  and  N_23
REMARK    8  A    between atoms: N_26  and  C_29
REMARK                            x       y       z     vdW  Elec       q    Type
REMARK                         _______ _______ _______ _____ _____    ______ ____
ROOT
ATOM      1  C   UNL     1       2.105  -2.510   2.173  0.00  0.00    +0.079 C 
ATOM      2  C   UNL     1       1.511  -3.642   2.607  0.00  0.00    +0.038 C 
ATOM      3  N   UNL     1       1.525  -3.983   3.930  0.00  0.00    -0.271 N 
ATOM      4  C   UNL     1       2.112  -3.246   4.880  0.00  0.00    +0.304 C 
ATOM      5  O   UNL     1       2.073  -3.632   6.032  0.00  0.00    -0.252 OA
ATOM      6  N   UNL     1       2.746  -2.090   4.602  0.00  0.00    -0.288 N 
ATOM      7  C   UNL     1       2.793  -1.635   3.202  0.00  0.00    +0.144 C 
ATOM      8  H   UNL     1       1.085  -4.806   4.195  0.00  0.00    +0.156 HD
ATOM      9  H   UNL     1       3.165  -1.571   5.306  0.00  0.00    +0.151 HD
ENDROOT
BRANCH   7  10
ATOM     10  C   UNL     1       4.239  -1.496   2.801  0.00  0.00    -0.020 A 
ATOM     11  C   UNL     1       5.134  -2.513   3.081  0.00  0.00    +0.009 A 
ATOM     12  C   UNL     1       6.460  -2.387   2.715  0.00  0.00    +0.041 A 
ATOM     13  C   UNL     1       6.894  -1.244   2.067  0.00  0.00    +0.158 A 
ATOM     14  C   UNL     1       5.997  -0.225   1.785  0.00  0.00    +0.159 A 
ATOM     15  C   UNL     1       4.668  -0.356   2.149  0.00  0.00    +0.047 A 
ATOM     16  F   UNL     1       6.419   0.892   1.153  0.00  0.00    -0.202 F 
ATOM     17  F   UNL     1       8.191  -1.121   1.708  0.00  0.00    -0.202 F 
ENDBRANCH   7  10
BRANCH   1  18
ATOM     18  C   UNL     1       2.091  -2.155   0.804  0.00  0.00    +0.339 C 
ATOM     19  O   UNL     1       1.644  -2.931  -0.021  0.00  0.00    -0.245 OA
BRANCH  18  20
ATOM     20  O   UNL     1       2.573  -0.958   0.412  0.00  0.00    -0.462 OA
BRANCH  20  22
ATOM     21  C   UNL     1       3.114   0.725  -1.236  0.00  0.00    +0.048 C 
ATOM     22  C   UNL     1       2.528  -0.666  -0.986  0.00  0.00    +0.229 C 
ENDBRANCH  20  22
ENDBRANCH  18  20
ENDBRANCH   1  18
BRANCH   2  23
ATOM     23  C   UNL     1       0.820  -4.543   1.617  0.00  0.00    +0.135 C 
BRANCH  23  24
ATOM     24  N   UNL     1       1.802  -5.458   1.019  0.00  0.00    -0.300 NA
ATOM     25  C   UNL     1       2.233  -6.475   1.989  0.00  0.00    +0.066 C 
ATOM     26  C   UNL     1       3.297  -7.369   1.348  0.00  0.00    -0.063 C 
ATOM     27  N   UNL     1       2.739  -8.014   0.152  0.00  0.00    +0.383 N 
ATOM     28  C   UNL     1       2.335  -6.987  -0.817  0.00  0.00    -0.063 C 
ATOM     29  C   UNL     1       1.263  -6.090  -0.194  0.00  0.00    +0.066 C 
ATOM     30  H   UNL     1       1.934  -8.565   0.412  0.00  0.00    -0.081 HD
BRANCH  27  31
ATOM     31  C   UNL     1       3.754  -8.886  -0.452  0.00  0.00    -0.068 C 
ATOM     32  C   UNL     1       4.173  -9.957   0.557  0.00  0.00    -0.015 C 
ATOM     33  C   UNL     1       5.231 -10.865  -0.073  0.00  0.00    -0.002 C 
ATOM     34  C   UNL     1       4.650 -11.537  -1.319  0.00  0.00    -0.000 C 
ATOM     35  C   UNL     1       4.231 -10.466  -2.328  0.00  0.00    -0.002 C 
ATOM     36  C   UNL     1       3.173  -9.558  -1.698  0.00  0.00    -0.015 C 
ENDBRANCH  27  31
ENDBRANCH  23  24
ENDBRANCH   2  23
TORSDOF 7
