REMARK  Name = ZINC13647799
REMARK  3 active torsions:
REMARK  status: ('A' for Active; 'I' for Inactive)
REMARK    1  A    between atoms: N_10  and  S_11
REMARK    2  A    between atoms: S_11  and  C_14
REMARK    3  A    between atoms: C_14  and  C_15
REMARK                            x       y       z     vdW  Elec       q    Type
REMARK                         _______ _______ _______ _____ _____    ______ ____
ROOT
ATOM      1  S   UNL     1      -2.408  -0.599  -0.327  0.00  0.00    +0.050 S 
ATOM      2  O   UNL     1      -3.740  -0.892  -0.723  0.00  0.00    -0.155 OA
ATOM      3  O   UNL     1      -1.328  -0.767  -1.235  0.00  0.00    -0.155 OA
ENDROOT
BRANCH   1  13
ATOM      4  C   UNL     1       1.171   3.130   0.170  0.00  0.00    +0.000 A 
ATOM      5  C   UNL     1       1.178   1.747   0.163  0.00  0.00    +0.002 A 
ATOM      6  C   UNL     1      -0.014   1.052   0.117  0.00  0.00    +0.025 A 
ATOM      7  C   UNL     1      -1.220   1.743   0.071  0.00  0.00    +0.054 A 
ATOM      8  C   UNL     1      -1.227   3.129   0.088  0.00  0.00    -0.025 A 
ATOM      9  C   UNL     1      -0.027   3.818   0.133  0.00  0.00    +0.005 A 
ATOM     10  C   UNL     1      -2.515   3.910   0.054  0.00  0.00    +0.038 C 
ATOM     11  C   UNL     1      -3.650   3.046  -0.495  0.00  0.00    +0.025 C 
ATOM     12  C   UNL     1      -3.683   1.721   0.278  0.00  0.00    +0.131 C 
ATOM     13  N   UNL     1      -2.417   1.020   0.022  0.00  0.00    -0.207 N 
ENDBRANCH   1  13
BRANCH   1  14
ATOM     14  C   UNL     1      -2.031  -1.413   1.250  0.00  0.00    +0.226 C 
BRANCH  14  15
ATOM     15  C   UNL     1      -1.996  -2.906   1.049  0.00  0.00    +0.010 A 
ATOM     16  C   UNL     1      -3.149  -3.652   1.210  0.00  0.00    +0.008 A 
ATOM     17  C   UNL     1      -3.118  -5.021   1.020  0.00  0.00    +0.000 A 
ATOM     18  C   UNL     1      -1.933  -5.647   0.679  0.00  0.00    +0.003 A 
ATOM     19  C   UNL     1      -0.779  -4.904   0.523  0.00  0.00    +0.038 A 
ATOM     20  C   UNL     1      -0.809  -3.531   0.708  0.00  0.00    +0.128 A 
ATOM     21  F   UNL     1       0.319  -2.804   0.556  0.00  0.00    -0.205 F 
ENDBRANCH  14  15
ENDBRANCH   1  14
TORSDOF 3
