REMARK  Name = ZINC12218225
REMARK  13 active torsions:
REMARK  status: ('A' for Active; 'I' for Inactive)
REMARK    1  A    between atoms: C_1  and  C_2
REMARK    2  A    between atoms: C_2  and  C_3
REMARK    3  A    between atoms: C_2  and  C_4
REMARK    4  A    between atoms: C_4  and  N_5
REMARK    5  A    between atoms: N_5  and  C_6
REMARK    6  A    between atoms: C_7  and  C_9
REMARK    7  A    between atoms: N_11  and  C_33
REMARK    8  A    between atoms: C_13  and  C_16
REMARK    9  A    between atoms: N_18  and  C_19
REMARK   10  A    between atoms: C_19  and  C_20
REMARK   11  A    between atoms: C_20  and  C_21
REMARK   12  A    between atoms: C_26  and  O_31
REMARK   13  A    between atoms: O_31  and  C_32
REMARK                            x       y       z     vdW  Elec       q    Type
REMARK                         _______ _______ _______ _____ _____    ______ ____
ROOT
ATOM      1  C   UNL     1      -6.494   9.486  -2.943  0.00  0.00    +0.100 A 
ATOM      2  C   UNL     1      -6.550  10.209  -1.771  0.00  0.00    +0.102 A 
ATOM      3  N   UNL     1      -5.581  10.118  -0.845  0.00  0.00    -0.349 N 
ATOM      4  C   UNL     1      -4.501   9.332  -0.982  0.00  0.00    +0.102 A 
ATOM      5  C   UNL     1      -4.317   8.553  -2.104  0.00  0.00    +0.100 A 
ATOM      6  C   UNL     1      -5.336   8.605  -3.166  0.00  0.00    +0.206 A 
ATOM      7  O   UNL     1      -5.226   7.944  -4.184  0.00  0.00    -0.286 OA
ENDROOT
BRANCH   3   8
ATOM      8  C   UNL     1      -5.710  10.917   0.376  0.00  0.00    +0.087 C 
ATOM      9  C   UNL     1      -4.485  11.842   0.533  0.00  0.00    +0.025 C 
ATOM     10  C   UNL     1      -4.214  11.855   2.059  0.00  0.00    +0.002 C 
ATOM     11  C   UNL     1      -4.513  10.393   2.473  0.00  0.00    +0.002 C 
ATOM     12  C   UNL     1      -5.727   9.996   1.609  0.00  0.00    +0.025 C 
ENDBRANCH   3   8
BRANCH   1  15
ATOM     13  N   UNL     1      -8.855   9.511  -3.572  0.00  0.00    -0.300 N 
ATOM     14  C   UNL     1      -9.198   9.411  -2.152  0.00  0.00    +0.132 C 
ATOM     15  C   UNL     1      -7.564   9.596  -3.950  0.00  0.00    +0.252 C 
ATOM     16  O   UNL     1      -7.282   9.762  -5.121  0.00  0.00    -0.270 OA
BRANCH  13  17
ATOM     17  C   UNL     1      -9.916   9.520  -4.583  0.00  0.00    +0.110 C 
BRANCH  17  19
ATOM     18  C   UNL     1     -10.790   7.301  -3.838  0.00  0.00    +0.009 C 
ATOM     19  C   UNL     1     -10.216   8.085  -5.020  0.00  0.00    +0.000 C 
ATOM     20  C   UNL     1     -11.233   8.101  -6.163  0.00  0.00    +0.009 C 
ENDBRANCH  17  19
ENDBRANCH  13  17
ENDBRANCH   1  15
BRANCH   5  21
ATOM     21  C   UNL     1      -3.127   7.695  -2.240  0.00  0.00    +0.249 C 
ATOM     22  O   UNL     1      -2.980   7.014  -3.237  0.00  0.00    -0.270 OA
ATOM     23  N   UNL     1      -2.202   7.664  -1.260  0.00  0.00    -0.311 N 
ATOM     24  H   UNL     1      -2.320   8.207  -0.465  0.00  0.00    +0.149 HD
BRANCH  23  25
ATOM     25  C   UNL     1      -1.020   6.811  -1.396  0.00  0.00    +0.112 C 
BRANCH  25  26
ATOM     26  C   UNL     1      -0.137   6.961  -0.155  0.00  0.00    +0.093 C 
BRANCH  26  27
ATOM     27  C   UNL     1       1.080   6.083  -0.295  0.00  0.00    +0.110 A 
ATOM     28  N   UNL     1       2.368   6.514  -0.198  0.00  0.00    -0.342 N 
ATOM     29  H   UNL     1       2.667   7.452  -0.025  0.00  0.00    +0.167 HD
ATOM     30  C   UNL     1       3.183   5.415  -0.383  0.00  0.00    +0.070 A 
ATOM     31  C   UNL     1       4.558   5.224  -0.396  0.00  0.00    +0.073 A 
ATOM     32  C   UNL     1       5.071   3.959  -0.616  0.00  0.00    +0.122 A 
ATOM     33  C   UNL     1       4.215   2.880  -0.823  0.00  0.00    +0.048 A 
ATOM     34  C   UNL     1       2.861   3.054  -0.812  0.00  0.00    +0.033 A 
ATOM     35  C   UNL     1       2.322   4.324  -0.592  0.00  0.00    +0.089 A 
ATOM     36  N   UNL     1       1.053   4.804  -0.530  0.00  0.00    -0.232 NA
BRANCH  32  37
ATOM     37  O   UNL     1       6.417   3.768  -0.629  0.00  0.00    -0.495 OA
ATOM     38  C   UNL     1       6.880   2.436  -0.861  0.00  0.00    +0.277 C 
ENDBRANCH  32  37
ENDBRANCH  26  27
ENDBRANCH  25  26
ENDBRANCH  23  25
ENDBRANCH   5  21
TORSDOF 9
