REMARK  Name = ZINC16676052
REMARK  4 active torsions:
REMARK  status: ('A' for Active; 'I' for Inactive)
REMARK    1  A    between atoms: C_1  and  C_2
REMARK    2  A    between atoms: C_10  and  C_20
REMARK    3  A    between atoms: C_11  and  C_13
REMARK    4  A    between atoms: C_13  and  C_14
REMARK                            x       y       z     vdW  Elec       q    Type
REMARK                         _______ _______ _______ _____ _____    ______ ____
ROOT
ATOM      1  C   UNL     1      -5.908   5.742  -6.357  0.00  0.00    +0.063 C 
ATOM      2  C   UNL     1      -4.911   5.186  -5.374  0.00  0.00    +0.020 A 
ATOM      3  C   UNL     1      -3.797   4.561  -5.819  0.00  0.00    +0.093 A 
ATOM      4  C   UNL     1      -2.868   4.042  -4.895  0.00  0.00    +0.275 A 
ATOM      5  O   UNL     1      -1.862   3.479  -5.291  0.00  0.00    -0.266 OA
ATOM      6  N   UNL     1      -3.094   4.170  -3.573  0.00  0.00    -0.179 N 
ATOM      7  C   UNL     1      -4.221   4.801  -3.134  0.00  0.00    +0.146 A 
ATOM      8  N   UNL     1      -5.131   5.310  -4.035  0.00  0.00    -0.343 N 
ATOM      9  H   UNL     1      -5.930   5.758  -3.715  0.00  0.00    +0.167 HD
ATOM     10  C   UNL     1      -4.189   4.777  -1.750  0.00  0.00    +0.048 A 
ATOM     11  C   UNL     1      -3.004   4.120  -1.370  0.00  0.00    +0.078 A 
ATOM     12  N   UNL     1      -2.363   3.761  -2.451  0.00  0.00    -0.166 NA
ENDROOT
BRANCH  10  13
ATOM     13  C   UNL     1      -5.213   5.341  -0.837  0.00  0.00    -0.013 A 
ATOM     14  C   UNL     1      -5.437   6.716  -0.802  0.00  0.00    +0.010 A 
ATOM     15  C   UNL     1      -6.394   7.236   0.046  0.00  0.00    +0.020 A 
ATOM     16  C   UNL     1      -7.123   6.395   0.869  0.00  0.00    +0.041 A 
ATOM     17  C   UNL     1      -6.901   5.029   0.842  0.00  0.00    +0.020 A 
ATOM     18  C   UNL     1      -5.950   4.499  -0.006  0.00  0.00    +0.010 A 
ATOM     19 CL   UNL     1      -8.320   7.056   1.938  0.00  0.00    -0.084 Cl
ENDBRANCH  10  13
BRANCH  11  20
ATOM     20  C   UNL     1      -2.553   3.869   0.045  0.00  0.00    +0.093 C 
BRANCH  20  21
ATOM     21  C   UNL     1      -1.238   3.133   0.030  0.00  0.00    -0.042 A 
ATOM     22  C   UNL     1      -1.219   1.751   0.017  0.00  0.00    +0.004 A 
ATOM     23  C   UNL     1      -0.013   1.076   0.008  0.00  0.00    +0.000 A 
ATOM     24  C   UNL     1       1.175   1.783   0.000  0.00  0.00    +0.000 A 
ATOM     25  C   UNL     1       1.156   3.165   0.008  0.00  0.00    +0.000 A 
ATOM     26  C   UNL     1      -0.050   3.840   0.022  0.00  0.00    +0.004 A 
ENDBRANCH  20  21
ENDBRANCH  11  20
TORSDOF 3
