REMARK  Name = ZINC66199903
REMARK  15 active torsions:
REMARK  status: ('A' for Active; 'I' for Inactive)
REMARK    1  A    between atoms: C_1  and  C_2
REMARK    2  A    between atoms: C_2  and  C_3
REMARK    3  A    between atoms: C_3  and  C_5
REMARK    4  A    between atoms: C_3  and  N_6
REMARK    5  A    between atoms: C_7  and  C_9
REMARK    6  A    between atoms: C_14  and  N_15
REMARK    7  A    between atoms: N_15  and  C_16
REMARK    8  A    between atoms: C_16  and  N_18
REMARK    9  A    between atoms: C_19  and  C_21
REMARK   10  A    between atoms: C_21  and  C_23
REMARK   11  A    between atoms: C_21  and  C_24
REMARK   12  A    between atoms: C_27  and  C_30
REMARK   13  A    between atoms: C_30  and  C_31
REMARK   14  A    between atoms: C_31  and  C_32
REMARK   15  A    between atoms: C_31  and  C_33
REMARK                            x       y       z     vdW  Elec       q    Type
REMARK                         _______ _______ _______ _____ _____    ______ ____
ROOT
ATOM      1  C   UNL     1       4.940   0.780   5.754  0.00  0.00    +0.141 C 
ATOM      2  S   UNL     1       6.491   1.505   5.718  0.00  0.00    -0.018 S 
ENDROOT
BRANCH   1   3
ATOM      3  N   UNL     1       4.347   0.517   6.935  0.00  0.00    -0.267 N 
ATOM      4  C   UNL     1       4.974   0.824   8.087  0.00  0.00    +0.226 C 
ATOM      5  O   UNL     1       6.072   1.337   8.062  0.00  0.00    -0.275 OA
ATOM      6  H   UNL     1       3.468   0.106   6.955  0.00  0.00    +0.157 HD
BRANCH   4   7
ATOM      7  C   UNL     1       4.310   0.529   9.408  0.00  0.00    +0.102 C 
ATOM      8  C   UNL     1       2.985   1.290   9.494  0.00  0.00    +0.022 C 
BRANCH   7   9
ATOM      9  C   UNL     1       5.213   0.965  10.533  0.00  0.00    -0.036 A 
ATOM     10  C   UNL     1       5.591   2.291  10.642  0.00  0.00    +0.004 A 
ATOM     11  C   UNL     1       6.420   2.690  11.674  0.00  0.00    +0.004 A 
ATOM     12  C   UNL     1       6.871   1.765  12.596  0.00  0.00    -0.047 A 
ATOM     13  C   UNL     1       6.493   0.440  12.487  0.00  0.00    +0.004 A 
ATOM     14  C   UNL     1       5.660   0.041  11.458  0.00  0.00    +0.004 A 
BRANCH  12  15
ATOM     15  C   UNL     1       7.775   2.200  13.720  0.00  0.00    +0.038 C 
BRANCH  15  16
ATOM     16  C   UNL     1       6.928   2.609  14.927  0.00  0.00    -0.013 C 
ATOM     17  C   UNL     1       7.845   2.932  16.108  0.00  0.00    +0.007 C 
ATOM     18  C   UNL     1       6.099   3.845  14.572  0.00  0.00    +0.007 C 
ENDBRANCH  15  16
ENDBRANCH  12  15
ENDBRANCH   7   9
ENDBRANCH   4   7
ENDBRANCH   1   3
BRANCH   1  19
ATOM     19  N   UNL     1       4.313   0.473   4.601  0.00  0.00    -0.296 N 
ATOM     20  H   UNL     1       3.405   0.133   4.619  0.00  0.00    +0.154 HD
BRANCH  19  26
ATOM     21  C   UNL     1       4.873  -0.338   2.388  0.00  0.00    +0.058 A 
ATOM     22  C   UNL     1       5.531  -0.151   1.170  0.00  0.00    +0.015 A 
ATOM     23  C   UNL     1       6.272   0.991   0.957  0.00  0.00    +0.001 A 
ATOM     24  C   UNL     1       6.369   1.957   1.946  0.00  0.00    +0.002 A 
ATOM     25  C   UNL     1       5.726   1.786   3.155  0.00  0.00    +0.024 A 
ATOM     26  C   UNL     1       4.968   0.645   3.385  0.00  0.00    +0.045 A 
BRANCH  21  28
ATOM     27  N   UNL     1       3.891  -2.442   1.623  0.00  0.00    -0.309 N 
ATOM     28  C   UNL     1       4.078  -1.558   2.623  0.00  0.00    +0.246 C 
ATOM     29  O   UNL     1       3.593  -1.766   3.718  0.00  0.00    -0.270 OA
ATOM     30  H   UNL     1       4.278  -2.276   0.749  0.00  0.00    +0.149 HD
BRANCH  27  31
ATOM     31  C   UNL     1       3.101  -3.654   1.856  0.00  0.00    +0.070 C 
ATOM     32  C   UNL     1       3.998  -4.741   2.451  0.00  0.00    +0.028 C 
BRANCH  31  34
ATOM     33  C   UNL     1       1.524  -3.111  -0.004  0.00  0.00    +0.005 C 
ATOM     34  C   UNL     1       2.517  -4.145   0.529  0.00  0.00    +0.018 C 
ENDBRANCH  31  34
ENDBRANCH  27  31
ENDBRANCH  21  28
ENDBRANCH  19  26
ENDBRANCH   1  19
TORSDOF 10
