REMARK  Name = ZINC12659842
REMARK  9 active torsions:
REMARK  status: ('A' for Active; 'I' for Inactive)
REMARK    1  A    between atoms: C_1  and  C_2
REMARK    2  A    between atoms: C_5  and  N_28
REMARK    3  A    between atoms: C_7  and  S_8
REMARK    4  A    between atoms: S_8  and  O_11
REMARK    5  A    between atoms: O_11  and  C_12
REMARK    6  A    between atoms: C_15  and  C_18
REMARK    7  A    between atoms: N_22  and  C_26
REMARK    8  A    between atoms: C_26  and  C_27
REMARK    9  A    between atoms: C_27  and  N_48
REMARK                            x       y       z     vdW  Elec       q    Type
REMARK                         _______ _______ _______ _____ _____    ______ ____
ROOT
ATOM      1  C   UNL     1       1.609   1.452   0.448  0.00  0.00    +0.157 A 
ATOM      2  C   UNL     1       2.058   2.234   1.506  0.00  0.00    +0.049 A 
ATOM      3  C   UNL     1       3.182   3.015   1.360  0.00  0.00    +0.011 A 
ATOM      4  C   UNL     1       3.867   3.029   0.139  0.00  0.00    -0.024 A 
ATOM      5  C   UNL     1       3.407   2.243  -0.926  0.00  0.00    +0.011 A 
ATOM      6  C   UNL     1       2.285   1.462  -0.766  0.00  0.00    +0.049 A 
ENDROOT
BRANCH   4   7
ATOM      7  C   UNL     1       5.064   3.864  -0.025  0.00  0.00    +0.028 C 
ATOM      8  C   UNL     1       5.407   4.755   0.939  0.00  0.00    +0.077 C 
ATOM      9  C   UNL     1       6.633   5.566   1.078  0.00  0.00    +0.258 C 
ATOM     10  O   UNL     1       7.537   5.504   0.265  0.00  0.00    -0.269 OA
ATOM     11  N   UNL     1       6.701   6.362   2.132  0.00  0.00    -0.257 N 
ATOM     12  C   UNL     1       5.698   6.427   3.031  0.00  0.00    +0.120 C 
ATOM     13  S   UNL     1       5.599   7.386   4.446  0.00  0.00    -0.027 S 
ATOM     14  S   UNL     1       4.495   5.277   2.385  0.00  0.00    -0.061 S 
BRANCH  11  15
ATOM     15  C   UNL     1       7.892   7.192   2.327  0.00  0.00    +0.095 C 
BRANCH  15  16
ATOM     16  C   UNL     1       7.693   8.541   1.633  0.00  0.00    -0.067 C 
BRANCH  16  19
ATOM     17  H   UNL     1       9.715   8.901   1.499  0.00  0.00    -0.090 HD
ATOM     18  H   UNL     1       8.780  10.271   1.379  0.00  0.00    -0.090 HD
ATOM     19  N   UNL     1       8.887   9.376   1.854  0.00  0.00    +0.379 N 
ATOM     20  H   UNL     1       9.002   9.542   2.860  0.00  0.00    -0.090 HD
ENDBRANCH  16  19
ENDBRANCH  15  16
ENDBRANCH  11  15
ENDBRANCH   4   7
BRANCH   1  21
ATOM     21  O   UNL     1       0.502   0.680   0.600  0.00  0.00    -0.342 OA
BRANCH  21  22
ATOM     22  S   UNL     1       0.793  -0.726   1.104  0.00  0.00    +0.151 S 
ATOM     23  O   UNL     1      -0.424  -1.452   1.007  0.00  0.00    -0.131 OA
ATOM     24  O   UNL     1       1.986  -1.150   0.459  0.00  0.00    -0.131 OA
BRANCH  22  31
ATOM     25  C   UNL     1      -1.268  -0.906   3.311  0.00  0.00    +0.046 C 
ATOM     26  C   UNL     1       0.156  -0.693   3.758  0.00  0.00    -0.022 A 
ATOM     27  C   UNL     1       0.450  -0.593   5.105  0.00  0.00    +0.007 A 
ATOM     28  C   UNL     1       1.755  -0.397   5.515  0.00  0.00    +0.033 A 
ATOM     29  C   UNL     1       2.767  -0.302   4.578  0.00  0.00    +0.128 A 
ATOM     30  C   UNL     1       2.474  -0.408   3.231  0.00  0.00    +0.063 A 
ATOM     31  C   UNL     1       1.167  -0.598   2.821  0.00  0.00    +0.133 A 
BRANCH  29  32
ATOM     32  N   UNL     1       4.165  -0.093   5.017  0.00  0.00    +0.056 N 
ATOM     33  O   UNL     1       4.424  -0.005   6.204  0.00  0.00    -0.126 OA
ATOM     34  O   UNL     1       5.057  -0.009   4.191  0.00  0.00    -0.126 OA
ENDBRANCH  29  32
ENDBRANCH  22  31
ENDBRANCH  21  22
ENDBRANCH   1  21
TORSDOF 8
