REMARK  Name = ZINC38650253
REMARK  10 active torsions:
REMARK  status: ('A' for Active; 'I' for Inactive)
REMARK    1  A    between atoms: C_1  and  O_2
REMARK    2  A    between atoms: O_2  and  C_3
REMARK    3  A    between atoms: C_7  and  C_9
REMARK    4  A    between atoms: C_14  and  O_23
REMARK    5  A    between atoms: C_18  and  N_22
REMARK    6  A    between atoms: C_19  and  C_20
REMARK    7  A    between atoms: O_23  and  C_24
REMARK    8  A    between atoms: C_24  and  C_26
REMARK    9  A    between atoms: C_26  and  O_27
REMARK   10  A    between atoms: O_27  and  C_28
REMARK                            x       y       z     vdW  Elec       q    Type
REMARK                         _______ _______ _______ _____ _____    ______ ____
ROOT
ATOM      1  C   UNL     1      -2.580  -4.207   0.052  0.00  0.00    +0.098 C 
ATOM      2  C   UNL     1      -3.300  -4.667  -1.188  0.00  0.00    +0.008 A 
ATOM      3  C   UNL     1      -2.678  -4.555  -2.418  0.00  0.00    +0.012 A 
ATOM      4  C   UNL     1      -3.323  -4.972  -3.565  0.00  0.00    +0.047 A 
ATOM      5  C   UNL     1      -4.602  -5.505  -3.486  0.00  0.00    +0.135 A 
ATOM      6  C   UNL     1      -5.228  -5.619  -2.256  0.00  0.00    +0.093 A 
ATOM      7  C   UNL     1      -4.578  -5.198  -1.103  0.00  0.00    +0.138 A 
ATOM      8  O   UNL     1      -5.204  -5.316   0.093  0.00  0.00    -0.441 OA
ATOM      9  C   UNL     1      -4.488  -5.291   1.230  0.00  0.00    +0.199 C 
ATOM     10  C   UNL     1      -3.240  -4.777   1.275  0.00  0.00    +0.098 C 
ENDROOT
BRANCH   1  15
ATOM     11  C   UNL     1      -1.472  -0.596   0.189  0.00  0.00    +0.120 A 
ATOM     12  C   UNL     1      -2.692   0.063   0.249  0.00  0.00    +0.045 A 
ATOM     13  C   UNL     1      -3.868  -0.662   0.244  0.00  0.00    +0.004 A 
ATOM     14  C   UNL     1      -3.831  -2.043   0.180  0.00  0.00    +0.005 A 
ATOM     15  C   UNL     1      -2.617  -2.701   0.121  0.00  0.00    -0.031 A 
ATOM     16  C   UNL     1      -1.438  -1.981   0.120  0.00  0.00    +0.050 A 
BRANCH  11  18
ATOM     17  C   UNL     1      -0.426   1.537   0.266  0.00  0.00    +0.277 C 
ATOM     18  O   UNL     1      -0.314   0.114   0.193  0.00  0.00    -0.495 OA
ENDBRANCH  11  18
ENDBRANCH   1  15
BRANCH   9  19
ATOM     19  N   UNL     1      -5.043  -5.800   2.378  0.00  0.00    -0.328 N 
ATOM     20  H   UNL     1      -5.939  -6.171   2.360  0.00  0.00    +0.145 HD
ATOM     21  H   UNL     1      -4.538  -5.789   3.206  0.00  0.00    +0.145 HD
ENDBRANCH   9  19
BRANCH  10  22
ATOM     22  C   UNL     1      -2.530  -4.780   2.519  0.00  0.00    +0.101 C 
ATOM     23  N   UNL     1      -1.967  -4.782   3.506  0.00  0.00    -0.191 NA
ENDBRANCH  10  22
BRANCH   5  24
ATOM     24  O   UNL     1      -5.239  -5.916  -4.615  0.00  0.00    -0.423 OA
BRANCH  24  25
ATOM     25  C   UNL     1      -6.299  -5.206  -5.034  0.00  0.00    +0.350 C 
ATOM     26  O   UNL     1      -6.596  -4.177  -4.475  0.00  0.00    -0.247 OA
BRANCH  25  27
ATOM     27  C   UNL     1      -7.117  -5.692  -6.203  0.00  0.00    +0.349 C 
BRANCH  27  28
ATOM     28  O   UNL     1      -8.181  -4.772  -6.455  0.00  0.00    -0.481 OA
BRANCH  28  29
ATOM     29  C   UNL     1      -9.019  -5.065  -7.484  0.00  0.00    +0.123 A 
ATOM     30  C   UNL     1      -8.824  -6.217  -8.232  0.00  0.00    +0.046 A 
ATOM     31  C   UNL     1      -9.677  -6.513  -9.278  0.00  0.00    +0.005 A 
ATOM     32  C   UNL     1     -10.724  -5.663  -9.580  0.00  0.00    +0.020 A 
ATOM     33  C   UNL     1     -10.921  -4.513  -8.835  0.00  0.00    +0.044 A 
ATOM     34  C   UNL     1     -10.073  -4.215  -7.784  0.00  0.00    +0.065 A 
ATOM     35 CL   UNL     1     -12.237  -3.447  -9.217  0.00  0.00    -0.083 Cl
ENDBRANCH  28  29
ENDBRANCH  27  28
ENDBRANCH  25  27
ENDBRANCH  24  25
ENDBRANCH   5  24
TORSDOF 9
