REMARK  Name = ZINC40384696
REMARK  5 active torsions:
REMARK  status: ('A' for Active; 'I' for Inactive)
REMARK    1  A    between atoms: C_1  and  C_2
REMARK    2  A    between atoms: C_2  and  C_3
REMARK    3  A    between atoms: C_3  and  C_5
REMARK    4  A    between atoms: C_3  and  N_6
REMARK    5  A    between atoms: C_7  and  C_9
REMARK                            x       y       z     vdW  Elec       q    Type
REMARK                         _______ _______ _______ _____ _____    ______ ____
ROOT
ATOM      1  C   UNL     1       4.314   0.445   2.231  0.00  0.00    +0.101 C 
ATOM      2  C   UNL     1       5.097  -0.573   1.404  0.00  0.00    +0.051 C 
ATOM      3  C   UNL     1       5.061  -1.902   2.114  0.00  0.00    -0.026 A 
ATOM      4  C   UNL     1       5.133  -3.071   1.379  0.00  0.00    +0.005 A 
ATOM      5  C   UNL     1       5.091  -4.295   2.020  0.00  0.00    +0.000 A 
ATOM      6  C   UNL     1       4.977  -4.353   3.397  0.00  0.00    +0.002 A 
ATOM      7  C   UNL     1       4.909  -3.188   4.135  0.00  0.00    +0.023 A 
ATOM      8  C   UNL     1       4.956  -1.954   3.492  0.00  0.00    +0.033 A 
ATOM      9  N   UNL     1       4.910  -0.787   4.274  0.00  0.00    -0.323 N 
ATOM     10  C   UNL     1       4.893   0.521   3.647  0.00  0.00    +0.103 C 
ATOM     11  C   UNL     1       4.101   1.553   4.433  0.00  0.00    +0.131 C 
ATOM     12  N   UNL     1       4.159   1.342   5.866  0.00  0.00    -0.296 N 
ATOM     13  C   UNL     1       4.079   0.021   6.466  0.00  0.00    +0.127 C 
ATOM     14  C   UNL     1       4.939  -0.973   5.723  0.00  0.00    +0.124 C 
ATOM     15  C   UNL     1       4.296   2.442   6.696  0.00  0.00    +0.218 A 
ATOM     16  N   UNL     1       4.364   3.651   6.160  0.00  0.00    -0.223 NA
ATOM     17  C   UNL     1       4.495   4.723   6.924  0.00  0.00    +0.116 A 
ATOM     18  C   UNL     1       4.559   4.568   8.300  0.00  0.00    +0.039 A 
ATOM     19  C   UNL     1       4.485   3.289   8.827  0.00  0.00    +0.116 A 
ATOM     20  N   UNL     1       4.349   2.260   8.007  0.00  0.00    -0.223 NA
ENDROOT
BRANCH   1  22
ATOM     21  N   UNL     1       2.148  -0.104   1.172  0.00  0.00    -0.312 N 
ATOM     22  C   UNL     1       2.869   0.026   2.303  0.00  0.00    +0.218 C 
ATOM     23  O   UNL     1       2.354  -0.193   3.379  0.00  0.00    -0.275 OA
ATOM     24  H   UNL     1       2.559   0.072   0.311  0.00  0.00    +0.149 HD
BRANCH  21  25
ATOM     25  C   UNL     1       0.742  -0.511   1.242  0.00  0.00    +0.070 C 
ATOM     26  C   UNL     1       0.655  -2.037   1.299  0.00  0.00    +0.028 C 
BRANCH  25  28
ATOM     27  C   UNL     1      -0.019   1.526   0.010  0.00  0.00    +0.005 C 
ATOM     28  C   UNL     1       0.002  -0.004   0.002  0.00  0.00    +0.018 C 
ENDBRANCH  25  28
ENDBRANCH  21  25
ENDBRANCH   1  22
TORSDOF 3
