REMARK  Name = ZINC36350607
REMARK  7 active torsions:
REMARK  status: ('A' for Active; 'I' for Inactive)
REMARK    1  A    between atoms: C_7  and  C_11
REMARK    2  A    between atoms: C_11  and  C_12
REMARK    3  A    between atoms: C_12  and  C_13
REMARK    4  A    between atoms: N_15  and  C_16
REMARK    5  A    between atoms: C_16  and  C_17
REMARK    6  A    between atoms: C_17  and  C_19
REMARK    7  A    between atoms: C_17  and  N_26
REMARK                            x       y       z     vdW  Elec       q    Type
REMARK                         _______ _______ _______ _____ _____    ______ ____
ROOT
ATOM      1  C   UNL     1      -0.386  -4.846  -1.665  0.00  0.00    +0.213 C 
ATOM      2  O   UNL     1      -0.676  -5.292  -0.575  0.00  0.00    -0.276 OA
ATOM      3  N   UNL     1      -1.004  -5.311  -2.769  0.00  0.00    -0.317 N 
ATOM      4  H   UNL     1      -0.772  -4.954  -3.641  0.00  0.00    +0.149 HD
ENDROOT
BRANCH   1   5
ATOM      5  C   UNL     1       0.664  -3.772  -1.784  0.00  0.00    +0.100 C 
BRANCH   5   6
ATOM      6  C   UNL     1       1.202  -3.428  -0.394  0.00  0.00    +0.046 C 
BRANCH   6  13
ATOM      7  C   UNL     1       0.996   1.250  -0.607  0.00  0.00    +0.001 A 
ATOM      8  C   UNL     1       2.247   1.843  -0.715  0.00  0.00    +0.002 A 
ATOM      9  C   UNL     1       3.388   1.072  -0.751  0.00  0.00    +0.026 A 
ATOM     10  C   UNL     1       3.289  -0.314  -0.678  0.00  0.00    +0.047 A 
ATOM     11  C   UNL     1       2.019  -0.909  -0.568  0.00  0.00    +0.003 A 
ATOM     12  C   UNL     1       0.875  -0.108  -0.534  0.00  0.00    +0.010 A 
ATOM     13  C   UNL     1       2.252  -2.354  -0.514  0.00  0.00    -0.022 A 
ATOM     14  C   UNL     1       3.580  -2.540  -0.590  0.00  0.00    +0.087 A 
ATOM     15  N   UNL     1       4.215  -1.332  -0.689  0.00  0.00    -0.360 N 
ATOM     16  H   UNL     1       5.175  -1.212  -0.756  0.00  0.00    +0.165 HD
ENDBRANCH   6  13
ENDBRANCH   5   6
ENDBRANCH   1   5
BRANCH   3  17
ATOM     17  C   UNL     1      -2.025  -6.355  -2.653  0.00  0.00    +0.093 C 
BRANCH  17  18
ATOM     18  C   UNL     1      -2.651  -6.611  -4.025  0.00  0.00    -0.019 C 
BRANCH  18  19
ATOM     19  C   UNL     1      -1.610  -7.182  -4.953  0.00  0.00    -0.041 A 
ATOM     20  C   UNL     1      -0.899  -6.346  -5.794  0.00  0.00    +0.003 A 
ATOM     21  C   UNL     1       0.055  -6.869  -6.645  0.00  0.00    +0.000 A 
ATOM     22  C   UNL     1       0.300  -8.230  -6.657  0.00  0.00    +0.001 A 
ATOM     23  C   UNL     1      -0.409  -9.067  -5.817  0.00  0.00    +0.020 A 
ATOM     24  C   UNL     1      -1.361  -8.543  -4.960  0.00  0.00    +0.043 A 
ATOM     25 CL   UNL     1      -2.248  -9.593  -3.900  0.00  0.00    -0.083 Cl
ENDBRANCH  18  19
BRANCH  18  26
ATOM     26  N   UNL     1      -3.157  -5.347  -4.576  0.00  0.00    +0.385 N 
ATOM     27  C   UNL     1      -3.860  -5.593  -5.861  0.00  0.00    -0.078 C 
ATOM     28  C   UNL     1      -4.779  -4.354  -6.006  0.00  0.00    -0.020 C 
ATOM     29  C   UNL     1      -5.234  -4.090  -4.553  0.00  0.00    -0.020 C 
ATOM     30  C   UNL     1      -4.170  -4.765  -3.668  0.00  0.00    -0.078 C 
ATOM     31  H   UNL     1      -2.397  -4.697  -4.713  0.00  0.00    -0.081 HD
ENDBRANCH  18  26
ENDBRANCH  17  18
ENDBRANCH   3  17
TORSDOF 7
