REMARK  Name = ZINC21225109
REMARK  6 active torsions:
REMARK  status: ('A' for Active; 'I' for Inactive)
REMARK    1  A    between atoms: C_1  and  C_2
REMARK    2  A    between atoms: C_2  and  C_3
REMARK    3  A    between atoms: C_2  and  O_4
REMARK    4  A    between atoms: O_4  and  C_5
REMARK    5  A    between atoms: C_8  and  C_11
REMARK    6  A    between atoms: C_16  and  C_22
REMARK                            x       y       z     vdW  Elec       q    Type
REMARK                         _______ _______ _______ _____ _____    ______ ____
ROOT
ATOM      1  C   UNL     1      -4.066   0.525  -1.087  0.00  0.00    +0.032 C 
ATOM      2  C   UNL     1      -4.785   1.121  -2.299  0.00  0.00    +0.059 C 
ATOM      3  C   UNL     1      -6.123   0.447  -2.476  0.00  0.00    +0.018 C 
ATOM      4  C   UNL     1      -6.804  -0.029  -1.413  0.00  0.00    +0.020 C 
ATOM      5  C   UNL     1      -8.145  -0.696  -1.613  0.00  0.00    +0.063 C 
ATOM      6  C   UNL     1      -8.884  -0.013  -2.765  0.00  0.00    +0.109 C 
ATOM      7  C   UNL     1      -7.951   0.119  -3.942  0.00  0.00    +0.218 C 
ATOM      8  O   UNL     1      -8.386   0.038  -5.071  0.00  0.00    -0.275 OA
ATOM      9  N   UNL     1      -6.638   0.326  -3.742  0.00  0.00    -0.289 N 
ATOM     10  C   UNL     1      -6.292   0.078  -0.109  0.00  0.00    +0.162 C 
ATOM     11  O   UNL     1      -6.940  -0.350   0.825  0.00  0.00    -0.292 OA
ATOM     12  C   UNL     1      -4.952   0.714   0.149  0.00  0.00    +0.088 C 
ATOM     13  H   UNL     1      -5.973   0.398  -4.615  0.00  0.00    +0.155 HD
ENDROOT
BRANCH   5  14
ATOM     14  C   UNL     1      -7.938  -2.152  -1.942  0.00  0.00    -0.032 A 
ATOM     15  C   UNL     1      -7.119  -2.512  -2.969  0.00  0.00    +0.005 A 
ATOM     16  C   UNL     1      -6.910  -3.853  -3.283  0.00  0.00    +0.001 A 
ATOM     17  C   UNL     1      -7.528  -4.842  -2.581  0.00  0.00    +0.008 A 
ATOM     18  C   UNL     1      -8.385  -4.509  -1.518  0.00  0.00    -0.018 A 
ATOM     19  C   UNL     1      -8.592  -3.144  -1.194  0.00  0.00    -0.014 A 
ATOM     20  C   UNL     1      -9.450  -2.811  -0.132  0.00  0.00    +0.009 A 
ATOM     21  C   UNL     1     -10.068  -3.800   0.570  0.00  0.00    +0.001 A 
ATOM     22  C   UNL     1      -9.864  -5.142   0.252  0.00  0.00    +0.001 A 
ATOM     23  C   UNL     1      -9.041  -5.502  -0.771  0.00  0.00    +0.008 A 
ENDBRANCH   5  14
BRANCH   1  27
ATOM     24  C   UNL     1      -0.338   2.532  -0.506  0.00  0.00    +0.121 A 
ATOM     25  C   UNL     1      -0.362   1.166  -0.745  0.00  0.00    +0.046 A 
ATOM     26  C   UNL     1      -1.569   0.518  -0.929  0.00  0.00    +0.007 A 
ATOM     27  C   UNL     1      -2.752   1.232  -0.880  0.00  0.00    -0.043 A 
ATOM     28  C   UNL     1      -2.731   2.593  -0.636  0.00  0.00    +0.007 A 
ATOM     29  C   UNL     1      -1.527   3.245  -0.452  0.00  0.00    +0.046 A 
BRANCH  24  30
ATOM     30  O   UNL     1       0.847   3.171  -0.325  0.00  0.00    -0.489 OA
BRANCH  30  32
ATOM     31  C   UNL     1       2.518   2.092  -1.697  0.00  0.00    +0.051 C 
ATOM     32  C   UNL     1       2.021   2.358  -0.275  0.00  0.00    +0.167 C 
ATOM     33  C   UNL     1       3.111   3.083   0.518  0.00  0.00    +0.051 C 
ENDBRANCH  30  32
ENDBRANCH  24  30
ENDBRANCH   1  27
TORSDOF 4
