REMARK  Name = ZINC12602549
REMARK  7 active torsions:
REMARK  status: ('A' for Active; 'I' for Inactive)
REMARK    1  A    between atoms: C_4  and  C_7
REMARK    2  A    between atoms: C_7  and  C_8
REMARK    3  A    between atoms: N_11  and  C_14
REMARK    4  A    between atoms: C_14  and  C_15
REMARK    5  A    between atoms: C_24  and  C_26
REMARK    6  A    between atoms: C_26  and  N_27
REMARK    7  A    between atoms: N_30  and  C_31
REMARK                            x       y       z     vdW  Elec       q    Type
REMARK                         _______ _______ _______ _____ _____    ______ ____
ROOT
ATOM      1  C   UNL     1       8.107  -1.595   4.663  0.00  0.00    -0.010 C 
ATOM      2  C   UNL     1       9.120  -0.707   3.934  0.00  0.00    +0.086 C 
ATOM      3  N   UNL     1      10.262  -0.444   4.819  0.00  0.00    -0.298 NA
ATOM      4  C   UNL     1      10.956  -1.691   5.171  0.00  0.00    +0.085 C 
ATOM      5  C   UNL     1       9.995  -2.607   5.935  0.00  0.00    +0.019 C 
ATOM      6  C   UNL     1       8.637  -1.905   6.068  0.00  0.00    -0.006 C 
ATOM      7  C   UNL     1       8.846  -0.582   6.816  0.00  0.00    +0.024 C 
ATOM      8  C   UNL     1       9.840   0.282   6.024  0.00  0.00    +0.074 C 
ENDROOT
BRANCH   1   9
ATOM      9  C   UNL     1       6.768  -0.863   4.771  0.00  0.00    -0.074 C 
BRANCH   9  13
ATOM     10  C   UNL     1       4.124  -0.918   1.429  0.00  0.00    -0.010 C 
ATOM     11  C   UNL     1       4.440   0.413   2.118  0.00  0.00    -0.015 C 
ATOM     12  C   UNL     1       4.984   0.139   3.522  0.00  0.00    -0.079 C 
ATOM     13  N   UNL     1       6.207  -0.667   3.427  0.00  0.00    +0.380 N 
ATOM     14  C   UNL     1       5.898  -1.974   2.833  0.00  0.00    -0.079 C 
ATOM     15  C   UNL     1       5.389  -1.780   1.403  0.00  0.00    -0.015 C 
ATOM     16  H   UNL     1       6.881  -0.187   2.850  0.00  0.00    -0.082 HD
BRANCH  10  17
ATOM     17  C   UNL     1       3.655  -0.654  -0.003  0.00  0.00    +0.038 C 
BRANCH  17  21
ATOM     18  C   UNL     1      -0.060   1.454   0.079  0.00  0.00    +0.000 A 
ATOM     19  C   UNL     1       1.132   2.154   0.065  0.00  0.00    +0.000 A 
ATOM     20  C   UNL     1       2.334   1.472   0.038  0.00  0.00    +0.003 A 
ATOM     21  C   UNL     1       2.345   0.089   0.026  0.00  0.00    -0.047 A 
ATOM     22  C   UNL     1       1.153  -0.611   0.041  0.00  0.00    +0.003 A 
ATOM     23  C   UNL     1      -0.049   0.071   0.066  0.00  0.00    +0.000 A 
ENDBRANCH  17  21
ENDBRANCH  10  17
ENDBRANCH   9  13
ENDBRANCH   1   9
BRANCH   8  24
ATOM     24  C   UNL     1       9.169   1.596   5.620  0.00  0.00    +0.124 C 
BRANCH  24  25
ATOM     25  N   UNL     1      10.076   2.365   4.764  0.00  0.00    -0.298 N 
ATOM     26  C   UNL     1       9.695   3.565   4.284  0.00  0.00    +0.304 C 
ATOM     27  O   UNL     1       8.598   4.010   4.562  0.00  0.00    -0.253 OA
ATOM     28  N   UNL     1      10.529   4.271   3.496  0.00  0.00    -0.269 N 
ATOM     29  H   UNL     1      10.951   2.009   4.542  0.00  0.00    +0.150 HD
ATOM     30  H   UNL     1      11.432   3.954   3.338  0.00  0.00    +0.156 HD
BRANCH  28  31
ATOM     31  C   UNL     1      10.090   5.470   2.902  0.00  0.00    +0.042 A 
ATOM     32  C   UNL     1      10.999   6.452   2.539  0.00  0.00    +0.031 A 
ATOM     33  C   UNL     1      10.541   7.593   1.969  0.00  0.00    +0.047 A 
ATOM     34  S   UNL     1       8.779   7.308   1.929  0.00  0.00    -0.103 S 
ATOM     35  C   UNL     1       8.768   5.683   2.669  0.00  0.00    +0.068 A 
ENDBRANCH  28  31
ENDBRANCH  24  25
ENDBRANCH   8  24
TORSDOF 7
