REMARK  Name = ZINC34984201
REMARK  10 active torsions:
REMARK  status: ('A' for Active; 'I' for Inactive)
REMARK    1  A    between atoms: C_1  and  C_2
REMARK    2  A    between atoms: C_8  and  C_31
REMARK    3  A    between atoms: C_9  and  C_11
REMARK    4  A    between atoms: N_13  and  C_14
REMARK    5  A    between atoms: C_15  and  C_23
REMARK    6  A    between atoms: N_25  and  C_26
REMARK    7  A    between atoms: C_26  and  C_27
REMARK    8  A    between atoms: C_27  and  C_28
REMARK    9  A    between atoms: C_28  and  O_29
REMARK   10  A    between atoms: O_29  and  C_30
REMARK                            x       y       z     vdW  Elec       q    Type
REMARK                         _______ _______ _______ _____ _____    ______ ____
ROOT
ATOM      1  C   UNL     1       0.125  -7.985   2.090  0.00  0.00    +0.085 A 
ATOM      2  C   UNL     1       0.145  -9.234   1.489  0.00  0.00    +0.069 A 
ATOM      3  C   UNL     1       0.164 -10.392   2.365  0.00  0.00    -0.023 A 
ATOM      4  C   UNL     1       0.160 -10.089   3.681  0.00  0.00    -0.004 A 
ATOM      5  S   UNL     1       0.139  -8.321   3.735  0.00  0.00    -0.077 S 
ATOM      6  C   UNL     1       0.175 -11.054   4.826  0.00  0.00    +0.043 C 
ATOM      7  C   UNL     1      -0.184 -12.447   4.288  0.00  0.00    +0.005 C 
ATOM      8  C   UNL     1       0.656 -12.727   3.039  0.00  0.00    +0.005 C 
ATOM      9  C   UNL     1       0.189 -11.836   1.886  0.00  0.00    +0.037 C 
ENDROOT
BRANCH   1  12
ATOM     10  C   UNL     1       0.092  -5.622   2.221  0.00  0.00    +0.284 C 
ATOM     11  O   UNL     1       0.099  -5.699   3.435  0.00  0.00    -0.266 OA
ATOM     12  N   UNL     1       0.104  -6.744   1.474  0.00  0.00    -0.273 N 
ATOM     13  H   UNL     1       0.098  -6.683   0.506  0.00  0.00    +0.156 HD
BRANCH  10  22
ATOM     14  C   UNL     1      -0.018   1.503   0.010  0.00  0.00    +0.044 C 
ATOM     15  C   UNL     1       0.002  -0.004   0.002  0.00  0.00    -0.050 A 
ATOM     16  C   UNL     1       0.006  -0.687  -1.207  0.00  0.00    +0.007 A 
ATOM     17  C   UNL     1       0.025  -2.064  -1.238  0.00  0.00    +0.047 A 
ATOM     18  C   UNL     1       0.041  -2.783  -0.048  0.00  0.00    +0.136 A 
ATOM     19  C   UNL     1       0.037  -2.086   1.175  0.00  0.00    +0.024 A 
ATOM     20  C   UNL     1       0.023  -0.689   1.184  0.00  0.00    +0.015 A 
ATOM     21  C   UNL     1       0.056  -3.112   2.216  0.00  0.00    +0.008 A 
ATOM     22  C   UNL     1       0.070  -4.306   1.568  0.00  0.00    +0.194 A 
ATOM     23  O   UNL     1       0.060  -4.100   0.235  0.00  0.00    -0.450 OA
ATOM     24  C   UNL     1       0.061  -2.890   3.707  0.00  0.00    +0.048 C 
ENDBRANCH  10  22
ENDBRANCH   1  12
BRANCH   2  25
ATOM     25  C   UNL     1       0.146  -9.380   0.030  0.00  0.00    +0.247 C 
ATOM     26  O   UNL     1       1.200  -9.424  -0.577  0.00  0.00    -0.270 OA
ATOM     27  N   UNL     1      -1.021  -9.466  -0.640  0.00  0.00    -0.311 N 
ATOM     28  H   UNL     1      -1.861  -9.431  -0.156  0.00  0.00    +0.149 HD
BRANCH  27  29
ATOM     29  C   UNL     1      -1.020  -9.612  -2.097  0.00  0.00    +0.107 C 
BRANCH  29  30
ATOM     30  C   UNL     1      -2.462  -9.686  -2.603  0.00  0.00    +0.047 C 
BRANCH  30  31
ATOM     31  C   UNL     1      -2.461  -9.838  -4.126  0.00  0.00    +0.161 C 
BRANCH  31  32
ATOM     32  O   UNL     1      -3.808  -9.907  -4.598  0.00  0.00    -0.383 OA
ATOM     33  C   UNL     1      -3.920 -10.051  -6.016  0.00  0.00    +0.193 C 
ENDBRANCH  31  32
ENDBRANCH  30  31
ENDBRANCH  29  30
ENDBRANCH  27  29
ENDBRANCH   2  25
TORSDOF 7
