REMARK  Name = ZINC35430499
REMARK  4 active torsions:
REMARK  status: ('A' for Active; 'I' for Inactive)
REMARK    1  A    between atoms: C_3  and  O_9
REMARK    2  A    between atoms: O_9  and  C_10
REMARK    3  A    between atoms: C_11  and  C_18
REMARK    4  A    between atoms: C_18  and  N_19
REMARK                            x       y       z     vdW  Elec       q    Type
REMARK                         _______ _______ _______ _____ _____    ______ ____
ROOT
ATOM      1  C   UNL     1       3.484   3.463  -0.118  0.00  0.00    +0.241 A 
ATOM      2  C   UNL     1       4.536   4.296  -0.241  0.00  0.00    +0.070 A 
ATOM      3  N   UNL     1       4.038   5.599  -0.309  0.00  0.00    -0.296 N 
ATOM      4  C   UNL     1       4.526   6.881  -0.432  0.00  0.00    +0.100 A 
ATOM      5  C   UNL     1       3.700   7.926  -0.462  0.00  0.00    +0.067 A 
ATOM      6  S   UNL     1       2.104   7.138  -0.312  0.00  0.00    -0.058 S 
ATOM      7  C   UNL     1       2.679   5.458  -0.221  0.00  0.00    +0.181 A 
ATOM      8  N   UNL     1       2.361   4.199  -0.115  0.00  0.00    -0.186 NA
ENDROOT
BRANCH   1   9
ATOM      9  O   UNL     1       3.548   2.107  -0.021  0.00  0.00    -0.435 OA
BRANCH   9  12
ATOM     10  C   UNL     1       0.007   1.347  -0.368  0.00  0.00    +0.042 A 
ATOM     11  C   UNL     1       1.192   2.058  -0.341  0.00  0.00    +0.050 A 
ATOM     12  C   UNL     1       2.382   1.409  -0.048  0.00  0.00    +0.144 A 
ATOM     13  C   UNL     1       2.381   0.047   0.218  0.00  0.00    +0.063 A 
ATOM     14  C   UNL     1       1.195  -0.661   0.190  0.00  0.00    +0.057 A 
ATOM     15  C   UNL     1       0.007  -0.011  -0.103  0.00  0.00    +0.125 A 
ATOM     16  F   UNL     1      -1.152  -0.705  -0.130  0.00  0.00    -0.205 F 
ATOM     17 BR   UNL     1       4.003  -0.841   0.617  0.00  0.00    -0.046 Br
ENDBRANCH   9  12
ENDBRANCH   1   9
BRANCH   2  18
ATOM     18  C   UNL     1       5.988   3.895  -0.294  0.00  0.00    -0.026 C 
BRANCH  18  19
ATOM     19  N   UNL     1       6.538   3.866   1.067  0.00  0.00    +0.382 N 
ATOM     20  H   UNL     1       6.025   3.199   1.624  0.00  0.00    -0.090 HD
ATOM     21  H   UNL     1       7.510   3.598   1.032  0.00  0.00    -0.090 HD
ATOM     22  H   UNL     1       6.458   4.783   1.482  0.00  0.00    -0.090 HD
ENDBRANCH  18  19
ENDBRANCH   2  18
TORSDOF 4
