REMARK  Name = ZINC00397785
REMARK  4 active torsions:
REMARK  status: ('A' for Active; 'I' for Inactive)
REMARK    1  A    between atoms: C_1  and  C_2
REMARK    2  A    between atoms: C_11  and  N_12
REMARK    3  A    between atoms: N_12  and  S_13
REMARK    4  A    between atoms: S_13  and  C_16
REMARK                            x       y       z     vdW  Elec       q    Type
REMARK                         _______ _______ _______ _____ _____    ______ ____
ROOT
ATOM      1  C   UNL     1       0.954   7.533   0.594  0.00  0.00    +0.046 C 
ATOM      2  C   UNL     1       1.055   6.054   0.322  0.00  0.00    -0.027 A 
ATOM      3  C   UNL     1       2.304   5.441   0.304  0.00  0.00    +0.006 A 
ATOM      4  C   UNL     1       2.429   4.108   0.061  0.00  0.00    +0.009 A 
ATOM      5  C   UNL     1       1.285   3.327  -0.178  0.00  0.00    -0.016 A 
ATOM      6  C   UNL     1       1.384   1.948  -0.433  0.00  0.00    +0.008 A 
ATOM      7  C   UNL     1       0.256   1.222  -0.660  0.00  0.00    +0.001 A 
ATOM      8  C   UNL     1      -1.000   1.827  -0.651  0.00  0.00    +0.001 A 
ATOM      9  C   UNL     1      -1.134   3.159  -0.402  0.00  0.00    +0.010 A 
ATOM     10  C   UNL     1       0.008   3.939  -0.164  0.00  0.00    +0.005 A 
ATOM     11  C   UNL     1      -0.092   5.324   0.092  0.00  0.00    +0.059 A 
ENDROOT
BRANCH  11  12
ATOM     12  N   UNL     1      -1.338   5.948   0.111  0.00  0.00    -0.215 N 
ATOM     13  H   UNL     1      -1.576   6.576  -0.588  0.00  0.00    +0.174 HD
BRANCH  12  14
ATOM     14  S   UNL     1      -2.411   5.615   1.327  0.00  0.00    +0.072 S 
ATOM     15  O   UNL     1      -3.577   6.383   1.061  0.00  0.00    -0.150 OA
ATOM     16  O   UNL     1      -2.445   4.202   1.464  0.00  0.00    -0.150 OA
BRANCH  14  17
ATOM     17  C   UNL     1      -1.721   6.250   2.819  0.00  0.00    +0.108 A 
ATOM     18  C   UNL     1      -1.006   5.416   3.659  0.00  0.00    +0.029 A 
ATOM     19  C   UNL     1      -0.460   5.915   4.827  0.00  0.00    +0.002 A 
ATOM     20  C   UNL     1      -0.638   7.245   5.160  0.00  0.00    +0.000 A 
ATOM     21  C   UNL     1      -1.358   8.077   4.323  0.00  0.00    +0.002 A 
ATOM     22  C   UNL     1      -1.899   7.579   3.152  0.00  0.00    +0.029 A 
ENDBRANCH  14  17
ENDBRANCH  12  14
ENDBRANCH  11  12
TORSDOF 3
