REMARK  Name = ZINC35034983
REMARK  10 active torsions:
REMARK  status: ('A' for Active; 'I' for Inactive)
REMARK    1  A    between atoms: C_1  and  C_2
REMARK    2  A    between atoms: C_2  and  C_4
REMARK    3  A    between atoms: C_2  and  N_17
REMARK    4  A    between atoms: N_14  and  C_15
REMARK    5  A    between atoms: N_17  and  C_18
REMARK    6  A    between atoms: C_18  and  C_19
REMARK    7  A    between atoms: C_19  and  N_20
REMARK    8  A    between atoms: N_20  and  C_21
REMARK    9  A    between atoms: N_20  and  C_22
REMARK   10  A    between atoms: N_25  and  C_26
REMARK                            x       y       z     vdW  Elec       q    Type
REMARK                         _______ _______ _______ _____ _____    ______ ____
ROOT
ATOM      1  N   UNL     1       1.097  -0.369   1.273  0.00  0.00    -0.278 N 
ATOM      2  C   UNL     1       2.169  -1.096   0.902  0.00  0.00    +0.303 C 
ATOM      3  O   UNL     1       2.349  -1.358  -0.272  0.00  0.00    -0.253 OA
ATOM      4  N   UNL     1       3.041  -1.534   1.831  0.00  0.00    -0.294 N 
ATOM      5  H   UNL     1       2.897  -1.325   2.768  0.00  0.00    +0.151 HD
ENDROOT
BRANCH   4   6
ATOM      6  C   UNL     1       4.206  -2.325   1.428  0.00  0.00    +0.037 C 
ATOM      7  C   UNL     1       3.738  -3.603   0.730  0.00  0.00    +0.029 C 
ATOM      8  C   UNL     1       4.955  -4.429   0.309  0.00  0.00    -0.008 C 
ATOM      9  C   UNL     1       5.776  -4.795   1.547  0.00  0.00    +0.007 C 
ATOM     10  C   UNL     1       6.244  -3.517   2.245  0.00  0.00    -0.008 C 
ATOM     11  C   UNL     1       5.027  -2.691   2.666  0.00  0.00    +0.029 C 
ATOM     12  C   UNL     1       7.109  -2.698   1.283  0.00  0.00    +0.007 C 
ATOM     13  C   UNL     1       6.287  -2.332   0.045  0.00  0.00    -0.008 C 
ATOM     14  C   UNL     1       5.819  -3.611  -0.652  0.00  0.00    +0.007 C 
ATOM     15  C   UNL     1       5.070  -1.506   0.467  0.00  0.00    +0.029 C 
ENDBRANCH   4   6
BRANCH   1  17
ATOM     16  C   UNL     1       0.194   1.635   0.199  0.00  0.00    +0.036 C 
ATOM     17  C   UNL     1       0.149   0.107   0.262  0.00  0.00    +0.141 C 
BRANCH  17  18
ATOM     18  C   UNL     1      -1.243  -0.340   0.629  0.00  0.00    +0.133 A 
ATOM     19  N   UNL     1      -2.063   0.539   1.120  0.00  0.00    -0.232 NA
ATOM     20  C   UNL     1      -3.330   0.210   1.472  0.00  0.00    +0.080 A 
ATOM     21  C   UNL     1      -4.214   1.153   1.999  0.00  0.00    +0.048 A 
ATOM     22  C   UNL     1      -5.493   0.769   2.342  0.00  0.00    +0.043 A 
ATOM     23  C   UNL     1      -5.912  -0.545   2.169  0.00  0.00    +0.021 A 
ATOM     24  C   UNL     1      -5.064  -1.486   1.655  0.00  0.00    +0.017 A 
ATOM     25  C   UNL     1      -3.766  -1.124   1.300  0.00  0.00    +0.065 A 
ATOM     26  C   UNL     1      -2.812  -2.094   0.742  0.00  0.00    +0.262 A 
ATOM     27  O   UNL     1      -3.123  -3.257   0.568  0.00  0.00    -0.267 OA
ATOM     28  N   UNL     1      -1.577  -1.641   0.424  0.00  0.00    -0.298 N 
ATOM     29  C   UNL     1      -0.589  -2.564  -0.140  0.00  0.00    +0.154 C 
ATOM     30 CL   UNL     1      -6.593   1.941   2.998  0.00  0.00    -0.083 Cl
ENDBRANCH  17  18
ENDBRANCH   1  17
BRANCH   1  31
ATOM     31  C   UNL     1       0.880  -0.053   2.687  0.00  0.00    +0.091 C 
BRANCH  31  32
ATOM     32  C   UNL     1       0.160  -1.221   3.365  0.00  0.00    -0.060 C 
BRANCH  32  33
ATOM     33  N   UNL     1      -0.169  -0.855   4.749  0.00  0.00    +0.377 N 
ATOM     34  C   UNL     1      -0.963  -1.927   5.363  0.00  0.00    -0.097 C 
ATOM     35  C   UNL     1       1.071  -0.665   5.514  0.00  0.00    -0.097 C 
ATOM     36  H   UNL     1      -0.701   0.002   4.753  0.00  0.00    -0.083 HD
ENDBRANCH  32  33
ENDBRANCH  31  32
ENDBRANCH   1  31
TORSDOF 6
