REMARK  Name = ZINC40135564
REMARK  6 active torsions:
REMARK  status: ('A' for Active; 'I' for Inactive)
REMARK    1  A    between atoms: C_1  and  C_2
REMARK    2  A    between atoms: C_4  and  N_26
REMARK    3  A    between atoms: C_6  and  S_9
REMARK    4  A    between atoms: C_7  and  C_8
REMARK    5  A    between atoms: S_9  and  N_12
REMARK    6  A    between atoms: C_16  and  C_17
REMARK                            x       y       z     vdW  Elec       q    Type
REMARK                         _______ _______ _______ _____ _____    ______ ____
ROOT
ATOM      1  S   UNL     1       0.124  -3.467   3.404  0.00  0.00    +0.061 S 
ATOM      2  O   UNL     1      -0.722  -2.991   4.441  0.00  0.00    -0.153 OA
ATOM      3  O   UNL     1       0.171  -4.837   3.027  0.00  0.00    -0.153 OA
ENDROOT
BRANCH   1   9
ATOM      4  C   UNL     1      -2.954  -2.595  -0.730  0.00  0.00    +0.044 C 
ATOM      5  C   UNL     1      -1.741  -2.206   0.076  0.00  0.00    -0.044 A 
ATOM      6  C   UNL     1      -0.960  -1.138  -0.323  0.00  0.00    +0.036 A 
ATOM      7  C   UNL     1       0.152  -0.781   0.416  0.00  0.00    +0.128 A 
ATOM      8  C   UNL     1       0.483  -1.492   1.554  0.00  0.00    +0.061 A 
ATOM      9  C   UNL     1      -0.298  -2.560   1.953  0.00  0.00    +0.111 A 
ATOM     10  C   UNL     1      -1.413  -2.914   1.217  0.00  0.00    -0.021 A 
ATOM     11  C   UNL     1      -2.268  -4.075   1.655  0.00  0.00    +0.046 C 
BRANCH   7  12
ATOM     12  N   UNL     1       0.989   0.363  -0.012  0.00  0.00    +0.056 N 
ATOM     13  O   UNL     1       0.700   0.984  -1.008  0.00  0.00    -0.126 OA
ATOM     14  O   UNL     1       1.962   0.675   0.634  0.00  0.00    -0.126 OA
ENDBRANCH   7  12
ENDBRANCH   1   9
BRANCH   1  15
ATOM     15  N   UNL     1       1.669  -3.037   3.817  0.00  0.00    -0.176 NA
ATOM     16  C   UNL     1       2.818  -3.684   3.171  0.00  0.00    +0.114 C 
ATOM     17  C   UNL     1       3.683  -2.605   2.507  0.00  0.00    +0.048 C 
ATOM     18  C   UNL     1       3.936  -1.506   3.516  0.00  0.00    -0.066 C 
ATOM     19  C   UNL     1       5.169  -1.100   3.783  0.00  0.00    +0.007 C 
ATOM     20  C   UNL     1       2.747  -0.883   4.213  0.00  0.00    +0.048 C 
ATOM     21  C   UNL     1       1.905  -2.001   4.830  0.00  0.00    +0.114 C 
BRANCH  19  22
ATOM     22  C   UNL     1       5.388   0.091   4.631  0.00  0.00    -0.022 A 
ATOM     23  C   UNL     1       4.518   1.179   4.548  0.00  0.00    +0.008 A 
ATOM     24  C   UNL     1       4.726   2.288   5.342  0.00  0.00    +0.003 A 
ATOM     25  C   UNL     1       5.795   2.324   6.220  0.00  0.00    +0.038 A 
ATOM     26  C   UNL     1       6.663   1.247   6.308  0.00  0.00    +0.124 A 
ATOM     27  C   UNL     1       6.461   0.128   5.521  0.00  0.00    +0.046 A 
ATOM     28  F   UNL     1       7.705   1.289   7.166  0.00  0.00    -0.205 F 
ENDBRANCH  19  22
ENDBRANCH   1  15
TORSDOF 4
