REMARK  Name = ZINC36582807
REMARK  20 active torsions:
REMARK  status: ('A' for Active; 'I' for Inactive)
REMARK    1  A    between atoms: C_1  and  C_2
REMARK    2  A    between atoms: C_2  and  C_3
REMARK    3  A    between atoms: C_3  and  C_4
REMARK    4  A    between atoms: C_4  and  C_5
REMARK    5  A    between atoms: C_5  and  C_7
REMARK    6  A    between atoms: C_5  and  C_9
REMARK    7  A    between atoms: C_7  and  C_8
REMARK    8  A    between atoms: N_11  and  C_12
REMARK    9  A    between atoms: N_11  and  C_36
REMARK   10  A    between atoms: C_12  and  C_14
REMARK   11  A    between atoms: C_12  and  C_22
REMARK   12  A    between atoms: C_17  and  O_20
REMARK   13  A    between atoms: O_20  and  C_21
REMARK   14  A    between atoms: N_24  and  C_25
REMARK   15  A    between atoms: C_25  and  S_26
REMARK   16  A    between atoms: S_26  and  C_29
REMARK   17  A    between atoms: C_32  and  C_35
REMARK   18  A    between atoms: C_36  and  C_37
REMARK   19  A    between atoms: C_36  and  C_38
REMARK   20  A    between atoms: C_36  and  C_39
REMARK                            x       y       z     vdW  Elec       q    Type
REMARK                         _______ _______ _______ _____ _____    ______ ____
ROOT
ATOM      1  C   UNL     1      -5.116  -6.204  -0.002  0.00  0.00    +0.193 C 
ENDROOT
BRANCH   1   2
ATOM      2  C   UNL     1      -5.495  -6.617  -1.401  0.00  0.00    -0.018 A 
ATOM      3  C   UNL     1      -6.108  -5.710  -2.246  0.00  0.00    +0.009 A 
ATOM      4  C   UNL     1      -6.457  -6.087  -3.528  0.00  0.00    +0.046 A 
ATOM      5  C   UNL     1      -6.192  -7.375  -3.969  0.00  0.00    +0.120 A 
ATOM      6  C   UNL     1      -5.577  -8.283  -3.119  0.00  0.00    +0.046 A 
ATOM      7  C   UNL     1      -5.225  -7.901  -1.839  0.00  0.00    +0.009 A 
BRANCH   5   8
ATOM      8  O   UNL     1      -6.535  -7.748  -5.230  0.00  0.00    -0.495 OA
ATOM      9  C   UNL     1      -6.232  -9.090  -5.615  0.00  0.00    +0.277 C 
ENDBRANCH   5   8
ENDBRANCH   1   2
BRANCH   1  10
ATOM     10  C   UNL     1      -6.043  -6.865   0.986  0.00  0.00    +0.239 C 
ATOM     11  O   UNL     1      -6.700  -6.187   1.747  0.00  0.00    -0.273 OA
ATOM     12  N   UNL     1      -6.141  -8.208   1.023  0.00  0.00    -0.294 N 
ATOM     13  H   UNL     1      -5.615  -8.750   0.414  0.00  0.00    +0.150 HD
BRANCH  12  14
ATOM     14  C   UNL     1      -7.043  -8.850   1.983  0.00  0.00    +0.278 C 
BRANCH  14  15
ATOM     15  S   UNL     1      -8.636  -9.188   1.184  0.00  0.00    +0.013 S 
ATOM     16  O   UNL     1      -9.500  -9.868   2.084  0.00  0.00    -0.168 OA
ATOM     17  O   UNL     1      -9.083  -8.039   0.479  0.00  0.00    -0.168 OA
BRANCH  15  18
ATOM     18  C   UNL     1      -8.271 -10.371  -0.070  0.00  0.00    +0.090 A 
ATOM     19  C   UNL     1      -7.921  -9.948  -1.338  0.00  0.00    +0.027 A 
ATOM     20  C   UNL     1      -7.635 -10.877  -2.322  0.00  0.00    +0.005 A 
ATOM     21  C   UNL     1      -7.699 -12.228  -2.037  0.00  0.00    -0.050 A 
ATOM     22  C   UNL     1      -8.049 -12.651  -0.768  0.00  0.00    +0.005 A 
ATOM     23  C   UNL     1      -8.331 -11.723   0.216  0.00  0.00    +0.027 A 
ATOM     24  C   UNL     1      -7.389 -13.239  -3.110  0.00  0.00    +0.044 C 
ENDBRANCH  15  18
ENDBRANCH  14  15
ENDBRANCH  12  14
ENDBRANCH   1  10
BRANCH   1  27
ATOM     25  C   UNL     1      -6.431  -4.154   0.050  0.00  0.00    +0.220 C 
ATOM     26  O   UNL     1      -7.419  -4.815  -0.193  0.00  0.00    -0.275 OA
ATOM     27  N   UNL     1      -5.224  -4.749   0.124  0.00  0.00    -0.281 N 
BRANCH  27  28
ATOM     28  C   UNL     1      -4.021  -3.940   0.331  0.00  0.00    +0.030 C 
ATOM     29  C   UNL     1      -4.063  -3.309   1.724  0.00  0.00    +0.031 C 
ATOM     30  C   UNL     1      -2.781  -4.829   0.210  0.00  0.00    +0.031 C 
ATOM     31  C   UNL     1      -3.961  -2.836  -0.727  0.00  0.00    +0.031 C 
ENDBRANCH  27  28
BRANCH  25  32
ATOM     32  C   UNL     1      -6.554  -2.668   0.269  0.00  0.00    +0.075 C 
BRANCH  32  33
ATOM     33  C   UNL     1      -7.623  -2.396   1.329  0.00  0.00    +0.009 C 
ATOM     34  C   UNL     1      -7.164  -2.962   2.674  0.00  0.00    +0.004 C 
ENDBRANCH  32  33
BRANCH  32  35
ATOM     35  C   UNL     1      -6.953  -1.991  -1.044  0.00  0.00    +0.013 C 
BRANCH  35  36
ATOM     36  C   UNL     1      -6.957  -0.473  -0.853  0.00  0.00    +0.000 C 
BRANCH  36  38
ATOM     37  C   UNL     1      -7.359   1.723  -1.975  0.00  0.00    +0.004 C 
ATOM     38  C   UNL     1      -7.356   0.205  -2.166  0.00  0.00    -0.003 C 
ENDBRANCH  36  38
ENDBRANCH  35  36
ENDBRANCH  32  35
ENDBRANCH  25  32
ENDBRANCH   1  27
TORSDOF 13
