REMARK  Name = ZINC14245761
REMARK  13 active torsions:
REMARK  status: ('A' for Active; 'I' for Inactive)
REMARK    1  A    between atoms: C_1  and  C_2
REMARK    2  A    between atoms: C_2  and  C_3
REMARK    3  A    between atoms: C_3  and  C_4
REMARK    4  A    between atoms: C_4  and  N_5
REMARK    5  A    between atoms: N_5  and  C_6
REMARK    6  A    between atoms: C_7  and  N_19
REMARK    7  A    between atoms: N_8  and  C_15
REMARK    8  A    between atoms: C_15  and  C_16
REMARK    9  A    between atoms: C_16  and  C_17
REMARK   10  A    between atoms: C_16  and  C_18
REMARK   11  A    between atoms: C_20  and  C_22
REMARK   12  A    between atoms: C_25  and  S_28
REMARK   13  A    between atoms: S_28  and  N_31
REMARK                            x       y       z     vdW  Elec       q    Type
REMARK                         _______ _______ _______ _____ _____    ______ ____
ROOT
ATOM      1  N   UNL     1       0.129  -2.341   2.558  0.00  0.00    -0.260 N 
ATOM      2  C   UNL     1      -0.053  -1.572   3.650  0.00  0.00    +0.251 C 
ATOM      3  O   UNL     1      -0.250  -2.089   4.733  0.00  0.00    -0.270 OA
ENDROOT
BRANCH   1   4
ATOM      4  C   UNL     1       0.427  -1.743   1.316  0.00  0.00    +0.140 A 
ATOM      5  C   UNL     1       1.573  -0.992   1.156  0.00  0.00    +0.127 A 
ATOM      6  N   UNL     1       1.837  -0.422  -0.067  0.00  0.00    -0.280 N 
ATOM      7  C   UNL     1       0.986  -0.590  -1.095  0.00  0.00    +0.331 A 
ATOM      8  O   UNL     1       1.234  -0.074  -2.167  0.00  0.00    -0.246 OA
ATOM      9  N   UNL     1      -0.134  -1.324  -0.959  0.00  0.00    -0.273 N 
ATOM     10  H   UNL     1      -0.746  -1.440  -1.741  0.00  0.00    +0.173 HD
ATOM     11  C   UNL     1      -0.439  -1.903   0.218  0.00  0.00    +0.277 A 
ATOM     12  O   UNL     1      -1.459  -2.563   0.331  0.00  0.00    -0.266 OA
BRANCH   5  13
ATOM     13  N   UNL     1       2.441  -0.815   2.207  0.00  0.00    -0.343 N 
ATOM     14  H   UNL     1       3.184  -0.197   2.124  0.00  0.00    +0.144 HD
ATOM     15  H   UNL     1       2.311  -1.309   3.032  0.00  0.00    +0.144 HD
ENDBRANCH   5  13
BRANCH   6  16
ATOM     16  C   UNL     1       3.051   0.378  -0.251  0.00  0.00    +0.131 C 
BRANCH  16  17
ATOM     17  C   UNL     1       4.194  -0.528  -0.711  0.00  0.00    +0.003 C 
ATOM     18  C   UNL     1       5.426   0.324  -1.023  0.00  0.00    +0.009 C 
ATOM     19  C   UNL     1       4.532  -1.526   0.398  0.00  0.00    +0.009 C 
ENDBRANCH  16  17
ENDBRANCH   6  16
ENDBRANCH   1   4
BRANCH   2  20
ATOM     20  C   UNL     1      -0.012  -0.099   3.531  0.00  0.00    +0.037 A 
ATOM     21  C   UNL     1      -0.300   0.514   2.311  0.00  0.00    +0.015 A 
ATOM     22  C   UNL     1      -0.265   1.890   2.208  0.00  0.00    +0.029 A 
ATOM     23  C   UNL     1       0.065   2.660   3.309  0.00  0.00    +0.106 A 
ATOM     24  C   UNL     1       0.356   2.059   4.520  0.00  0.00    +0.029 A 
ATOM     25  C   UNL     1       0.320   0.685   4.638  0.00  0.00    +0.015 A 
BRANCH  23  26
ATOM     26  S   UNL     1       0.114   4.416   3.167  0.00  0.00    +0.061 S 
ATOM     27  O   UNL     1      -0.729   4.759   2.076  0.00  0.00    -0.153 OA
ATOM     28  O   UNL     1      -0.084   4.935   4.475  0.00  0.00    -0.153 OA
BRANCH  26  29
ATOM     29  N   UNL     1       1.655   4.828   2.723  0.00  0.00    -0.177 NA
ATOM     30  C   UNL     1       2.760   5.132   3.644  0.00  0.00    +0.109 C 
ATOM     31  C   UNL     1       3.991   5.483   2.782  0.00  0.00    +0.018 C 
ATOM     32  C   UNL     1       3.357   5.917   1.434  0.00  0.00    +0.018 C 
ATOM     33  C   UNL     1       2.145   4.958   1.338  0.00  0.00    +0.109 C 
ENDBRANCH  26  29
ENDBRANCH  23  26
ENDBRANCH   2  20
BRANCH   1  34
ATOM     34  C   UNL     1       0.015  -3.798   2.662  0.00  0.00    +0.114 C 
BRANCH  34  35
ATOM     35  C   UNL     1       1.348  -4.380   3.137  0.00  0.00    +0.019 C 
BRANCH  35  37
ATOM     36  C   UNL     1       2.562  -6.484   3.720  0.00  0.00    +0.004 C 
ATOM     37  C   UNL     1       1.230  -5.902   3.245  0.00  0.00    -0.002 C 
ENDBRANCH  35  37
ENDBRANCH  34  35
ENDBRANCH   1  34
TORSDOF 10
