REMARK  Name = ZINC24002958
REMARK  7 active torsions:
REMARK  status: ('A' for Active; 'I' for Inactive)
REMARK    1  A    between atoms: C_1  and  C_2
REMARK    2  A    between atoms: C_2  and  C_3
REMARK    3  A    between atoms: C_3  and  C_30
REMARK    4  A    between atoms: N_6  and  C_10
REMARK    5  A    between atoms: C_10  and  C_11
REMARK    6  A    between atoms: N_13  and  C_14
REMARK    7  A    between atoms: C_14  and  C_15
REMARK                            x       y       z     vdW  Elec       q    Type
REMARK                         _______ _______ _______ _____ _____    ______ ____
ROOT
ATOM      1  C   UNL     1      -0.014   1.208   0.009  0.00  0.00    +0.239 C 
ATOM      2  O   UNL     1       0.002  -0.004   0.002  0.00  0.00    -0.273 OA
ATOM      3  N   UNL     1      -1.191   1.866   0.018  0.00  0.00    -0.247 N 
ATOM      4  C   UNL     1      -2.381   1.157   0.020  0.00  0.00    +0.168 A 
ATOM      5  N   UNL     1      -3.611   1.615   0.034  0.00  0.00    -0.224 NA
ATOM      6  C   UNL     1      -4.688   0.800   0.030  0.00  0.00    +0.080 A 
ATOM      7  C   UNL     1      -6.056   1.160   0.040  0.00  0.00    +0.029 A 
ATOM      8  C   UNL     1      -7.033   0.200   0.041  0.00  0.00    +0.002 A 
ATOM      9  C   UNL     1      -6.721  -1.152   0.032  0.00  0.00    +0.001 A 
ATOM     10  C   UNL     1      -5.394  -1.541   0.021  0.00  0.00    +0.017 A 
ATOM     11  C   UNL     1      -4.408  -0.586   0.021  0.00  0.00    +0.041 A 
ATOM     12  S   UNL     1      -2.632  -0.612   0.011  0.00  0.00    -0.052 S 
ENDROOT
BRANCH   1  13
ATOM     13  C   UNL     1       1.280   1.980   0.001  0.00  0.00    +0.214 C 
BRANCH  13  17
ATOM     14  C   UNL     1       4.101  -0.363   0.595  0.00  0.00    +0.138 C 
ATOM     15  C   UNL     1       3.003   0.557   1.091  0.00  0.00    +0.251 C 
ATOM     16  O   UNL     1       2.719   0.803   2.244  0.00  0.00    -0.272 OA
ATOM     17  N   UNL     1       2.407   1.043  -0.015  0.00  0.00    -0.215 N 
ATOM     18  C   UNL     1       2.974   0.569  -1.130  0.00  0.00    +0.310 C 
ATOM     19  O   UNL     1       2.612   0.866  -2.252  0.00  0.00    -0.252 OA
ATOM     20  N   UNL     1       3.990  -0.275  -0.871  0.00  0.00    -0.281 N 
ATOM     21  H   UNL     1       4.678  -0.848  -1.510  0.00  0.00    +0.152 HD
BRANCH  14  22
ATOM     22  C   UNL     1       5.448   0.130   1.056  0.00  0.00    -0.015 A 
ATOM     23  C   UNL     1       6.012  -0.378   2.211  0.00  0.00    +0.006 A 
ATOM     24  C   UNL     1       7.250   0.071   2.631  0.00  0.00    +0.000 A 
ATOM     25  C   UNL     1       7.920   1.035   1.901  0.00  0.00    +0.000 A 
ATOM     26  C   UNL     1       7.354   1.546   0.749  0.00  0.00    +0.000 A 
ATOM     27  C   UNL     1       6.118   1.094   0.326  0.00  0.00    +0.006 A 
ENDBRANCH  14  22
BRANCH  14  29
ATOM     28  C   UNL     1       2.523  -2.299   0.527  0.00  0.00    +0.007 C 
ATOM     29  C   UNL     1       3.864  -1.799   1.067  0.00  0.00    +0.037 C 
ENDBRANCH  14  29
ENDBRANCH  13  17
ENDBRANCH   1  13
BRANCH   3  30
ATOM     30  C   UNL     1      -1.210   3.331   0.026  0.00  0.00    +0.147 C 
BRANCH  30  31
ATOM     31  C   UNL     1      -1.224   3.849  -1.414  0.00  0.00    +0.136 C 
ATOM     32  C   UNL     1      -1.119   5.390  -1.432  0.00  0.00    +0.035 C 
ATOM     33  C   UNL     1      -2.038   5.815  -2.599  0.00  0.00    +0.031 C 
ATOM     34  C   UNL     1      -2.590   4.481  -3.147  0.00  0.00    +0.160 C 
ATOM     35  O   UNL     1      -2.493   3.558  -2.041  0.00  0.00    -0.375 OA
ENDBRANCH  30  31
ENDBRANCH   3  30
TORSDOF 6
