REMARK  Name = ZINC67503993
REMARK  8 active torsions:
REMARK  status: ('A' for Active; 'I' for Inactive)
REMARK    1  A    between atoms: C_1  and  C_2
REMARK    2  A    between atoms: C_2  and  C_4
REMARK    3  A    between atoms: C_2  and  N_11
REMARK    4  A    between atoms: C_4  and  O_5
REMARK    5  A    between atoms: O_5  and  C_6
REMARK    6  A    between atoms: C_6  and  C_7
REMARK    7  A    between atoms: N_11  and  C_12
REMARK    8  A    between atoms: C_12  and  C_13
REMARK                            x       y       z     vdW  Elec       q    Type
REMARK                         _______ _______ _______ _____ _____    ______ ____
ROOT
ATOM      1  N   UNL     1      -1.376  -0.512   0.012  0.00  0.00    +0.385 N 
ATOM      2  H   UNL     1      -1.888  -0.113  -0.760  0.00  0.00    -0.085 HD
ATOM      3  H   UNL     1      -1.364  -1.518  -0.076  0.00  0.00    -0.085 HD
ENDROOT
BRANCH   1   5
ATOM      4  C   UNL     1      -0.019   1.526   0.010  0.00  0.00    -0.011 C 
ATOM      5  C   UNL     1       0.002  -0.004   0.002  0.00  0.00    -0.048 C 
BRANCH   5   6
ATOM      6  C   UNL     1       0.718  -0.497  -1.257  0.00  0.00    +0.144 C 
BRANCH   6   7
ATOM      7  O   UNL     1       0.097   0.070  -2.412  0.00  0.00    -0.373 OA
BRANCH   7   8
ATOM      8  C   UNL     1       0.693  -0.329  -3.648  0.00  0.00    +0.272 C 
BRANCH   8   9
ATOM      9  C   UNL     1      -0.048   0.336  -4.809  0.00  0.00    +0.413 C 
ATOM     10  F   UNL     1       0.033   1.726  -4.680  0.00  0.00    -0.168 F 
ATOM     11  F   UNL     1       0.535  -0.055  -6.019  0.00  0.00    -0.168 F 
ATOM     12  F   UNL     1      -1.391  -0.057  -4.791  0.00  0.00    -0.168 F 
ENDBRANCH   8   9
ENDBRANCH   7   8
ENDBRANCH   6   7
ENDBRANCH   5   6
ENDBRANCH   1   5
BRANCH   1  13
ATOM     13  C   UNL     1      -2.026  -0.140   1.276  0.00  0.00    -0.046 C 
BRANCH  13  14
ATOM     14  C   UNL     1      -3.440  -0.661   1.287  0.00  0.00    -0.060 A 
ATOM     15  C   UNL     1      -4.467   0.119   0.789  0.00  0.00    +0.051 A 
ATOM     16  C   UNL     1      -5.768  -0.358   0.798  0.00  0.00    +0.168 A 
ATOM     17  C   UNL     1      -6.037  -1.625   1.309  0.00  0.00    +0.180 A 
ATOM     18  C   UNL     1      -5.003  -2.402   1.806  0.00  0.00    +0.063 A 
ATOM     19  C   UNL     1      -3.706  -1.921   1.789  0.00  0.00    +0.021 A 
ATOM     20 BR   UNL     1      -5.364  -4.123   2.501  0.00  0.00    -0.046 Br
ATOM     21  O   UNL     1      -7.378  -1.860   1.206  0.00  0.00    -0.451 OA
ATOM     22  C   UNL     1      -7.981  -0.568   1.004  0.00  0.00    +0.466 C 
ATOM     23  O   UNL     1      -6.939   0.201   0.374  0.00  0.00    -0.453 OA
ENDBRANCH  13  14
ENDBRANCH   1  13
TORSDOF 7
