REMARK  Name = ZINC39509267
REMARK  9 active torsions:
REMARK  status: ('A' for Active; 'I' for Inactive)
REMARK    1  A    between atoms: C_1  and  C_2
REMARK    2  A    between atoms: C_2  and  O_3
REMARK    3  A    between atoms: O_3  and  C_4
REMARK    4  A    between atoms: C_10  and  C_13
REMARK    5  A    between atoms: C_13  and  C_14
REMARK    6  A    between atoms: N_20  and  S_22
REMARK    7  A    between atoms: S_22  and  C_25
REMARK    8  A    between atoms: C_25  and  C_26
REMARK    9  A    between atoms: C_25  and  C_27
REMARK                            x       y       z     vdW  Elec       q    Type
REMARK                         _______ _______ _______ _____ _____    ______ ____
ROOT
ATOM      1  C   UNL     1       0.525  -1.998  -2.217  0.00  0.00    +0.136 C 
ATOM      2  C   UNL     1       1.877  -2.396  -2.870  0.00  0.00    +0.057 C 
ATOM      3  C   UNL     1       1.616  -3.835  -3.335  0.00  0.00    +0.045 C 
ATOM      4  C   UNL     1       2.323  -4.102  -4.678  0.00  0.00    +0.024 C 
ATOM      5  C   UNL     1       2.483  -5.644  -4.678  0.00  0.00    +0.006 C 
ATOM      6  C   UNL     1       2.790  -5.995  -3.207  0.00  0.00    -0.005 C 
ATOM      7  C   UNL     1       2.227  -4.843  -2.353  0.00  0.00    +0.028 C 
ATOM      8  N   UNL     1       0.172  -4.020  -3.458  0.00  0.00    -0.172 NA
ATOM      9  C   UNL     1      -0.491  -2.745  -3.117  0.00  0.00    +0.141 C 
ENDROOT
BRANCH   8  10
ATOM     10  S   UNL     1      -0.592  -5.421  -3.903  0.00  0.00    +0.035 S 
ATOM     11  O   UNL     1       0.445  -6.389  -3.983  0.00  0.00    -0.158 OA
ATOM     12  O   UNL     1      -1.651  -5.569  -2.968  0.00  0.00    -0.158 OA
BRANCH  10  13
ATOM     13  C   UNL     1      -1.260  -5.083  -5.556  0.00  0.00    +0.142 C 
ATOM     14  C   UNL     1      -0.114  -4.736  -6.508  0.00  0.00    +0.033 C 
ATOM     15  C   UNL     1      -1.994  -6.321  -6.072  0.00  0.00    +0.033 C 
ENDBRANCH  10  13
ENDBRANCH   8  10
BRANCH   1  16
ATOM     16  O   UNL     1       0.322  -0.584  -2.280  0.00  0.00    -0.375 OA
BRANCH  16  18
ATOM     17  C   UNL     1      -0.659   1.444  -1.407  0.00  0.00    +0.034 C 
ATOM     18  C   UNL     1      -0.513  -0.070  -1.241  0.00  0.00    +0.157 C 
ENDBRANCH  16  18
ENDBRANCH   1  16
BRANCH   6  19
ATOM     19  C   UNL     1       2.107  -7.312  -2.829  0.00  0.00    +0.038 C 
BRANCH  19  20
ATOM     20  C   UNL     1       2.374  -8.341  -3.897  0.00  0.00    -0.047 A 
ATOM     21  C   UNL     1       1.512  -8.463  -4.970  0.00  0.00    +0.003 A 
ATOM     22  C   UNL     1       1.757  -9.408  -5.949  0.00  0.00    +0.000 A 
ATOM     23  C   UNL     1       2.865 -10.229  -5.856  0.00  0.00    +0.000 A 
ATOM     24  C   UNL     1       3.728 -10.106  -4.783  0.00  0.00    +0.000 A 
ATOM     25  C   UNL     1       3.485  -9.159  -3.806  0.00  0.00    +0.003 A 
ENDBRANCH  19  20
ENDBRANCH   6  19
TORSDOF 6
