REMARK  Name = ZINC16972176
REMARK  2 active torsions:
REMARK  status: ('A' for Active; 'I' for Inactive)
REMARK    1  A    between atoms: C_10  and  N_11
REMARK    2  A    between atoms: C_14  and  C_21
REMARK                            x       y       z     vdW  Elec       q    Type
REMARK                         _______ _______ _______ _____ _____    ______ ____
ROOT
ATOM      1  N   UNL     1       4.873   0.099  -0.044  0.00  0.00    -0.228 N 
ATOM      2  C   UNL     1       5.461   0.432   1.122  0.00  0.00    +0.267 A 
ATOM      3  O   UNL     1       4.950   0.110   2.181  0.00  0.00    -0.267 OA
ATOM      4  C   UNL     1       6.668   1.152   1.109  0.00  0.00    +0.073 A 
ATOM      5  C   UNL     1       7.220   1.500  -0.088  0.00  0.00    +0.260 A 
ATOM      6  N   UNL     1       6.588   1.141  -1.252  0.00  0.00    -0.274 N 
ATOM      7  H   UNL     1       6.976   1.386  -2.107  0.00  0.00    +0.173 HD
ATOM      8  C   UNL     1       5.435   0.447  -1.216  0.00  0.00    +0.337 A 
ATOM      9  O   UNL     1       4.892   0.134  -2.257  0.00  0.00    -0.246 OA
ATOM     10  O   UNL     1       8.378   2.192  -0.129  0.00  0.00    -0.267 OA
ENDROOT
BRANCH   4  11
ATOM     11  C   UNL     1       7.344   1.535   2.401  0.00  0.00    +0.018 C 
ATOM     12  C   UNL     1       7.783   0.289   3.132  0.00  0.00    +0.011 A 
ATOM     13  C   UNL     1       7.631   0.127   4.467  0.00  0.00    -0.022 A 
ATOM     14  C   UNL     1       8.158  -1.175   4.803  0.00  0.00    +0.003 A 
ATOM     15  C   UNL     1       8.267  -1.876   6.008  0.00  0.00    +0.010 A 
ATOM     16  C   UNL     1       8.836  -3.124   5.952  0.00  0.00    +0.001 A 
ATOM     17  C   UNL     1       9.285  -3.676   4.764  0.00  0.00    +0.002 A 
ATOM     18  C   UNL     1       9.190  -3.006   3.557  0.00  0.00    +0.026 A 
ATOM     19  C   UNL     1       8.617  -1.736   3.582  0.00  0.00    +0.047 A 
ATOM     20  N   UNL     1       8.374  -0.822   2.597  0.00  0.00    -0.359 N 
ATOM     21  H   UNL     1       8.589  -0.943   1.659  0.00  0.00    +0.166 HD
ATOM     22  C   UNL     1       7.015   1.174   5.360  0.00  0.00    +0.018 C 
ATOM     23  C   UNL     1       6.983   2.497   4.582  0.00  0.00    -0.076 C 
ATOM     24  N   UNL     1       6.399   2.275   3.252  0.00  0.00    +0.388 N 
ATOM     25  H   UNL     1       6.188   3.163   2.823  0.00  0.00    -0.084 HD
ATOM     26  H   UNL     1       5.547   1.741   3.348  0.00  0.00    -0.084 HD
ENDBRANCH   4  11
BRANCH   1  36
ATOM     27  C   UNL     1      -0.016   1.357   0.009  0.00  0.00    +0.001 A 
ATOM     28  C   UNL     1       1.169   2.090   0.002  0.00  0.00    +0.001 A 
ATOM     29  C   UNL     1       2.378   1.466  -0.013  0.00  0.00    +0.010 A 
ATOM     30  C   UNL     1       2.437   0.064  -0.021  0.00  0.00    +0.006 A 
ATOM     31  C   UNL     1       1.233  -0.683  -0.013  0.00  0.00    -0.016 A 
ATOM     32  C   UNL     1       0.002  -0.004   0.002  0.00  0.00    +0.008 A 
ATOM     33  C   UNL     1       1.290  -2.087  -0.021  0.00  0.00    +0.008 A 
ATOM     34  C   UNL     1       2.496  -2.718  -0.035  0.00  0.00    +0.003 A 
ATOM     35  C   UNL     1       3.685  -1.995  -0.043  0.00  0.00    +0.027 A 
ATOM     36  C   UNL     1       3.672  -0.617  -0.036  0.00  0.00    +0.062 A 
ENDBRANCH   1  36
TORSDOF 2
