REMARK  Name = ZINC36531035
REMARK  13 active torsions:
REMARK  status: ('A' for Active; 'I' for Inactive)
REMARK    1  A    between atoms: C_1  and  C_2
REMARK    2  A    between atoms: C_5  and  S_8
REMARK    3  A    between atoms: S_8  and  C_11
REMARK    4  A    between atoms: C_11  and  N_12
REMARK    5  A    between atoms: C_13  and  C_15
REMARK    6  A    between atoms: C_15  and  C_17
REMARK    7  A    between atoms: C_15  and  N_26
REMARK    8  A    between atoms: C_17  and  C_19
REMARK    9  A    between atoms: C_17  and  C_20
REMARK   10  A    between atoms: N_26  and  C_27
REMARK   11  A    between atoms: C_28  and  C_30
REMARK   12  A    between atoms: C_31  and  O_37
REMARK   13  A    between atoms: C_35  and  O_36
REMARK                            x       y       z     vdW  Elec       q    Type
REMARK                         _______ _______ _______ _____ _____    ______ ____
ROOT
ATOM      1  C   UNL     1       3.307  -4.928   3.496  0.00  0.00    +0.169 C 
ENDROOT
BRANCH   1   3
ATOM      2  N   UNL     1       2.023  -4.428   1.442  0.00  0.00    -0.295 N 
ATOM      3  C   UNL     1       2.541  -5.355   2.271  0.00  0.00    +0.235 C 
ATOM      4  O   UNL     1       2.390  -6.535   2.031  0.00  0.00    -0.274 OA
ATOM      5  H   UNL     1       2.074  -3.487   1.674  0.00  0.00    +0.150 HD
BRANCH   2   6
ATOM      6  C   UNL     1       1.382  -4.839   0.190  0.00  0.00    +0.278 C 
BRANCH   6   7
ATOM      7  S   UNL     1      -0.408  -4.984   0.446  0.00  0.00    +0.013 S 
ATOM      8  O   UNL     1      -0.675  -5.719   1.632  0.00  0.00    -0.168 OA
ATOM      9  O   UNL     1      -1.051  -5.322  -0.776  0.00  0.00    -0.168 OA
BRANCH   7  14
ATOM     10  C   UNL     1      -2.262   0.628   1.660  0.00  0.00    +0.044 C 
ATOM     11  C   UNL     1      -1.799  -0.774   1.357  0.00  0.00    -0.050 A 
ATOM     12  C   UNL     1      -1.767  -1.224   0.050  0.00  0.00    +0.005 A 
ATOM     13  C   UNL     1      -1.342  -2.509  -0.228  0.00  0.00    +0.027 A 
ATOM     14  C   UNL     1      -0.948  -3.345   0.800  0.00  0.00    +0.090 A 
ATOM     15  C   UNL     1      -0.979  -2.895   2.107  0.00  0.00    +0.027 A 
ATOM     16  C   UNL     1      -1.400  -1.607   2.385  0.00  0.00    +0.005 A 
ENDBRANCH   7  14
ENDBRANCH   6   7
ENDBRANCH   2   6
ENDBRANCH   1   3
BRANCH   1  17
ATOM     17  N   UNL     1       3.420  -6.058   4.421  0.00  0.00    -0.288 N 
ATOM     18  C   UNL     1       4.091  -7.288   3.995  0.00  0.00    +0.133 C 
ATOM     19  C   UNL     1       2.907  -5.965   5.663  0.00  0.00    +0.254 C 
ATOM     20  O   UNL     1       2.350  -4.944   6.017  0.00  0.00    -0.270 OA
BRANCH  19  21
ATOM     21  C   UNL     1       3.020  -7.102   6.593  0.00  0.00    +0.119 A 
ATOM     22  C   UNL     1       4.128  -7.207   7.447  0.00  0.00    +0.133 A 
ATOM     23  C   UNL     1       4.224  -8.280   8.319  0.00  0.00    +0.046 A 
ATOM     24  C   UNL     1       3.234  -9.244   8.348  0.00  0.00    +0.007 A 
ATOM     25  C   UNL     1       2.138  -9.150   7.510  0.00  0.00    +0.046 A 
ATOM     26  C   UNL     1       2.019  -8.083   6.635  0.00  0.00    +0.133 A 
BRANCH  26  27
ATOM     27  O   UNL     1       0.940  -7.989   5.819  0.00  0.00    -0.506 OA
ATOM     28  H   UNL     1       1.055  -8.425   4.963  0.00  0.00    +0.292 HD
ENDBRANCH  26  27
BRANCH  22  29
ATOM     29  O   UNL     1       5.101  -6.263   7.420  0.00  0.00    -0.506 OA
ATOM     30  H   UNL     1       4.952  -5.527   8.029  0.00  0.00    +0.292 HD
ENDBRANCH  22  29
ENDBRANCH  19  21
ENDBRANCH   1  17
BRANCH   1  31
ATOM     31  C   UNL     1       4.706  -4.463   3.085  0.00  0.00    +0.045 C 
ATOM     32  C   UNL     1       4.591  -3.219   2.201  0.00  0.00    +0.015 C 
BRANCH  31  33
ATOM     33  C   UNL     1       5.507  -4.130   4.318  0.00  0.00    -0.042 A 
ATOM     34  C   UNL     1       5.065  -3.149   5.185  0.00  0.00    +0.004 A 
ATOM     35  C   UNL     1       5.800  -2.845   6.316  0.00  0.00    +0.000 A 
ATOM     36  C   UNL     1       6.976  -3.521   6.579  0.00  0.00    +0.000 A 
ATOM     37  C   UNL     1       7.417  -4.503   5.712  0.00  0.00    +0.000 A 
ATOM     38  C   UNL     1       6.681  -4.811   4.584  0.00  0.00    +0.004 A 
ENDBRANCH  31  33
ENDBRANCH   1  31
TORSDOF 10
