REMARK  Name = ZINC63293952
REMARK  9 active torsions:
REMARK  status: ('A' for Active; 'I' for Inactive)
REMARK    1  A    between atoms: C_1  and  O_2
REMARK    2  A    between atoms: O_2  and  C_3
REMARK    3  A    between atoms: C_9  and  C_12
REMARK    4  A    between atoms: C_12  and  C_13
REMARK    5  A    between atoms: C_13  and  N_14
REMARK    6  A    between atoms: C_15  and  C_17
REMARK    7  A    between atoms: C_23  and  C_25
REMARK    8  A    between atoms: C_25  and  C_26
REMARK    9  A    between atoms: C_25  and  C_32
REMARK                            x       y       z     vdW  Elec       q    Type
REMARK                         _______ _______ _______ _____ _____    ______ ____
ROOT
ATOM      1  C   UNL     1       1.500  -8.403  -3.066  0.00  0.00    +0.078 C 
ATOM      2  C   UNL     1       1.243  -9.268  -1.830  0.00  0.00    +0.032 C 
ATOM      3  C   UNL     1       0.971 -10.711  -2.269  0.00  0.00    +0.108 C 
ATOM      4  N   UNL     1       2.089 -11.170  -3.104  0.00  0.00    -0.301 N 
ATOM      5  C   UNL     1       2.479 -10.362  -4.268  0.00  0.00    +0.108 C 
ATOM      6  C   UNL     1       2.734  -8.924  -3.808  0.00  0.00    +0.032 C 
ATOM      7  C   UNL     1       2.744 -12.309  -2.808  0.00  0.00    +0.227 C 
ATOM      8  O   UNL     1       2.486 -12.910  -1.787  0.00  0.00    -0.275 OA
ENDROOT
BRANCH   1  10
ATOM      9  N   UNL     1       0.777  -6.308  -1.968  0.00  0.00    -0.315 N 
ATOM     10  C   UNL     1       1.735  -6.977  -2.641  0.00  0.00    +0.216 C 
ATOM     11  O   UNL     1       2.785  -6.430  -2.905  0.00  0.00    -0.276 OA
ATOM     12  H   UNL     1      -0.062  -6.745  -1.757  0.00  0.00    +0.149 HD
BRANCH   9  13
ATOM     13  C   UNL     1       1.005  -4.921  -1.554  0.00  0.00    +0.108 C 
BRANCH  13  14
ATOM     14  C   UNL     1      -0.228  -4.401  -0.814  0.00  0.00    +0.052 C 
BRANCH  14  21
ATOM     15  C   UNL     1      -1.315  -0.376  -2.741  0.00  0.00    +0.121 A 
ATOM     16  C   UNL     1      -0.907   0.751  -2.006  0.00  0.00    +0.047 A 
ATOM     17  C   UNL     1      -0.250   0.654  -0.830  0.00  0.00    +0.029 A 
ATOM     18  C   UNL     1       0.062  -0.668  -0.278  0.00  0.00    +0.043 A 
ATOM     19  N   UNL     1       0.676  -1.037   0.818  0.00  0.00    -0.380 N 
ATOM     20  C   UNL     1       0.707  -2.503   0.866  0.00  0.00    +0.144 C 
ATOM     21  C   UNL     1       0.007  -2.974  -0.388  0.00  0.00    -0.040 C 
ATOM     22  C   UNL     1      -0.367  -1.857  -1.051  0.00  0.00    +0.002 A 
ATOM     23  C   UNL     1      -1.079  -1.640  -2.315  0.00  0.00    +0.055 A 
ATOM     24  H   UNL     1       1.049  -0.440   1.486  0.00  0.00    +0.160 HD
BRANCH  15  26
ATOM     25  C   UNL     1      -2.198   1.159  -4.327  0.00  0.00    +0.277 C 
ATOM     26  O   UNL     1      -1.972  -0.191  -3.916  0.00  0.00    -0.495 OA
ENDBRANCH  15  26
ENDBRANCH  14  21
ENDBRANCH  13  14
ENDBRANCH   9  13
ENDBRANCH   1  10
BRANCH   7  27
ATOM     27  C   UNL     1       3.799 -12.838  -3.747  0.00  0.00    +0.135 C 
BRANCH  27  28
ATOM     28  C   UNL     1       5.082 -12.076  -3.540  0.00  0.00    -0.031 A 
ATOM     29  C   UNL     1       5.530 -11.810  -2.259  0.00  0.00    +0.005 A 
ATOM     30  C   UNL     1       6.708 -11.112  -2.070  0.00  0.00    +0.000 A 
ATOM     31  C   UNL     1       7.438 -10.678  -3.160  0.00  0.00    +0.000 A 
ATOM     32  C   UNL     1       6.990 -10.944  -4.441  0.00  0.00    +0.000 A 
ATOM     33  C   UNL     1       5.815 -11.647  -4.631  0.00  0.00    +0.005 A 
ENDBRANCH  27  28
BRANCH  27  34
ATOM     34  C   UNL     1       4.032 -14.300  -3.468  0.00  0.00    -0.031 A 
ATOM     35  C   UNL     1       4.564 -14.696  -2.255  0.00  0.00    +0.005 A 
ATOM     36  C   UNL     1       4.778 -16.038  -2.000  0.00  0.00    +0.000 A 
ATOM     37  C   UNL     1       4.460 -16.983  -2.957  0.00  0.00    +0.000 A 
ATOM     38  C   UNL     1       3.928 -16.587  -4.170  0.00  0.00    +0.000 A 
ATOM     39  C   UNL     1       3.710 -15.246  -4.424  0.00  0.00    +0.005 A 
ENDBRANCH  27  34
ENDBRANCH   7  27
TORSDOF 8
