REMARK  Name = ZINC18068119
REMARK  7 active torsions:
REMARK  status: ('A' for Active; 'I' for Inactive)
REMARK    1  A    between atoms: C_1  and  C_2
REMARK    2  A    between atoms: C_5  and  N_8
REMARK    3  A    between atoms: C_13  and  C_28
REMARK    4  A    between atoms: N_15  and  C_21
REMARK    5  A    between atoms: C_31  and  O_36
REMARK    6  A    between atoms: C_32  and  O_34
REMARK    7  A    between atoms: O_34  and  C_35
REMARK                            x       y       z     vdW  Elec       q    Type
REMARK                         _______ _______ _______ _____ _____    ______ ____
ROOT
ATOM      1  N   UNL     1       0.059  -4.172  -0.021  0.00  0.00    -0.208 N 
ATOM      2  C   UNL     1       0.069  -4.939   1.117  0.00  0.00    +0.235 C 
ATOM      3  O   UNL     1      -0.151  -4.578   2.253  0.00  0.00    -0.274 OA
ATOM      4  C   UNL     1       0.401  -6.268   0.666  0.00  0.00    +0.145 C 
ATOM      5  C   UNL     1       0.274  -7.669   1.098  0.00  0.00    +0.157 C 
ATOM      6  N   UNL     1       0.352  -8.412  -0.201  0.00  0.00    -0.244 N 
ATOM      7  O   UNL     1       0.431  -7.431  -1.260  0.00  0.00    -0.257 OA
ATOM      8  C   UNL     1      -0.318  -6.317  -0.742  0.00  0.00    +0.249 C 
ATOM      9  C   UNL     1       0.062  -4.922  -1.161  0.00  0.00    +0.259 C 
ATOM     10  O   UNL     1       0.321  -4.544  -2.284  0.00  0.00    -0.272 OA
ENDROOT
BRANCH   1  15
ATOM     11  C   UNL     1      -0.018   1.503   0.010  0.00  0.00    +0.044 C 
ATOM     12  C   UNL     1       0.002  -0.004   0.002  0.00  0.00    -0.050 A 
ATOM     13  C   UNL     1       0.006  -0.688  -1.200  0.00  0.00    +0.005 A 
ATOM     14  C   UNL     1       0.025  -2.068  -1.211  0.00  0.00    +0.024 A 
ATOM     15  C   UNL     1       0.040  -2.771  -0.013  0.00  0.00    +0.044 A 
ATOM     16  C   UNL     1       0.037  -2.082   1.192  0.00  0.00    +0.024 A 
ATOM     17  C   UNL     1       0.023  -0.700   1.196  0.00  0.00    +0.005 A 
ENDBRANCH   1  15
BRANCH   6  18
ATOM     18  C   UNL     1       0.348  -9.800  -0.360  0.00  0.00    +0.065 A 
ATOM     19  C   UNL     1       0.262 -10.628   0.752  0.00  0.00    +0.029 A 
ATOM     20  C   UNL     1       0.259 -11.999   0.592  0.00  0.00    +0.022 A 
ATOM     21  C   UNL     1       0.342 -12.550  -0.675  0.00  0.00    +0.041 A 
ATOM     22  C   UNL     1       0.428 -11.728  -1.785  0.00  0.00    +0.022 A 
ATOM     23  C   UNL     1       0.426 -10.355  -1.631  0.00  0.00    +0.029 A 
ATOM     24 CL   UNL     1       0.339 -14.274  -0.873  0.00  0.00    -0.084 Cl
ENDBRANCH   6  18
BRANCH   5  25
ATOM     25  C   UNL     1      -1.052  -7.903   1.776  0.00  0.00    -0.018 A 
ATOM     26  C   UNL     1      -2.191  -8.093   1.016  0.00  0.00    +0.009 A 
ATOM     27  C   UNL     1      -3.409  -8.308   1.633  0.00  0.00    +0.049 A 
ATOM     28  C   UNL     1      -3.490  -8.334   3.015  0.00  0.00    +0.158 A 
ATOM     29  C   UNL     1      -2.344  -8.143   3.780  0.00  0.00    +0.162 A 
ATOM     30  C   UNL     1      -1.125  -7.933   3.156  0.00  0.00    +0.055 A 
BRANCH  29  31
ATOM     31  O   UNL     1      -2.418  -8.168   5.138  0.00  0.00    -0.491 OA
ATOM     32  C   UNL     1      -1.201  -7.965   5.859  0.00  0.00    +0.277 C 
ENDBRANCH  29  31
BRANCH  28  33
ATOM     33  O   UNL     1      -4.688  -8.545   3.624  0.00  0.00    -0.503 OA
ATOM     34  H   UNL     1      -4.885  -9.477   3.793  0.00  0.00    +0.292 HD
ENDBRANCH  28  33
ENDBRANCH   5  25
TORSDOF 5
