REMARK  Name = ZINC12430704
REMARK  5 active torsions:
REMARK  status: ('A' for Active; 'I' for Inactive)
REMARK    1  A    between atoms: C_14  and  C_15
REMARK    2  A    between atoms: C_14  and  N_56
REMARK    3  A    between atoms: C_15  and  O_27
REMARK    4  A    between atoms: N_19  and  C_22
REMARK    5  A    between atoms: C_22  and  C_23
REMARK                            x       y       z     vdW  Elec       q    Type
REMARK                         _______ _______ _______ _____ _____    ______ ____
ROOT
ATOM      1  C   UNL     1      -4.850   2.015   0.390  0.00  0.00    -0.034 C 
ENDROOT
BRANCH   1  15
ATOM      2  C   UNL     1       2.610   4.860   0.947  0.00  0.00    +0.001 A 
ATOM      3  C   UNL     1       3.230   3.634   0.745  0.00  0.00    +0.002 A 
ATOM      4  C   UNL     1       2.484   2.503   0.496  0.00  0.00    +0.026 A 
ATOM      5  C   UNL     1       1.097   2.586   0.446  0.00  0.00    +0.047 A 
ATOM      6  C   UNL     1       0.471   3.832   0.650  0.00  0.00    +0.003 A 
ATOM      7  C   UNL     1       1.249   4.965   0.902  0.00  0.00    +0.010 A 
ATOM      8  C   UNL     1      -0.959   3.581   0.532  0.00  0.00    -0.023 A 
ATOM      9  C   UNL     1      -1.120   2.267   0.274  0.00  0.00    +0.003 A 
ATOM     10  N   UNL     1       0.101   1.659   0.224  0.00  0.00    -0.359 N 
ATOM     11  H   UNL     1       0.246   0.715   0.055  0.00  0.00    +0.166 HD
ATOM     12  C   UNL     1      -2.476   1.625   0.096  0.00  0.00    -0.024 C 
ATOM     13  C   UNL     1      -3.354   3.892   0.067  0.00  0.00    -0.073 C 
ATOM     14  C   UNL     1      -2.102   4.557   0.655  0.00  0.00    +0.019 C 
ATOM     15  N   UNL     1      -3.496   2.542   0.658  0.00  0.00    +0.386 N 
ATOM     16  H   UNL     1      -3.360   2.609   1.674  0.00  0.00    -0.081 HD
ENDBRANCH   1  15
BRANCH   1  17
ATOM     17  C   UNL     1      -5.111   0.837   1.331  0.00  0.00    +0.127 C 
ATOM     18  C   UNL     1      -6.558   0.365   1.166  0.00  0.00    +0.044 C 
ATOM     19  C   UNL     1      -6.878  -0.619   2.298  0.00  0.00    +0.022 C 
ATOM     20  C   UNL     1      -6.885   0.144   3.623  0.00  0.00    +0.108 C 
ATOM     21  N   UNL     1      -5.667   0.931   3.765  0.00  0.00    -0.299 N 
ATOM     22  C   UNL     1      -4.872   1.268   2.749  0.00  0.00    +0.245 C 
ATOM     23  O   UNL     1      -3.904   1.962   2.983  0.00  0.00    -0.273 OA
BRANCH  17  24
ATOM     24  O   UNL     1      -4.224  -0.236   1.005  0.00  0.00    -0.381 OA
ATOM     25  H   UNL     1      -4.333  -1.019   1.562  0.00  0.00    +0.211 HD
ENDBRANCH  17  24
BRANCH  21  26
ATOM     26  C   UNL     1      -5.291   1.379   5.108  0.00  0.00    +0.111 C 
BRANCH  26  27
ATOM     27  C   UNL     1      -5.920   2.746   5.384  0.00  0.00    +0.006 C 
ATOM     28  C   UNL     1      -5.058   3.928   4.910  0.00  0.00    +0.005 C 
ATOM     29  C   UNL     1      -5.471   4.647   6.205  0.00  0.00    +0.001 C 
ATOM     30  C   UNL     1      -5.688   3.254   6.817  0.00  0.00    +0.005 C 
ENDBRANCH  26  27
ENDBRANCH  21  26
ENDBRANCH   1  17
TORSDOF 5
