REMARK  Name = ZINC08961353
REMARK  7 active torsions:
REMARK  status: ('A' for Active; 'I' for Inactive)
REMARK    1  A    between atoms: C_1  and  C_2
REMARK    2  A    between atoms: C_13  and  N_18
REMARK    3  A    between atoms: N_18  and  S_19
REMARK    4  A    between atoms: S_19  and  C_22
REMARK    5  A    between atoms: C_22  and  C_23
REMARK    6  A    between atoms: C_26  and  O_29
REMARK    7  A    between atoms: O_29  and  C_30
REMARK                            x       y       z     vdW  Elec       q    Type
REMARK                         _______ _______ _______ _____ _____    ______ ____
ROOT
ATOM      1  C   UNL     1      -2.898  12.920  -3.329  0.00  0.00    +0.044 C 
ATOM      2  C   UNL     1      -3.105  11.620  -2.594  0.00  0.00    -0.048 A 
ATOM      3  C   UNL     1      -3.499  10.491  -3.287  0.00  0.00    +0.007 A 
ATOM      4  C   UNL     1      -3.676   9.296  -2.616  0.00  0.00    +0.048 A 
ATOM      5  C   UNL     1      -3.459   9.224  -1.247  0.00  0.00    +0.150 A 
ATOM      6  C   UNL     1      -3.088  10.364  -0.545  0.00  0.00    +0.077 A 
ATOM      7  C   UNL     1      -2.901  11.560  -1.230  0.00  0.00    +0.030 A 
ATOM      8  N   UNL     1      -2.902  10.342   0.837  0.00  0.00    -0.278 N 
ATOM      9  C   UNL     1      -2.328   9.372   1.536  0.00  0.00    +0.252 C 
ATOM     10  O   UNL     1      -2.233   9.526   2.738  0.00  0.00    -0.270 OA
ATOM     11  C   UNL     1      -1.797   8.125   0.967  0.00  0.00    +0.081 A 
ATOM     12  C   UNL     1      -0.625   7.569   1.488  0.00  0.00    +0.041 A 
ATOM     13  C   UNL     1      -0.140   6.377   0.979  0.00  0.00    +0.049 A 
ATOM     14  C   UNL     1      -0.819   5.730  -0.048  0.00  0.00    +0.028 A 
ATOM     15  C   UNL     1      -1.977   6.272  -0.566  0.00  0.00    +0.049 A 
ATOM     16  C   UNL     1      -2.466   7.476  -0.076  0.00  0.00    +0.141 A 
ATOM     17  O   UNL     1      -3.574   8.023  -0.627  0.00  0.00    -0.453 OA
ATOM     18  H   UNL     1      -3.224  11.110   1.335  0.00  0.00    +0.155 HD
ENDROOT
BRANCH  13  19
ATOM     19  N   UNL     1       1.038   5.824   1.495  0.00  0.00    -0.220 N 
ATOM     20  H   UNL     1       1.897   6.208   1.260  0.00  0.00    +0.173 HD
BRANCH  19  21
ATOM     21  S   UNL     1       0.965   4.514   2.505  0.00  0.00    +0.047 S 
ATOM     22  O   UNL     1       2.319   4.232   2.831  0.00  0.00    -0.155 OA
ATOM     23  O   UNL     1       0.174   3.562   1.808  0.00  0.00    -0.155 OA
BRANCH  21  24
ATOM     24  C   UNL     1       0.079   5.106   3.973  0.00  0.00    +0.223 C 
BRANCH  24  25
ATOM     25  C   UNL     1      -0.147   3.957   4.921  0.00  0.00    -0.025 A 
ATOM     26  C   UNL     1       0.795   3.667   5.891  0.00  0.00    +0.009 A 
ATOM     27  C   UNL     1       0.590   2.613   6.761  0.00  0.00    +0.046 A 
ATOM     28  C   UNL     1      -0.562   1.847   6.661  0.00  0.00    +0.120 A 
ATOM     29  C   UNL     1      -1.506   2.140   5.687  0.00  0.00    +0.046 A 
ATOM     30  C   UNL     1      -1.296   3.195   4.820  0.00  0.00    +0.009 A 
BRANCH  28  31
ATOM     31  O   UNL     1      -0.766   0.810   7.516  0.00  0.00    -0.495 OA
ATOM     32  C   UNL     1      -1.974   0.065   7.355  0.00  0.00    +0.277 C 
ENDBRANCH  28  31
ENDBRANCH  24  25
ENDBRANCH  21  24
ENDBRANCH  19  21
ENDBRANCH  13  19
TORSDOF 5
