REMARK  Name = ZINC39631765
REMARK  11 active torsions:
REMARK  status: ('A' for Active; 'I' for Inactive)
REMARK    1  A    between atoms: C_1  and  C_2
REMARK    2  A    between atoms: C_2  and  C_4
REMARK    3  A    between atoms: C_2  and  N_11
REMARK    4  A    between atoms: C_4  and  C_5
REMARK    5  A    between atoms: C_5  and  C_6
REMARK    6  A    between atoms: C_6  and  C_7
REMARK    7  A    between atoms: C_7  and  C_8
REMARK    8  A    between atoms: C_7  and  C_9
REMARK    9  A    between atoms: C_7  and  O_10
REMARK   10  A    between atoms: C_12  and  C_14
REMARK   11  A    between atoms: C_25  and  C_27
REMARK                            x       y       z     vdW  Elec       q    Type
REMARK                         _______ _______ _______ _____ _____    ______ ____
ROOT
ATOM      1  C   UNL     1      -4.097  -1.440  -0.849  0.00  0.00    +0.100 C 
ATOM      2  C   UNL     1      -4.704  -0.287  -0.018  0.00  0.00    +0.121 C 
ATOM      3  N   UNL     1      -5.253   0.651  -1.026  0.00  0.00    -0.296 N 
ATOM      4  C   UNL     1      -5.842  -0.226  -2.065  0.00  0.00    +0.115 C 
ATOM      5  C   UNL     1      -4.849  -1.399  -2.190  0.00  0.00    -0.004 C 
ATOM      6  C   UNL     1      -5.602  -2.707  -2.414  0.00  0.00    -0.010 C 
ATOM      7  C   UNL     1      -6.294  -2.665  -3.779  0.00  0.00    -0.082 C 
ATOM      8  N   UNL     1      -5.291  -2.469  -4.832  0.00  0.00    +0.379 N 
ATOM      9  C   UNL     1      -4.636  -1.166  -4.663  0.00  0.00    -0.082 C 
ATOM     10  C   UNL     1      -3.874  -1.144  -3.335  0.00  0.00    -0.010 C 
ATOM     11  C   UNL     1      -5.223   1.999  -1.002  0.00  0.00    +0.248 C 
ATOM     12  O   UNL     1      -4.591   2.578  -0.140  0.00  0.00    -0.270 OA
ATOM     13  H   UNL     1      -4.599  -3.201  -4.777  0.00  0.00    -0.086 HD
ATOM     14  H   UNL     1      -5.741  -2.502  -5.735  0.00  0.00    -0.086 HD
ENDROOT
BRANCH  11  15
ATOM     15  C   UNL     1      -5.960   2.772  -2.023  0.00  0.00    +0.055 A 
ATOM     16  C   UNL     1      -6.999   2.181  -2.752  0.00  0.00    +0.016 A 
ATOM     17  C   UNL     1      -7.657   2.948  -3.697  0.00  0.00    +0.020 A 
ATOM     18  C   UNL     1      -7.272   4.263  -3.889  0.00  0.00    +0.111 A 
ATOM     19  N   UNL     1      -6.289   4.794  -3.187  0.00  0.00    -0.263 NA
ATOM     20  C   UNL     1      -5.636   4.106  -2.273  0.00  0.00    +0.123 A 
ENDBRANCH  11  15
BRANCH   1  22
ATOM     21  N   UNL     1      -1.808  -2.256  -1.310  0.00  0.00    -0.312 N 
ATOM     22  C   UNL     1      -2.624  -1.211  -1.066  0.00  0.00    +0.218 C 
ATOM     23  O   UNL     1      -2.172  -0.086  -1.022  0.00  0.00    -0.275 OA
ATOM     24  H   UNL     1      -2.170  -3.155  -1.346  0.00  0.00    +0.149 HD
BRANCH  21  26
ATOM     25  C   UNL     1       0.337  -1.980  -0.169  0.00  0.00    +0.028 C 
ATOM     26  C   UNL     1      -0.376  -2.033  -1.522  0.00  0.00    +0.070 C 
BRANCH  26  27
ATOM     27  C   UNL     1       0.201  -3.177  -2.358  0.00  0.00    +0.022 C 
BRANCH  27  28
ATOM     28  C   UNL     1      -0.423  -3.153  -3.755  0.00  0.00    +0.005 C 
BRANCH  28  29
ATOM     29  C   UNL     1       0.153  -4.297  -4.591  0.00  0.00    +0.034 C 
BRANCH  29  30
ATOM     30  C   UNL     1      -0.471  -4.273  -5.987  0.00  0.00    +0.061 C 
ATOM     31  C   UNL     1      -0.155  -2.937  -6.664  0.00  0.00    +0.041 C 
ATOM     32  C   UNL     1       0.105  -5.417  -6.823  0.00  0.00    +0.041 C 
BRANCH  30  33
ATOM     33  O   UNL     1      -1.888  -4.428  -5.879  0.00  0.00    -0.389 OA
ATOM     34  H   UNL     1      -2.162  -5.255  -5.459  0.00  0.00    +0.210 HD
ENDBRANCH  30  33
ENDBRANCH  29  30
ENDBRANCH  28  29
ENDBRANCH  27  28
ENDBRANCH  26  27
ENDBRANCH  21  26
ENDBRANCH   1  22
TORSDOF 8
