REMARK  Name = ZINC43677048
REMARK  8 active torsions:
REMARK  status: ('A' for Active; 'I' for Inactive)
REMARK    1  A    between atoms: C_1  and  O_2
REMARK    2  A    between atoms: O_2  and  C_3
REMARK    3  A    between atoms: C_5  and  C_18
REMARK    4  A    between atoms: C_8  and  O_9
REMARK    5  A    between atoms: O_9  and  C_10
REMARK    6  A    between atoms: C_10  and  C_11
REMARK    7  A    between atoms: C_18  and  C_19
REMARK    8  A    between atoms: C_19  and  N_20
REMARK                            x       y       z     vdW  Elec       q    Type
REMARK                         _______ _______ _______ _____ _____    ______ ____
ROOT
ATOM      1  C   UNL     1       0.626  -0.619   1.042  0.00  0.00    +0.163 A 
ATOM      2  C   UNL     1       1.202   0.137   2.051  0.00  0.00    +0.053 A 
ATOM      3  C   UNL     1       1.837  -0.489   3.108  0.00  0.00    -0.044 A 
ATOM      4  C   UNL     1       1.899  -1.869   3.161  0.00  0.00    +0.022 A 
ATOM      5  C   UNL     1       1.326  -2.630   2.158  0.00  0.00    +0.063 A 
ATOM      6  C   UNL     1       0.683  -2.008   1.099  0.00  0.00    +0.176 A 
ATOM      7 BR   UNL     1       1.414  -4.517   2.234  0.00  0.00    -0.046 Br
ENDROOT
BRANCH   1   9
ATOM      8  C   UNL     1      -0.017   1.425   0.010  0.00  0.00    +0.277 C 
ATOM      9  O   UNL     1       0.002  -0.004   0.002  0.00  0.00    -0.491 OA
ENDBRANCH   1   9
BRANCH   6  10
ATOM     10  O   UNL     1       0.114  -2.754   0.114  0.00  0.00    -0.482 OA
BRANCH  10  11
ATOM     11  C   UNL     1       0.939  -3.091  -1.003  0.00  0.00    +0.273 C 
BRANCH  11  12
ATOM     12  C   UNL     1       0.145  -3.913  -1.984  0.00  0.00    +0.041 A 
ATOM     13  C   UNL     1      -0.606  -3.499  -3.035  0.00  0.00    +0.031 A 
ATOM     14  C   UNL     1      -1.255  -4.443  -3.809  0.00  0.00    +0.023 A 
ATOM     15  C   UNL     1      -1.121  -5.755  -3.494  0.00  0.00    +0.046 A 
ATOM     16  S   UNL     1      -0.046  -5.686  -2.070  0.00  0.00    -0.097 S 
ATOM     17 BR   UNL     1      -0.763  -1.658  -3.435  0.00  0.00    -0.049 Br
ENDBRANCH  11  12
ENDBRANCH  10  11
ENDBRANCH   6  10
BRANCH   3  18
ATOM     18  C   UNL     1       2.463   0.335   4.203  0.00  0.00    +0.016 C 
BRANCH  18  19
ATOM     19  C   UNL     1       1.431   0.587   5.305  0.00  0.00    -0.082 C 
BRANCH  19  20
ATOM     20  N   UNL     1       2.042   1.390   6.373  0.00  0.00    +0.378 N 
ATOM     21  H   UNL     1       2.831   0.893   6.758  0.00  0.00    -0.090 HD
ATOM     22  H   UNL     1       2.352   2.272   5.995  0.00  0.00    -0.090 HD
ATOM     23  H   UNL     1       1.361   1.556   7.099  0.00  0.00    -0.090 HD
ENDBRANCH  19  20
ENDBRANCH  18  19
ENDBRANCH   3  18
TORSDOF 7
