REMARK  Name = ZINC06410233
REMARK  12 active torsions:
REMARK  status: ('A' for Active; 'I' for Inactive)
REMARK    1  A    between atoms: C_1  and  C_2
REMARK    2  A    between atoms: C_7  and  C_15
REMARK    3  A    between atoms: C_13  and  C_14
REMARK    4  A    between atoms: C_15  and  N_68
REMARK    5  A    between atoms: C_16  and  C_17
REMARK    6  A    between atoms: C_16  and  N_68
REMARK    7  A    between atoms: C_20  and  O_23
REMARK    8  A    between atoms: O_23  and  C_24
REMARK    9  A    between atoms: C_25  and  C_26
REMARK   10  A    between atoms: C_25  and  N_68
REMARK   11  A    between atoms: N_30  and  C_31
REMARK   12  A    between atoms: C_31  and  C_32
REMARK                            x       y       z     vdW  Elec       q    Type
REMARK                         _______ _______ _______ _____ _____    ______ ____
ROOT
ATOM      1  N   UNL     1       1.370   2.012   0.053  0.00  0.00    +0.390 N 
ATOM      2  H   UNL     1       2.162   1.589   0.550  0.00  0.00    -0.080 HD
ENDROOT
BRANCH   1   3
ATOM      3  C   UNL     1       1.227   3.418   0.485  0.00  0.00    -0.036 C 
BRANCH   3  10
ATOM      4  C   UNL     1       8.316   7.058   0.142  0.00  0.00    +0.044 C 
ATOM      5  C   UNL     1       6.938   6.465  -0.003  0.00  0.00    -0.046 A 
ATOM      6  C   UNL     1       6.199   6.718  -1.151  0.00  0.00    +0.004 A 
ATOM      7  C   UNL     1       4.948   6.190  -1.303  0.00  0.00    +0.010 A 
ATOM      8  C   UNL     1       4.407   5.387  -0.293  0.00  0.00    -0.001 A 
ATOM      9  C   UNL     1       3.072   4.800  -0.426  0.00  0.00    +0.017 A 
ATOM     10  C   UNL     1       2.598   4.034   0.588  0.00  0.00    +0.001 A 
ATOM     11  C   UNL     1       3.388   3.805   1.735  0.00  0.00    +0.251 A 
ATOM     12  O   UNL     1       2.944   3.109   2.632  0.00  0.00    -0.268 OA
ATOM     13  N   UNL     1       4.616   4.337   1.864  0.00  0.00    -0.322 N 
ATOM     14  H   UNL     1       5.131   4.160   2.667  0.00  0.00    +0.169 HD
ATOM     15  C   UNL     1       5.153   5.129   0.872  0.00  0.00    +0.052 A 
ATOM     16  C   UNL     1       6.425   5.678   1.005  0.00  0.00    -0.024 A 
ATOM     17  C   UNL     1       7.238   5.413   2.245  0.00  0.00    +0.046 C 
ENDBRANCH   3  10
ENDBRANCH   1   3
BRANCH   1  18
ATOM     18  C   UNL     1       1.629   1.955  -1.401  0.00  0.00    -0.042 C 
BRANCH  18  19
ATOM     19  C   UNL     1       0.465   2.526  -2.169  0.00  0.00    -0.064 A 
ATOM     20  C   UNL     1      -0.620   1.725  -2.474  0.00  0.00    +0.005 A 
ATOM     21  C   UNL     1      -1.691   2.248  -3.172  0.00  0.00    +0.046 A 
ATOM     22  C   UNL     1      -1.673   3.574  -3.578  0.00  0.00    +0.120 A 
ATOM     23  C   UNL     1      -0.580   4.374  -3.275  0.00  0.00    +0.046 A 
ATOM     24  C   UNL     1       0.486   3.848  -2.572  0.00  0.00    +0.005 A 
BRANCH  22  25
ATOM     25  O   UNL     1      -2.723   4.089  -4.270  0.00  0.00    -0.495 OA
ATOM     26  C   UNL     1      -3.761   3.181  -4.644  0.00  0.00    +0.277 C 
ENDBRANCH  22  25
ENDBRANCH  18  19
ENDBRANCH   1  18
BRANCH   1  27
ATOM     27  C   UNL     1       0.141   1.256   0.377  0.00  0.00    +0.001 C 
BRANCH  27  28
ATOM     28  C   UNL     1       0.393  -0.209   0.131  0.00  0.00    +0.135 A 
ATOM     29  N   UNL     1       0.174  -0.864  -0.983  0.00  0.00    -0.115 NA
ATOM     30  N   UNL     1       0.517  -2.092  -0.797  0.00  0.00    -0.023 NA
ATOM     31  N   UNL     1       0.942  -2.239   0.410  0.00  0.00    -0.044 NA
ATOM     32  N   UNL     1       0.881  -1.100   1.013  0.00  0.00    -0.229 N 
BRANCH  32  33
ATOM     33  C   UNL     1       1.270  -0.828   2.400  0.00  0.00    +0.178 C 
BRANCH  33  34
ATOM     34  C   UNL     1       0.064  -1.037   3.318  0.00  0.00    +0.140 C 
ATOM     35  C   UNL     1       0.432  -0.642   4.764  0.00  0.00    +0.035 C 
ATOM     36  C   UNL     1      -0.290  -1.734   5.598  0.00  0.00    +0.031 C 
ATOM     37  C   UNL     1      -0.167  -2.956   4.653  0.00  0.00    +0.160 C 
ATOM     38  O   UNL     1      -0.306  -2.421   3.328  0.00  0.00    -0.375 OA
ENDBRANCH  33  34
ENDBRANCH  32  33
ENDBRANCH  27  28
ENDBRANCH   1  27
TORSDOF 9
