REMARK  Name = ZINC30217327
REMARK  6 active torsions:
REMARK  status: ('A' for Active; 'I' for Inactive)
REMARK    1  A    between atoms: C_1  and  N_2
REMARK    2  A    between atoms: N_2  and  C_3
REMARK    3  A    between atoms: N_2  and  C_10
REMARK    4  A    between atoms: C_3  and  C_4
REMARK    5  A    between atoms: C_10  and  C_12
REMARK    6  A    between atoms: C_10  and  C_18
REMARK                            x       y       z     vdW  Elec       q    Type
REMARK                         _______ _______ _______ _____ _____    ______ ____
ROOT
ATOM      1  C   UNL     1      -2.942   3.127   1.439  0.00  0.00    +0.050 C 
ENDROOT
BRANCH   1   2
ATOM      2  C   UNL     1      -2.541   3.305   2.881  0.00  0.00    -0.052 A 
ATOM      3  C   UNL     1      -1.208   3.237   3.241  0.00  0.00    +0.002 A 
ATOM      4  C   UNL     1      -0.840   3.405   4.563  0.00  0.00    +0.000 A 
ATOM      5  C   UNL     1      -1.805   3.630   5.526  0.00  0.00    +0.000 A 
ATOM      6  C   UNL     1      -3.139   3.693   5.167  0.00  0.00    +0.000 A 
ATOM      7  C   UNL     1      -3.506   3.530   3.844  0.00  0.00    +0.002 A 
ENDBRANCH   1   2
BRANCH   1   8
ATOM      8  C   UNL     1      -2.657   4.396   0.678  0.00  0.00    +0.201 C 
ATOM      9  O   UNL     1      -1.596   4.535   0.107  0.00  0.00    -0.277 OA
ATOM     10  N   UNL     1      -3.581   5.376   0.632  0.00  0.00    -0.330 N 
ATOM     11  H   UNL     1      -3.373   6.302   0.076  0.00  0.00    +0.145 HD
ATOM     12  H   UNL     1      -4.543   5.249   1.150  0.00  0.00    +0.145 HD
ENDBRANCH   1   8
BRANCH   1  14
ATOM     13  C   UNL     1      -2.484   1.867  -0.577  0.00  0.00    -0.094 C 
ATOM     14  N   UNL     1      -2.176   2.020   0.851  0.00  0.00    +0.393 N 
ATOM     15  H   UNL     1      -1.107   2.264   0.941  0.00  0.00    -0.080 HD
BRANCH  14  16
ATOM     16  C   UNL     1      -2.416   0.767   1.579  0.00  0.00    -0.002 C 
BRANCH  16  17
ATOM     17  C   UNL     1      -1.440  -0.281   1.111  0.00  0.00    +0.090 A 
ATOM     18  C   UNL     1      -0.225  -0.515   1.639  0.00  0.00    +0.044 A 
ATOM     19  C   UNL     1       0.343  -1.581   0.904  0.00  0.00    +0.057 A 
ATOM     20  C   UNL     1      -0.560  -1.935  -0.030  0.00  0.00    +0.170 A 
ATOM     21  O   UNL     1      -1.637  -1.144   0.101  0.00  0.00    -0.455 OA
ATOM     22 BR   UNL     1      -0.347  -3.311  -1.309  0.00  0.00    -0.008 Br
ENDBRANCH  16  17
ENDBRANCH  14  16
ENDBRANCH   1  14
TORSDOF 5
