REMARK  Name = ZINC59073634
REMARK  9 active torsions:
REMARK  status: ('A' for Active; 'I' for Inactive)
REMARK    1  A    between atoms: C_1  and  C_2
REMARK    2  A    between atoms: C_2  and  C_3
REMARK    3  A    between atoms: C_2  and  C_4
REMARK    4  A    between atoms: C_4  and  O_5
REMARK    5  A    between atoms: O_5  and  C_6
REMARK    6  A    between atoms: C_6  and  C_8
REMARK    7  A    between atoms: C_8  and  N_19
REMARK    8  A    between atoms: C_9  and  C_10
REMARK    9  A    between atoms: C_20  and  C_22
REMARK                            x       y       z     vdW  Elec       q    Type
REMARK                         _______ _______ _______ _____ _____    ______ ____
ROOT
ATOM      1  C   UNL     1      -2.751  -4.001  -0.187  0.00  0.00    +0.119 C 
ATOM      2  C   UNL     1      -3.839  -4.808  -0.142  0.00  0.00    +0.038 C 
ENDROOT
BRANCH   2   3
ATOM      3  C   UNL     1      -5.182  -4.225  -0.020  0.00  0.00    -0.019 A 
ATOM      4  C   UNL     1      -5.441  -2.946  -0.527  0.00  0.00    +0.012 A 
ATOM      5  C   UNL     1      -6.702  -2.403  -0.411  0.00  0.00    +0.050 A 
ATOM      6  C   UNL     1      -7.718  -3.118   0.208  0.00  0.00    +0.166 A 
ATOM      7  C   UNL     1      -7.467  -4.393   0.717  0.00  0.00    +0.167 A 
ATOM      8  C   UNL     1      -6.208  -4.948   0.600  0.00  0.00    +0.057 A 
ATOM      9  O   UNL     1      -8.619  -4.876   1.269  0.00  0.00    -0.453 OA
ATOM     10  C   UNL     1      -9.465  -3.727   1.459  0.00  0.00    +0.466 C 
ATOM     11  O   UNL     1      -9.025  -2.806   0.443  0.00  0.00    -0.453 OA
ENDBRANCH   2   3
BRANCH   1  12
ATOM     12  N   UNL     1      -1.494  -4.537  -0.487  0.00  0.00    -0.273 N 
ATOM     13  C   UNL     1      -0.394  -3.763  -0.405  0.00  0.00    +0.284 C 
ATOM     14  O   UNL     1      -0.483  -2.621   0.009  0.00  0.00    -0.266 OA
ATOM     15  H   UNL     1      -1.414  -5.467  -0.754  0.00  0.00    +0.155 HD
BRANCH  13  16
ATOM     16  C   UNL     1       0.909  -4.295  -0.813  0.00  0.00    +0.191 A 
ATOM     17  C   UNL     1       2.098  -3.623  -0.775  0.00  0.00    +0.056 A 
ATOM     18  C   UNL     1       3.076  -4.507  -1.253  0.00  0.00    +0.058 A 
ATOM     19  C   UNL     1       2.450  -5.668  -1.557  0.00  0.00    +0.171 A 
ATOM     20  O   UNL     1       1.145  -5.537  -1.285  0.00  0.00    -0.444 OA
ATOM     21 BR   UNL     1       3.282  -7.220  -2.246  0.00  0.00    -0.008 Br
ENDBRANCH  13  16
ENDBRANCH   1  12
BRANCH   1  22
ATOM     22  C   UNL     1      -2.892  -2.565   0.078  0.00  0.00    +0.354 C 
ATOM     23  O   UNL     1      -2.562  -1.756  -0.767  0.00  0.00    -0.244 OA
BRANCH  22  24
ATOM     24  O   UNL     1      -3.388  -2.143   1.260  0.00  0.00    -0.460 OA
BRANCH  24  25
ATOM     25  C   UNL     1      -3.497  -0.731   1.450  0.00  0.00    +0.235 C 
BRANCH  25  27
ATOM     26  C   UNL     1      -4.075   1.062   3.090  0.00  0.00    +0.010 C 
ATOM     27  C   UNL     1      -4.074  -0.447   2.838  0.00  0.00    +0.020 C 
ATOM     28  C   UNL     1      -5.508  -0.977   2.912  0.00  0.00    +0.010 C 
ENDBRANCH  25  27
ENDBRANCH  24  25
ENDBRANCH  22  24
ENDBRANCH   1  22
TORSDOF 7
