REMARK  Name = ZINC65802776
REMARK  7 active torsions:
REMARK  status: ('A' for Active; 'I' for Inactive)
REMARK    1  A    between atoms: C_1  and  N_2
REMARK    2  A    between atoms: N_2  and  C_3
REMARK    3  A    between atoms: C_3  and  C_4
REMARK    4  A    between atoms: C_4  and  C_5
REMARK    5  A    between atoms: C_5  and  C_6
REMARK    6  A    between atoms: C_8  and  C_12
REMARK    7  A    between atoms: N_20  and  C_21
REMARK                            x       y       z     vdW  Elec       q    Type
REMARK                         _______ _______ _______ _____ _____    ______ ____
ROOT
ATOM      1  C   UNL     1       0.014  -0.744   1.267  0.00  0.00    +0.109 C 
ENDROOT
BRANCH   1   3
ATOM      2  C   UNL     1      -0.033   1.460   0.010  0.00  0.00    +0.133 C 
ATOM      3  N   UNL     1      -0.006  -0.004   0.002  0.00  0.00    -0.288 N 
ATOM      4  C   UNL     1      -0.001  -0.672  -1.169  0.00  0.00    +0.306 C 
ATOM      5  O   UNL     1       0.021  -1.887  -1.176  0.00  0.00    -0.252 OA
ATOM      6  N   UNL     1      -0.020   0.009  -2.332  0.00  0.00    -0.268 N 
ATOM      7  H   UNL     1      -0.106   0.975  -2.328  0.00  0.00    +0.156 HD
BRANCH   6   8
ATOM      8  C   UNL     1       0.083  -0.680  -3.547  0.00  0.00    +0.053 A 
ATOM      9  C   UNL     1      -0.496  -1.938  -3.698  0.00  0.00    +0.028 A 
ATOM     10  C   UNL     1      -0.367  -2.579  -4.919  0.00  0.00    +0.042 A 
ATOM     11  C   UNL     1       0.328  -1.955  -5.940  0.00  0.00    +0.129 A 
ATOM     12  N   UNL     1       0.865  -0.763  -5.764  0.00  0.00    -0.242 NA
ATOM     13  C   UNL     1       0.759  -0.116  -4.620  0.00  0.00    +0.135 A 
ATOM     14 CL   UNL     1       0.495  -2.751  -7.474  0.00  0.00    -0.062 Cl
ENDBRANCH   6   8
ENDBRANCH   1   3
BRANCH   1  15
ATOM     15  C   UNL     1      -1.421  -1.027   1.715  0.00  0.00    +0.025 C 
BRANCH  15  16
ATOM     16  C   UNL     1      -1.399  -1.799   3.036  0.00  0.00    +0.056 C 
BRANCH  16  17
ATOM     17  C   UNL     1      -2.812  -2.079   3.478  0.00  0.00    +0.037 A 
ATOM     18  C   UNL     1      -3.606  -1.239   4.178  0.00  0.00    +0.052 A 
ATOM     19  C   UNL     1      -4.842  -1.883   4.382  0.00  0.00    +0.093 A 
ATOM     20  N   UNL     1      -4.778  -3.070   3.817  0.00  0.00    -0.174 NA
ATOM     21  N   UNL     1      -3.510  -3.209   3.238  0.00  0.00    -0.281 N 
ATOM     22  H   UNL     1      -3.189  -3.985   2.752  0.00  0.00    +0.189 HD
BRANCH  19  23
ATOM     23  C   UNL     1      -6.010  -1.323   5.107  0.00  0.00    +0.002 A 
ATOM     24  C   UNL     1      -5.944  -0.044   5.655  0.00  0.00    +0.010 A 
ATOM     25  C   UNL     1      -7.033   0.473   6.328  0.00  0.00    +0.001 A 
ATOM     26  C   UNL     1      -8.188  -0.276   6.457  0.00  0.00    +0.000 A 
ATOM     27  C   UNL     1      -8.259  -1.547   5.915  0.00  0.00    +0.001 A 
ATOM     28  C   UNL     1      -7.178  -2.071   5.236  0.00  0.00    +0.010 A 
ENDBRANCH  19  23
ENDBRANCH  16  17
ENDBRANCH  15  16
ENDBRANCH   1  15
TORSDOF 6
