REMARK  Name = ZINC45167629
REMARK  10 active torsions:
REMARK  status: ('A' for Active; 'I' for Inactive)
REMARK    1  A    between atoms: C_1  and  C_2
REMARK    2  A    between atoms: C_2  and  C_3
REMARK    3  A    between atoms: C_2  and  C_4
REMARK    4  A    between atoms: C_2  and  O_5
REMARK    5  A    between atoms: O_5  and  C_6
REMARK    6  A    between atoms: C_10  and  C_17
REMARK    7  A    between atoms: N_20  and  C_23
REMARK    8  A    between atoms: C_23  and  C_24
REMARK    9  A    between atoms: C_24  and  C_25
REMARK   10  A    between atoms: C_25  and  C_26
REMARK                            x       y       z     vdW  Elec       q    Type
REMARK                         _______ _______ _______ _____ _____    ______ ____
ROOT
ATOM      1  C   UNL     1       2.935  -2.296  -5.621  0.00  0.00    +0.018 C 
ATOM      2  C   UNL     1       1.818  -1.702  -6.483  0.00  0.00    -0.011 C 
ATOM      3  C   UNL     1       1.618  -2.577  -7.723  0.00  0.00    -0.078 C 
ATOM      4  N   UNL     1       1.250  -3.937  -7.312  0.00  0.00    +0.380 N 
ATOM      5  C   UNL     1       2.347  -4.539  -6.545  0.00  0.00    -0.078 C 
ATOM      6  C   UNL     1       2.575  -3.740  -5.260  0.00  0.00    -0.011 C 
ATOM      7  H   UNL     1       0.420  -3.901  -6.739  0.00  0.00    -0.082 HD
ENDROOT
BRANCH   1  12
ATOM      8  C   UNL     1       1.952  -0.085  -1.337  0.00  0.00    +0.420 C 
ATOM      9  O   UNL     1       2.487   0.618  -0.504  0.00  0.00    -0.223 OA
ATOM     10  N   UNL     1       2.640  -0.485  -2.424  0.00  0.00    -0.251 N 
ATOM     11  C   UNL     1       2.139  -1.273  -3.431  0.00  0.00    +0.102 A 
ATOM     12  C   UNL     1       3.085  -1.484  -4.360  0.00  0.00    -0.019 A 
ATOM     13  C   UNL     1       4.287  -0.778  -3.920  0.00  0.00    +0.007 A 
ATOM     14  C   UNL     1       3.954  -0.159  -2.697  0.00  0.00    +0.076 A 
ATOM     15  C   UNL     1       4.923   0.593  -2.050  0.00  0.00    +0.109 A 
ATOM     16  N   UNL     1       6.125   0.724  -2.577  0.00  0.00    -0.365 N 
ATOM     17  C   UNL     1       6.464   0.159  -3.723  0.00  0.00    +0.083 A 
ATOM     18  C   UNL     1       5.577  -0.608  -4.427  0.00  0.00    +0.028 A 
ATOM     19  H   UNL     1       6.785   1.255  -2.105  0.00  0.00    +0.165 HD
BRANCH   8  20
ATOM     20  O   UNL     1       0.671  -0.465  -1.174  0.00  0.00    -0.442 OA
BRANCH  20  22
ATOM     21  C   UNL     1      -0.019   1.526   0.010  0.00  0.00    +0.055 C 
ATOM     22  C   UNL     1       0.002  -0.004   0.002  0.00  0.00    +0.107 C 
ATOM     23  C   UNL     1       0.742  -0.511   1.242  0.00  0.00    +0.055 C 
ATOM     24  C   UNL     1      -1.433  -0.534   0.013  0.00  0.00    +0.055 C 
ENDBRANCH  20  22
ENDBRANCH   8  20
ENDBRANCH   1  12
BRANCH   4  25
ATOM     25  C   UNL     1       0.983  -4.752  -8.505  0.00  0.00    -0.079 C 
BRANCH  25  26
ATOM     26  C   UNL     1       0.480  -6.132  -8.077  0.00  0.00    -0.017 C 
BRANCH  26  27
ATOM     27  C   UNL     1       0.202  -6.981  -9.319  0.00  0.00    +0.019 C 
BRANCH  27  28
ATOM     28  C   UNL     1      -0.301  -8.361  -8.892  0.00  0.00    +0.074 C 
ATOM     29  C   UNL     1      -1.600  -8.257  -8.107  0.00  0.00    +0.021 C 
ATOM     30  C   UNL     1      -2.841  -8.111  -8.966  0.00  0.00    +0.006 C 
ATOM     31  C   UNL     1      -2.642  -8.043 -10.477  0.00  0.00    +0.035 C 
ATOM     32  C   UNL     1      -1.692  -9.121 -10.904  0.00  0.00    -0.041 A 
ATOM     33  C   UNL     1      -0.590  -9.237 -10.081  0.00  0.00    -0.008 A 
ATOM     34  C   UNL     1       0.368 -10.230 -10.155  0.00  0.00    +0.038 A 
ATOM     35  C   UNL     1       0.298 -11.111 -11.236  0.00  0.00    +0.023 A 
ATOM     36  C   UNL     1      -0.766 -10.954 -12.117  0.00  0.00    +0.002 A 
ATOM     37  C   UNL     1      -1.754  -9.987 -11.961  0.00  0.00    +0.004 A 
ATOM     38  N   UNL     1       1.165 -10.153  -9.030  0.00  0.00    -0.284 N 
ATOM     39  C   UNL     1       0.783  -9.152  -8.193  0.00  0.00    +0.228 C 
ATOM     40  O   UNL     1       1.231  -8.933  -7.087  0.00  0.00    -0.274 OA
ATOM     41  H   UNL     1       1.912 -10.746  -8.856  0.00  0.00    +0.155 HD
ENDBRANCH  27  28
ENDBRANCH  26  27
ENDBRANCH  25  26
ENDBRANCH   4  25
TORSDOF 7
