REMARK  Name = ZINC08801623
REMARK  9 active torsions:
REMARK  status: ('A' for Active; 'I' for Inactive)
REMARK    1  A    between atoms: C_1  and  C_2
REMARK    2  A    between atoms: C_5  and  N_30
REMARK    3  A    between atoms: C_7  and  S_8
REMARK    4  A    between atoms: S_8  and  N_11
REMARK    5  A    between atoms: N_11  and  C_12
REMARK    6  A    between atoms: C_12  and  C_13
REMARK    7  A    between atoms: C_13  and  C_15
REMARK    8  A    between atoms: C_13  and  N_62
REMARK    9  A    between atoms: N_23  and  C_24
REMARK                            x       y       z     vdW  Elec       q    Type
REMARK                         _______ _______ _______ _____ _____    ______ ____
ROOT
ATOM      1  C   UNL     1       4.764   2.329   2.886  0.00  0.00    -0.022 C 
ENDROOT
BRANCH   1   2
ATOM      2  C   UNL     1       5.293   0.929   3.062  0.00  0.00    -0.059 A 
ATOM      3  C   UNL     1       4.523  -0.027   3.700  0.00  0.00    +0.004 A 
ATOM      4  C   UNL     1       5.001  -1.310   3.862  0.00  0.00    +0.023 A 
ATOM      5  C   UNL     1       6.269  -1.650   3.393  0.00  0.00    +0.033 A 
ATOM      6  C   UNL     1       7.035  -0.683   2.755  0.00  0.00    -0.025 A 
ATOM      7  C   UNL     1       6.551   0.598   2.592  0.00  0.00    +0.007 A 
ATOM      8  C   UNL     1       8.346  -1.322   2.343  0.00  0.00    +0.056 C 
ATOM      9  C   UNL     1       8.042  -2.833   2.457  0.00  0.00    +0.109 C 
ATOM     10  N   UNL     1       6.954  -2.870   3.459  0.00  0.00    -0.332 N 
ATOM     11  C   UNL     1       6.047  -3.998   3.210  0.00  0.00    +0.129 C 
ENDBRANCH   1   2
BRANCH   1  17
ATOM     12  C   UNL     1       3.361   4.021   3.899  0.00  0.00    -0.078 C 
ATOM     13  C   UNL     1       2.509   4.344   5.129  0.00  0.00    -0.019 C 
ATOM     14  C   UNL     1       3.411   4.415   6.364  0.00  0.00    -0.004 C 
ATOM     15  C   UNL     1       4.151   3.084   6.523  0.00  0.00    -0.019 C 
ATOM     16  C   UNL     1       4.955   2.798   5.253  0.00  0.00    -0.078 C 
ATOM     17  N   UNL     1       4.027   2.717   4.106  0.00  0.00    +0.385 N 
ATOM     18  H   UNL     1       3.313   2.006   4.304  0.00  0.00    -0.081 HD
ENDBRANCH   1  17
BRANCH   1  19
ATOM     19  C   UNL     1       3.809   2.367   1.692  0.00  0.00    +0.095 C 
BRANCH  19  20
ATOM     20  N   UNL     1       4.540   2.023   0.470  0.00  0.00    -0.191 NA
ATOM     21  H   UNL     1       5.509   2.054   0.460  0.00  0.00    +0.148 HD
BRANCH  20  22
ATOM     22  S   UNL     1       3.711   1.582  -0.895  0.00  0.00    +0.059 S 
ATOM     23  O   UNL     1       2.774   0.591  -0.498  0.00  0.00    -0.153 OA
ATOM     24  O   UNL     1       4.684   1.350  -1.904  0.00  0.00    -0.153 OA
BRANCH  22  31
ATOM     25  C   UNL     1       4.927   4.202  -1.792  0.00  0.00    +0.046 C 
ATOM     26  C   UNL     1       3.422   4.139  -1.804  0.00  0.00    -0.024 A 
ATOM     27  C   UNL     1       2.687   5.238  -2.210  0.00  0.00    +0.007 A 
ATOM     28  C   UNL     1       1.306   5.182  -2.216  0.00  0.00    +0.033 A 
ATOM     29  C   UNL     1       0.659   4.024  -1.827  0.00  0.00    +0.128 A 
ATOM     30  C   UNL     1       1.394   2.925  -1.423  0.00  0.00    +0.061 A 
ATOM     31  C   UNL     1       2.775   2.983  -1.411  0.00  0.00    +0.110 A 
BRANCH  29  32
ATOM     32  N   UNL     1      -0.819   3.962  -1.840  0.00  0.00    +0.056 N 
ATOM     33  O   UNL     1      -1.389   2.943  -1.494  0.00  0.00    -0.126 OA
ATOM     34  O   UNL     1      -1.466   4.930  -2.196  0.00  0.00    -0.126 OA
ENDBRANCH  29  32
ENDBRANCH  22  31
ENDBRANCH  20  22
ENDBRANCH  19  20
ENDBRANCH   1  19
TORSDOF 7
