REMARK  Name = ZINC39702877
REMARK  9 active torsions:
REMARK  status: ('A' for Active; 'I' for Inactive)
REMARK    1  A    between atoms: C_1  and  C_2
REMARK    2  A    between atoms: C_2  and  C_3
REMARK    3  A    between atoms: C_3  and  C_4
REMARK    4  A    between atoms: C_4  and  N_5
REMARK    5  A    between atoms: N_5  and  C_6
REMARK    6  A    between atoms: N_5  and  C_10
REMARK    7  A    between atoms: C_6  and  C_7
REMARK    8  A    between atoms: C_7  and  C_8
REMARK    9  A    between atoms: C_8  and  C_9
REMARK                            x       y       z     vdW  Elec       q    Type
REMARK                         _______ _______ _______ _____ _____    ______ ____
ROOT
ATOM      1  C   UNL     1       1.288  -3.943  -2.608  0.00  0.00    +0.096 C 
ATOM      2  C   UNL     1       0.615  -4.414  -3.665  0.00  0.00    +0.138 C 
ATOM      3  N   UNL     1       0.193  -3.534  -4.663  0.00  0.00    -0.269 N 
ATOM      4  C   UNL     1      -0.373  -4.003  -5.788  0.00  0.00    +0.228 C 
ATOM      5  O   UNL     1      -0.777  -3.220  -6.622  0.00  0.00    -0.275 OA
ATOM      6  C   UNL     1      -0.515  -5.472  -6.034  0.00  0.00    +0.131 C 
ATOM      7  C   UNL     1      -0.224  -6.271  -4.791  0.00  0.00    +0.063 C 
ATOM      8  N   UNL     1       0.356  -5.744  -3.756  0.00  0.00    -0.234 NA
ATOM      9  C   UNL     1      -0.623  -7.693  -4.785  0.00  0.00    +0.000 A 
ATOM     10  C   UNL     1      -0.150  -8.544  -3.784  0.00  0.00    +0.010 A 
ATOM     11  C   UNL     1      -0.531  -9.870  -3.777  0.00  0.00    +0.001 A 
ATOM     12  C   UNL     1      -1.380 -10.349  -4.761  0.00  0.00    +0.000 A 
ATOM     13  C   UNL     1      -1.847  -9.510  -5.755  0.00  0.00    +0.004 A 
ATOM     14  C   UNL     1      -1.473  -8.178  -5.780  0.00  0.00    -0.038 A 
ATOM     15  C   UNL     1      -1.984  -7.297  -6.886  0.00  0.00    +0.043 C 
ATOM     16  C   UNL     1      -1.935  -5.823  -6.482  0.00  0.00    -0.009 C 
ATOM     17  C   UNL     1      -2.913  -5.557  -5.336  0.00  0.00    +0.008 C 
ATOM     18  C   UNL     1      -4.333  -5.910  -5.785  0.00  0.00    +0.001 C 
ATOM     19  C   UNL     1      -4.715  -5.049  -6.991  0.00  0.00    +0.000 C 
ATOM     20  C   UNL     1      -3.736  -5.313  -8.137  0.00  0.00    +0.001 C 
ATOM     21  C   UNL     1      -2.317  -4.961  -7.687  0.00  0.00    +0.008 C 
ATOM     22  H   UNL     1       0.308  -2.578  -4.543  0.00  0.00    +0.156 HD
ENDROOT
BRANCH   1  23
ATOM     23  N   UNL     1       1.454  -2.564  -2.444  0.00  0.00    -0.396 NA
ATOM     24  H   UNL     1       1.085  -2.083  -3.250  0.00  0.00    +0.126 HD
BRANCH  23  25
ATOM     25  C   UNL     1       0.736  -2.125  -1.240  0.00  0.00    +0.084 C 
BRANCH  25  26
ATOM     26  C   UNL     1      -0.769  -2.308  -1.448  0.00  0.00    +0.017 C 
BRANCH  26  28
ATOM     27  C   UNL     1      -3.016  -2.117  -0.373  0.00  0.00    +0.004 C 
ATOM     28  C   UNL     1      -1.511  -1.933  -0.164  0.00  0.00    -0.002 C 
ENDBRANCH  26  28
ENDBRANCH  25  26
ENDBRANCH  23  25
BRANCH  23  29
ATOM     29  C   UNL     1       2.883  -2.257  -2.301  0.00  0.00    +0.084 C 
BRANCH  29  30
ATOM     30  C   UNL     1       3.611  -2.595  -3.604  0.00  0.00    +0.017 C 
BRANCH  30  31
ATOM     31  C   UNL     1       5.112  -2.365  -3.424  0.00  0.00    -0.002 C 
ATOM     32  C   UNL     1       5.840  -2.702  -4.727  0.00  0.00    +0.004 C 
ENDBRANCH  30  31
ENDBRANCH  29  30
ENDBRANCH  23  29
ENDBRANCH   1  23
TORSDOF 7
