REMARK  Name = ZINC44362114
REMARK  10 active torsions:
REMARK  status: ('A' for Active; 'I' for Inactive)
REMARK    1  A    between atoms: C_1  and  C_2
REMARK    2  A    between atoms: C_2  and  O_3
REMARK    3  A    between atoms: O_3  and  C_4
REMARK    4  A    between atoms: C_4  and  C_6
REMARK    5  A    between atoms: C_6  and  C_8
REMARK    6  A    between atoms: C_6  and  N_21
REMARK    7  A    between atoms: C_8  and  C_9
REMARK    8  A    between atoms: C_12  and  C_19
REMARK    9  A    between atoms: C_13  and  N_16
REMARK   10  A    between atoms: C_14  and  O_15
REMARK                            x       y       z     vdW  Elec       q    Type
REMARK                         _______ _______ _______ _____ _____    ______ ____
ROOT
ATOM      1  C   UNL     1      -4.890  -2.871  -1.368  0.00  0.00    -0.004 A 
ATOM      2  C   UNL     1      -5.179  -4.196  -1.633  0.00  0.00    +0.022 A 
ATOM      3  C   UNL     1      -6.490  -4.637  -1.604  0.00  0.00    +0.023 A 
ATOM      4  C   UNL     1      -7.513  -3.754  -1.310  0.00  0.00    -0.003 A 
ATOM      5  C   UNL     1      -7.228  -2.429  -1.045  0.00  0.00    +0.172 A 
ATOM      6  C   UNL     1      -5.914  -1.985  -1.068  0.00  0.00    +0.150 A 
ATOM      7  C   UNL     1      -8.940  -4.238  -1.281  0.00  0.00    +0.047 C 
ATOM      8 BR   UNL     1      -6.883  -6.451  -1.967  0.00  0.00    -0.050 Br
ENDROOT
BRANCH   5   9
ATOM      9  N   UNL     1      -8.324  -1.484  -0.731  0.00  0.00    +0.060 N 
ATOM     10  O   UNL     1      -8.674  -1.323   0.415  0.00  0.00    -0.126 OA
ATOM     11  O   UNL     1      -8.869  -0.874  -1.621  0.00  0.00    -0.126 OA
ENDBRANCH   5   9
BRANCH   6  12
ATOM     12  O   UNL     1      -5.631  -0.682  -0.802  0.00  0.00    -0.504 OA
ATOM     13  H   UNL     1      -5.633  -0.112  -1.583  0.00  0.00    +0.292 HD
ENDBRANCH   6  12
BRANCH   1  14
ATOM     14  C   UNL     1      -3.462  -2.390  -1.398  0.00  0.00    +0.033 C 
BRANCH  14  15
ATOM     15  C   UNL     1      -2.881  -2.427   0.017  0.00  0.00    +0.040 C 
BRANCH  15  16
ATOM     16  N   UNL     1      -2.813  -3.818   0.482  0.00  0.00    +0.387 N 
ATOM     17  H   UNL     1      -3.740  -4.216   0.489  0.00  0.00    -0.089 HD
ATOM     18  H   UNL     1      -2.222  -4.352  -0.138  0.00  0.00    -0.089 HD
ATOM     19  H   UNL     1      -2.429  -3.842   1.415  0.00  0.00    -0.089 HD
ENDBRANCH  15  16
BRANCH  15  20
ATOM     20  C   UNL     1      -1.496  -1.832   0.006  0.00  0.00    +0.293 C 
ATOM     21  O   UNL     1      -0.528  -2.555  -0.007  0.00  0.00    -0.253 OA
BRANCH  20  22
ATOM     22  O   UNL     1      -1.339  -0.499   0.012  0.00  0.00    -0.466 OA
BRANCH  22  24
ATOM     23  C   UNL     1      -0.019   1.526   0.010  0.00  0.00    +0.048 C 
ATOM     24  C   UNL     1       0.002  -0.004   0.002  0.00  0.00    +0.228 C 
ENDBRANCH  22  24
ENDBRANCH  20  22
ENDBRANCH  15  20
ENDBRANCH  14  15
ENDBRANCH   1  14
TORSDOF 8
