REMARK  Name = ZINC36562321
REMARK  14 active torsions:
REMARK  status: ('A' for Active; 'I' for Inactive)
REMARK    1  A    between atoms: C_1  and  C_2
REMARK    2  A    between atoms: C_2  and  C_3
REMARK    3  A    between atoms: C_3  and  N_4
REMARK    4  A    between atoms: N_4  and  C_5
REMARK    5  A    between atoms: C_5  and  C_7
REMARK    6  A    between atoms: C_5  and  C_16
REMARK    7  A    between atoms: C_10  and  O_15
REMARK    8  A    between atoms: C_11  and  O_13
REMARK    9  A    between atoms: O_13  and  C_14
REMARK   10  A    between atoms: N_18  and  C_19
REMARK   11  A    between atoms: C_25  and  C_27
REMARK   12  A    between atoms: C_35  and  C_37
REMARK   13  A    between atoms: C_38  and  C_39
REMARK   14  A    between atoms: C_38  and  C_40
REMARK                            x       y       z     vdW  Elec       q    Type
REMARK                         _______ _______ _______ _____ _____    ______ ____
ROOT
ATOM      1  C   UNL     1       0.043  -2.514  -1.963  0.00  0.00    +0.192 C 
ENDROOT
BRANCH   1   2
ATOM      2  C   UNL     1       0.746  -2.982  -3.211  0.00  0.00    -0.015 A 
ATOM      3  C   UNL     1       1.673  -2.163  -3.829  0.00  0.00    +0.010 A 
ATOM      4  C   UNL     1       2.321  -2.588  -4.974  0.00  0.00    +0.049 A 
ATOM      5  C   UNL     1       2.041  -3.837  -5.505  0.00  0.00    +0.158 A 
ATOM      6  C   UNL     1       1.108  -4.661  -4.883  0.00  0.00    +0.162 A 
ATOM      7  C   UNL     1       0.466  -4.231  -3.733  0.00  0.00    +0.055 A 
BRANCH   6   8
ATOM      8  O   UNL     1       0.831  -5.888  -5.401  0.00  0.00    -0.491 OA
ATOM      9  C   UNL     1      -0.138  -6.679  -4.710  0.00  0.00    +0.277 C 
ENDBRANCH   6   8
BRANCH   5  10
ATOM     10  O   UNL     1       2.677  -4.256  -6.632  0.00  0.00    -0.503 OA
ATOM     11  H   UNL     1       3.503  -4.731  -6.464  0.00  0.00    +0.292 HD
ENDBRANCH   5  10
ENDBRANCH   1   2
BRANCH   1  12
ATOM     12  C   UNL     1      -1.077  -1.578  -2.339  0.00  0.00    +0.238 C 
ATOM     13  O   UNL     1      -1.026  -0.411  -2.013  0.00  0.00    -0.273 OA
ATOM     14  N   UNL     1      -2.134  -2.037  -3.037  0.00  0.00    -0.311 N 
ATOM     15  H   UNL     1      -2.175  -2.970  -3.297  0.00  0.00    +0.149 HD
BRANCH  14  16
ATOM     16  C   UNL     1      -3.223  -1.127  -3.401  0.00  0.00    +0.073 C 
ATOM     17  C   UNL     1      -4.216  -1.029  -2.242  0.00  0.00    +0.022 C 
ATOM     18  C   UNL     1      -5.353  -0.079  -2.623  0.00  0.00    +0.002 C 
ATOM     19  C   UNL     1      -6.069  -0.612  -3.866  0.00  0.00    +0.000 C 
ATOM     20  C   UNL     1      -5.075  -0.709  -5.025  0.00  0.00    +0.002 C 
ATOM     21  C   UNL     1      -3.939  -1.660  -4.644  0.00  0.00    +0.022 C 
ENDBRANCH  14  16
ENDBRANCH   1  12
BRANCH   1  22
ATOM     22  N   UNL     1       0.996  -1.814  -1.099  0.00  0.00    -0.286 N 
ATOM     23  C   UNL     1       1.754  -2.510  -0.229  0.00  0.00    +0.220 C 
ATOM     24  O   UNL     1       1.618  -3.711  -0.132  0.00  0.00    -0.275 OA
BRANCH  23  25
ATOM     25  C   UNL     1       2.778  -1.791   0.630  0.00  0.00    +0.079 C 
ATOM     26  C   UNL     1       3.954  -1.380  -0.250  0.00  0.00    +0.017 C 
ATOM     27  C   UNL     1       5.298  -1.498   0.469  0.00  0.00    -0.004 C 
ATOM     28  C   UNL     1       5.553  -2.943   0.949  0.00  0.00    +0.008 C 
ATOM     29  C   UNL     1       4.664  -2.533   2.151  0.00  0.00    -0.001 C 
ATOM     30  C   UNL     1       3.194  -2.710   1.772  0.00  0.00    +0.001 C 
ATOM     31  C   UNL     1       2.290  -2.500   2.990  0.00  0.00    +0.008 C 
ATOM     32  C   UNL     1       5.242  -1.130   1.958  0.00  0.00    -0.029 C 
ATOM     33  C   UNL     1       6.639  -0.958   2.586  0.00  0.00    +0.011 C 
ATOM     34  C   UNL     1       4.341   0.049   2.310  0.00  0.00    +0.011 C 
ENDBRANCH  23  25
BRANCH  22  35
ATOM     35  C   UNL     1       1.125  -0.357  -1.181  0.00  0.00    +0.108 C 
BRANCH  35  37
ATOM     36  C   UNL     1       0.327   1.809  -0.224  0.00  0.00    +0.005 C 
ATOM     37  C   UNL     1       0.335   0.290  -0.041  0.00  0.00    +0.016 C 
ENDBRANCH  35  37
ENDBRANCH  22  35
ENDBRANCH   1  22
TORSDOF 9
