REMARK  Name = ZINC63303378
REMARK  6 active torsions:
REMARK  status: ('A' for Active; 'I' for Inactive)
REMARK    1  A    between atoms: C_1  and  C_2
REMARK    2  A    between atoms: C_7  and  S_12
REMARK    3  A    between atoms: S_12  and  C_13
REMARK    4  A    between atoms: C_13  and  C_14
REMARK    5  A    between atoms: N_19  and  S_21
REMARK    6  A    between atoms: S_21  and  C_24
REMARK                            x       y       z     vdW  Elec       q    Type
REMARK                         _______ _______ _______ _____ _____    ______ ____
ROOT
ATOM      1  C   UNL     1      -4.091  -4.910   1.844  0.00  0.00    +0.227 C 
ATOM      2  O   UNL     1      -4.084  -5.978   2.419  0.00  0.00    -0.275 OA
ATOM      3  N   UNL     1      -5.261  -4.324   1.526  0.00  0.00    -0.285 N 
ATOM      4  C   UNL     1      -5.446  -3.038   0.825  0.00  0.00    +0.126 C 
ATOM      5  C   UNL     1      -6.799  -2.517   1.347  0.00  0.00    +0.130 C 
ATOM      6  N   UNL     1      -7.563  -3.725   1.700  0.00  0.00    -0.158 NA
ATOM      7  C   UNL     1      -6.609  -4.840   1.801  0.00  0.00    +0.218 C 
ENDROOT
BRANCH   6   8
ATOM      8  S   UNL     1      -9.200  -3.814   1.934  0.00  0.00    +0.062 S 
ATOM      9  O   UNL     1      -9.430  -4.942   2.768  0.00  0.00    -0.153 OA
ATOM     10  O   UNL     1      -9.632  -2.507   2.285  0.00  0.00    -0.153 OA
BRANCH   8  11
ATOM     11  C   UNL     1      -9.930  -4.184   0.374  0.00  0.00    +0.106 A 
ATOM     12  C   UNL     1     -10.308  -3.159  -0.473  0.00  0.00    +0.028 A 
ATOM     13  C   UNL     1     -10.881  -3.450  -1.697  0.00  0.00    +0.002 A 
ATOM     14  C   UNL     1     -11.075  -4.765  -2.075  0.00  0.00    +0.000 A 
ATOM     15  C   UNL     1     -10.696  -5.790  -1.228  0.00  0.00    +0.002 A 
ATOM     16  C   UNL     1     -10.119  -5.500  -0.006  0.00  0.00    +0.028 A 
ENDBRANCH   8  11
ENDBRANCH   6   8
BRANCH   1  17
ATOM     17  C   UNL     1      -2.790  -4.240   1.485  0.00  0.00    +0.168 C 
BRANCH  17  18
ATOM     18  S   UNL     1      -1.405  -5.270   2.043  0.00  0.00    -0.106 S 
BRANCH  18  25
ATOM     19  C   UNL     1      -0.018   1.503   0.010  0.00  0.00    +0.044 C 
ATOM     20  C   UNL     1       0.002  -0.004   0.002  0.00  0.00    -0.048 A 
ATOM     21  C   UNL     1       0.005  -0.672  -1.235  0.00  0.00    +0.005 A 
ATOM     22  C   UNL     1       0.022  -2.017  -1.335  0.00  0.00    +0.028 A 
ATOM     23  C   UNL     1       0.040  -2.834  -0.114  0.00  0.00    +0.061 A 
ATOM     24  N   UNL     1       0.057  -4.120   0.090  0.00  0.00    -0.355 N 
ATOM     25  C   UNL     1       0.067  -4.335   1.542  0.00  0.00    +0.236 C 
ATOM     26  N   UNL     1       0.053  -3.002   2.159  0.00  0.00    -0.355 N 
ATOM     27  C   UNL     1       0.037  -2.127   1.195  0.00  0.00    +0.061 A 
ATOM     28  C   UNL     1       0.022  -0.657   1.181  0.00  0.00    +0.030 A 
ATOM     29  H   UNL     1       0.062  -4.809  -0.593  0.00  0.00    +0.162 HD
ATOM     30  H   UNL     1       0.055  -2.810   3.109  0.00  0.00    +0.162 HD
ENDBRANCH  18  25
ENDBRANCH  17  18
ENDBRANCH   1  17
TORSDOF 5
