REMARK  Name = ZINC04145253
REMARK  15 active torsions:
REMARK  status: ('A' for Active; 'I' for Inactive)
REMARK    1  A    between atoms: C_1  and  C_2
REMARK    2  A    between atoms: C_3  and  C_25
REMARK    3  A    between atoms: C_4  and  C_10
REMARK    4  A    between atoms: C_12  and  C_21
REMARK    5  A    between atoms: C_13  and  O_20
REMARK    6  A    between atoms: C_14  and  C_16
REMARK    7  A    between atoms: C_16  and  C_17
REMARK    8  A    between atoms: C_16  and  C_18
REMARK    9  A    between atoms: C_16  and  C_19
REMARK   10  A    between atoms: C_21  and  C_22
REMARK   11  A    between atoms: C_21  and  C_23
REMARK   12  A    between atoms: C_21  and  C_24
REMARK   13  A    between atoms: C_25  and  O_27
REMARK   14  A    between atoms: O_27  and  C_28
REMARK   15  A    between atoms: C_28  and  C_29
REMARK                            x       y       z     vdW  Elec       q    Type
REMARK                         _______ _______ _______ _____ _____    ______ ____
ROOT
ATOM      1  C   UNL     1       1.455  -0.273   4.401  0.00  0.00    +0.061 C 
ATOM      2  C   UNL     1       0.377   0.779   4.468  0.00  0.00    +0.021 C 
ATOM      3  C   UNL     1      -0.292   1.117   3.345  0.00  0.00    +0.078 C 
ATOM      4  C   UNL     1      -1.363   2.183   3.457  0.00  0.00    +0.144 C 
ATOM      5  N   UNL     1      -1.596   2.758   4.792  0.00  0.00    -0.288 N 
ATOM      6  C   UNL     1      -0.845   2.316   5.820  0.00  0.00    +0.304 C 
ATOM      7  O   UNL     1      -1.025   2.788   6.926  0.00  0.00    -0.252 OA
ATOM      8  N   UNL     1       0.094   1.374   5.664  0.00  0.00    -0.273 N 
ATOM      9  H   UNL     1      -2.271   3.441   4.928  0.00  0.00    +0.151 HD
ATOM     10  H   UNL     1       0.601   1.099   6.444  0.00  0.00    +0.156 HD
ENDROOT
BRANCH   4  11
ATOM     11  C   UNL     1      -2.663   1.587   2.980  0.00  0.00    -0.022 A 
ATOM     12  C   UNL     1      -3.371   0.729   3.801  0.00  0.00    +0.013 A 
ATOM     13  C   UNL     1      -4.566   0.186   3.369  0.00  0.00    +0.000 A 
ATOM     14  C   UNL     1      -5.049   0.493   2.105  0.00  0.00    +0.124 A 
ATOM     15  C   UNL     1      -4.333   1.350   1.281  0.00  0.00    +0.000 A 
ATOM     16  C   UNL     1      -3.142   1.894   1.720  0.00  0.00    +0.013 A 
BRANCH  15  17
ATOM     17  C   UNL     1      -4.856   1.686  -0.092  0.00  0.00    -0.009 C 
ATOM     18  C   UNL     1      -3.902   2.670  -0.773  0.00  0.00    +0.015 C 
ATOM     19  C   UNL     1      -4.953   0.408  -0.928  0.00  0.00    +0.015 C 
ATOM     20  C   UNL     1      -6.242   2.321   0.031  0.00  0.00    +0.015 C 
ENDBRANCH  15  17
BRANCH  13  21
ATOM     21  C   UNL     1      -5.340  -0.743   4.267  0.00  0.00    -0.009 C 
ATOM     22  C   UNL     1      -4.594  -0.913   5.592  0.00  0.00    +0.015 C 
ATOM     23  C   UNL     1      -6.727  -0.155   4.535  0.00  0.00    +0.015 C 
ATOM     24  C   UNL     1      -5.487  -2.106   3.587  0.00  0.00    +0.015 C 
ENDBRANCH  13  21
BRANCH  14  25
ATOM     25  O   UNL     1      -6.221  -0.044   1.676  0.00  0.00    -0.506 OA
ATOM     26  H   UNL     1      -6.121  -0.889   1.216  0.00  0.00    +0.292 HD
ENDBRANCH  14  25
ENDBRANCH   4  11
BRANCH   3  27
ATOM     27  C   UNL     1       0.001   0.501   2.106  0.00  0.00    +0.339 C 
ATOM     28  O   UNL     1       0.685   1.083   1.284  0.00  0.00    -0.245 OA
BRANCH  27  29
ATOM     29  O   UNL     1      -0.479  -0.730   1.834  0.00  0.00    -0.457 OA
BRANCH  29  30
ATOM     30  C   UNL     1      -0.065  -1.331   0.605  0.00  0.00    +0.259 C 
BRANCH  30  31
ATOM     31  C   UNL     1      -0.776  -2.647   0.425  0.00  0.00    +0.006 C 
ATOM     32  C   UNL     1      -1.290  -2.960  -0.738  0.00  0.00    +0.007 C 
ENDBRANCH  30  31
ENDBRANCH  29  30
ENDBRANCH  27  29
ENDBRANCH   3  27
TORSDOF 8
