REMARK  Name = ZINC06921358
REMARK  5 active torsions:
REMARK  status: ('A' for Active; 'I' for Inactive)
REMARK    1  A    between atoms: C_1  and  C_2
REMARK    2  A    between atoms: C_5  and  C_8
REMARK    3  A    between atoms: N_12  and  C_25
REMARK    4  A    between atoms: N_16  and  C_17
REMARK    5  A    between atoms: C_17  and  C_18
REMARK                            x       y       z     vdW  Elec       q    Type
REMARK                         _______ _______ _______ _____ _____    ______ ____
ROOT
ATOM      1  C   UNL     1      -2.553   3.869   0.045  0.00  0.00    +0.193 C 
ATOM      2  C   UNL     1      -3.093   3.938  -1.351  0.00  0.00    +0.241 C 
ATOM      3  O   UNL     1      -2.639   4.770  -2.109  0.00  0.00    -0.273 OA
ATOM      4  N   UNL     1      -4.053   3.122  -1.796  0.00  0.00    -0.288 N 
ATOM      5  C   UNL     1      -4.661   2.091  -0.966  0.00  0.00    +0.204 C 
ATOM      6  C   UNL     1      -4.440   2.365   0.491  0.00  0.00    +0.234 C 
ATOM      7  O   UNL     1      -5.166   1.827   1.300  0.00  0.00    -0.274 OA
ATOM      8  N   UNL     1      -3.476   3.177   0.935  0.00  0.00    -0.280 N 
ENDROOT
BRANCH   1  13
ATOM      9  C   UNL     1       2.490   1.048  -0.016  0.00  0.00    +0.044 C 
ATOM     10  C   UNL     1       1.175   1.783   0.000  0.00  0.00    -0.050 A 
ATOM     11  C   UNL     1      -0.013   1.076   0.008  0.00  0.00    +0.004 A 
ATOM     12  C   UNL     1      -1.219   1.751   0.017  0.00  0.00    +0.006 A 
ATOM     13  C   UNL     1      -1.238   3.133   0.030  0.00  0.00    -0.018 A 
ATOM     14  C   UNL     1      -0.050   3.840   0.022  0.00  0.00    +0.006 A 
ATOM     15  C   UNL     1       1.156   3.165   0.008  0.00  0.00    +0.004 A 
ENDBRANCH   1  13
BRANCH   4  16
ATOM     16  C   UNL     1      -4.515   3.272  -3.178  0.00  0.00    +0.077 C 
ATOM     17  C   UNL     1      -3.330   3.102  -4.152  0.00  0.00    +0.022 C 
ATOM     18  C   UNL     1      -3.614   4.130  -5.277  0.00  0.00    +0.002 C 
ATOM     19  C   UNL     1      -4.199   5.335  -4.500  0.00  0.00    +0.002 C 
ATOM     20  C   UNL     1      -5.067   4.691  -3.399  0.00  0.00    +0.022 C 
ENDBRANCH   4  16
BRANCH   8  21
ATOM     21  C   UNL     1      -3.341   3.381   2.380  0.00  0.00    +0.144 C 
BRANCH  21  22
ATOM     22  C   UNL     1      -4.191   4.552   2.803  0.00  0.00    -0.030 A 
ATOM     23  C   UNL     1      -3.655   5.826   2.812  0.00  0.00    +0.006 A 
ATOM     24  C   UNL     1      -4.434   6.901   3.195  0.00  0.00    +0.020 A 
ATOM     25  C   UNL     1      -5.748   6.701   3.579  0.00  0.00    +0.041 A 
ATOM     26  C   UNL     1      -6.282   5.424   3.575  0.00  0.00    +0.020 A 
ATOM     27  C   UNL     1      -5.503   4.351   3.187  0.00  0.00    +0.006 A 
ATOM     28 CL   UNL     1      -6.726   8.050   4.066  0.00  0.00    -0.084 Cl
ENDBRANCH  21  22
ENDBRANCH   8  21
TORSDOF 4
