REMARK  Name = ZINC41021386
REMARK  8 active torsions:
REMARK  status: ('A' for Active; 'I' for Inactive)
REMARK    1  A    between atoms: C_6  and  C_7
REMARK    2  A    between atoms: C_10  and  C_12
REMARK    3  A    between atoms: C_12  and  C_13
REMARK    4  A    between atoms: C_13  and  C_14
REMARK    5  A    between atoms: N_16  and  C_17
REMARK    6  A    between atoms: C_18  and  C_26
REMARK    7  A    between atoms: N_28  and  C_29
REMARK    8  A    between atoms: C_29  and  C_30
REMARK                            x       y       z     vdW  Elec       q    Type
REMARK                         _______ _______ _______ _____ _____    ______ ____
ROOT
ATOM      1  C   UNL     1      -4.949  -7.508  -2.583  0.00  0.00    +0.084 A 
ATOM      2  C   UNL     1      -5.290  -8.291  -3.674  0.00  0.00    +0.069 A 
ATOM      3  C   UNL     1      -5.857  -9.600  -3.402  0.00  0.00    -0.023 A 
ATOM      4  C   UNL     1      -5.980  -9.886  -2.088  0.00  0.00    -0.004 A 
ATOM      5  S   UNL     1      -5.351  -8.457  -1.256  0.00  0.00    -0.077 S 
ATOM      6  C   UNL     1      -6.527 -11.144  -1.488  0.00  0.00    +0.043 C 
ATOM      7  C   UNL     1      -7.279 -11.914  -2.585  0.00  0.00    +0.005 C 
ATOM      8  C   UNL     1      -6.398 -11.981  -3.835  0.00  0.00    +0.005 C 
ATOM      9  C   UNL     1      -6.288 -10.593  -4.471  0.00  0.00    +0.037 C 
ENDROOT
BRANCH   1  12
ATOM     10  C   UNL     1      -4.122  -5.619  -1.419  0.00  0.00    +0.218 C 
ATOM     11  O   UNL     1      -4.356  -6.176  -0.367  0.00  0.00    -0.275 OA
ATOM     12  N   UNL     1      -4.397  -6.236  -2.585  0.00  0.00    -0.279 N 
ATOM     13  H   UNL     1      -4.210  -5.790  -3.425  0.00  0.00    +0.155 HD
BRANCH  10  14
ATOM     14  C   UNL     1      -3.522  -4.236  -1.421  0.00  0.00    +0.105 C 
BRANCH  14  15
ATOM     15  C   UNL     1      -3.310  -3.770   0.021  0.00  0.00    +0.105 C 
BRANCH  15  19
ATOM     16  C   UNL     1      -1.266  -0.763   0.011  0.00  0.00    +0.155 A 
ATOM     17  C   UNL     1      -2.521  -0.244   0.020  0.00  0.00    +0.161 A 
ATOM     18  N   UNL     1      -3.383  -1.271   0.025  0.00  0.00    -0.221 NA
ATOM     19  C   UNL     1      -2.710  -2.388   0.018  0.00  0.00    +0.197 A 
ATOM     20  O   UNL     1      -1.400  -2.108   0.005  0.00  0.00    -0.440 OA
BRANCH  16  26
ATOM     21  C   UNL     1      -0.017   1.391   0.010  0.00  0.00    +0.013 A 
ATOM     22  C   UNL     1       1.170   2.095   0.002  0.00  0.00    +0.021 A 
ATOM     23  C   UNL     1       2.378   1.419  -0.013  0.00  0.00    +0.041 A 
ATOM     24  C   UNL     1       2.403   0.034  -0.021  0.00  0.00    +0.021 A 
ATOM     25  C   UNL     1       1.223  -0.680  -0.014  0.00  0.00    +0.013 A 
ATOM     26  C   UNL     1       0.002  -0.004   0.002  0.00  0.00    +0.019 A 
ATOM     27 CL   UNL     1       3.868   2.310  -0.022  0.00  0.00    -0.084 Cl
ENDBRANCH  16  26
ENDBRANCH  15  19
ENDBRANCH  14  15
ENDBRANCH  10  14
ENDBRANCH   1  12
BRANCH   2  28
ATOM     28  C   UNL     1      -5.087  -7.817  -5.047  0.00  0.00    +0.247 C 
ATOM     29  O   UNL     1      -4.035  -8.040  -5.618  0.00  0.00    -0.270 OA
ATOM     30  N   UNL     1      -6.064  -7.135  -5.676  0.00  0.00    -0.309 N 
ATOM     31  H   UNL     1      -6.902  -6.957  -5.221  0.00  0.00    +0.149 HD
BRANCH  30  32
ATOM     32  C   UNL     1      -5.861  -6.662  -7.048  0.00  0.00    +0.136 C 
BRANCH  32  33
ATOM     33  C   UNL     1      -7.114  -5.923  -7.523  0.00  0.00    +0.135 C 
ATOM     34  C   UNL     1      -6.956  -5.526  -9.007  0.00  0.00    +0.035 C 
ATOM     35  C   UNL     1      -7.599  -4.113  -9.040  0.00  0.00    +0.031 C 
ATOM     36  C   UNL     1      -7.207  -3.578  -7.639  0.00  0.00    +0.160 C 
ATOM     37  O   UNL     1      -7.284  -4.719  -6.766  0.00  0.00    -0.375 OA
ENDBRANCH  32  33
ENDBRANCH  30  32
ENDBRANCH   2  28
TORSDOF 8
