REMARK  Name = ZINC63478431
REMARK  6 active torsions:
REMARK  status: ('A' for Active; 'I' for Inactive)
REMARK    1  A    between atoms: C_3  and  C_6
REMARK    2  A    between atoms: N_10  and  C_14
REMARK    3  A    between atoms: C_14  and  C_15
REMARK    4  A    between atoms: N_17  and  C_18
REMARK    5  A    between atoms: C_18  and  C_19
REMARK    6  A    between atoms: C_19  and  C_20
REMARK                            x       y       z     vdW  Elec       q    Type
REMARK                         _______ _______ _______ _____ _____    ______ ____
ROOT
ATOM      1  C   UNL     1       8.808  -0.027   1.349  0.00  0.00    +0.231 C 
ATOM      2  O   UNL     1       8.029  -0.110   2.276  0.00  0.00    -0.274 OA
ATOM      3  N   UNL     1      10.129   0.096   1.588  0.00  0.00    -0.314 N 
ATOM      4  H   UNL     1      10.751   0.163   0.848  0.00  0.00    +0.149 HD
ENDROOT
BRANCH   1   5
ATOM      5  C   UNL     1       8.299  -0.062  -0.069  0.00  0.00    +0.213 C 
BRANCH   5  10
ATOM      6  C   UNL     1       3.678   1.649  -0.025  0.00  0.00    +0.035 C 
ATOM      7  C   UNL     1       4.666   0.710  -0.039  0.00  0.00    +0.080 C 
ATOM      8  C   UNL     1       6.083   0.882  -0.046  0.00  0.00    +0.261 C 
ATOM      9  O   UNL     1       6.580   1.994  -0.039  0.00  0.00    -0.269 OA
ATOM     10  N   UNL     1       6.840  -0.201  -0.060  0.00  0.00    -0.219 N 
ATOM     11  C   UNL     1       6.289  -1.435  -0.068  0.00  0.00    +0.286 C 
ATOM     12  O   UNL     1       6.843  -2.518  -0.081  0.00  0.00    -0.262 OA
ATOM     13  S   UNL     1       4.540  -1.073  -0.046  0.00  0.00    -0.026 S 
BRANCH   6  16
ATOM     14  C   UNL     1      -0.016   1.352   0.009  0.00  0.00    +0.008 A 
ATOM     15  C   UNL     1       1.175   2.037   0.002  0.00  0.00    +0.015 A 
ATOM     16  C   UNL     1       2.322   1.249  -0.013  0.00  0.00    +0.013 A 
ATOM     17  S   UNL     1       1.635  -0.396  -0.016  0.00  0.00    -0.097 S 
ATOM     18  C   UNL     1       0.002  -0.004   0.002  0.00  0.00    +0.046 A 
ENDBRANCH   6  16
ENDBRANCH   5  10
ENDBRANCH   1   5
BRANCH   3  19
ATOM     19  C   UNL     1      10.623   0.131   2.967  0.00  0.00    +0.108 C 
BRANCH  19  20
ATOM     20  C   UNL     1      12.146   0.276   2.958  0.00  0.00    +0.052 C 
BRANCH  20  21
ATOM     21  C   UNL     1      12.656   0.311   4.376  0.00  0.00    -0.040 C 
ATOM     22  C   UNL     1      13.126  -0.732   5.098  0.00  0.00    +0.000 A 
ATOM     23  C   UNL     1      13.296  -2.157   4.790  0.00  0.00    +0.030 A 
ATOM     24  C   UNL     1      13.804  -2.978   5.739  0.00  0.00    +0.042 A 
ATOM     25  C   UNL     1      14.170  -2.501   7.006  0.00  0.00    +0.022 A 
ATOM     26  C   UNL     1      14.043  -1.205   7.362  0.00  0.00    +0.027 A 
ATOM     27  C   UNL     1      13.520  -0.254   6.442  0.00  0.00    +0.043 A 
ATOM     28  N   UNL     1      13.303   1.034   6.548  0.00  0.00    -0.380 N 
ATOM     29  C   UNL     1      12.751   1.521   5.278  0.00  0.00    +0.144 C 
ATOM     30 CL   UNL     1      14.007  -4.664   5.379  0.00  0.00    -0.084 Cl
ATOM     31  H   UNL     1      13.480   1.576   7.332  0.00  0.00    +0.160 HD
ENDBRANCH  20  21
ENDBRANCH  19  20
ENDBRANCH   3  19
TORSDOF 6
