REMARK  Name = ZINC28464865
REMARK  10 active torsions:
REMARK  status: ('A' for Active; 'I' for Inactive)
REMARK    1  A    between atoms: C_1  and  C_2
REMARK    2  A    between atoms: C_3  and  O_26
REMARK    3  A    between atoms: C_6  and  C_9
REMARK    4  A    between atoms: C_7  and  O_8
REMARK    5  A    between atoms: C_10  and  C_16
REMARK    6  A    between atoms: C_18  and  C_22
REMARK    7  A    between atoms: C_20  and  C_21
REMARK    8  A    between atoms: C_22  and  O_24
REMARK    9  A    between atoms: O_24  and  C_25
REMARK   10  A    between atoms: O_26  and  C_27
REMARK                            x       y       z     vdW  Elec       q    Type
REMARK                         _______ _______ _______ _____ _____    ______ ____
ROOT
ATOM      1  C   UNL     1      -0.942   4.283  -0.497  0.00  0.00    +0.087 A 
ATOM      2  C   UNL     1      -0.495   4.074   0.823  0.00  0.00    +0.030 A 
ATOM      3  C   UNL     1       0.375   5.010   1.380  0.00  0.00    +0.125 A 
ATOM      4  N   UNL     1       0.745   6.055   0.659  0.00  0.00    -0.222 NA
ATOM      5  C   UNL     1       0.302   6.225  -0.579  0.00  0.00    +0.213 A 
ATOM      6  N   UNL     1      -0.526   5.365  -1.151  0.00  0.00    -0.214 NA
ATOM      7  N   UNL     1       0.718   7.335  -1.294  0.00  0.00    -0.327 N 
ATOM      8  H   UNL     1       0.360   7.492  -2.322  0.00  0.00    +0.145 HD
ATOM      9  H   UNL     1       1.405   8.060  -0.834  0.00  0.00    +0.145 HD
ENDROOT
BRANCH   1  15
ATOM     10  C   UNL     1      -2.142   1.391  -4.394  0.00  0.00    +0.051 C 
ATOM     11  C   UNL     1      -2.443   1.926  -3.018  0.00  0.00    +0.033 A 
ATOM     12  C   UNL     1      -3.588   1.516  -2.350  0.00  0.00    +0.126 A 
ATOM     13  C   UNL     1      -3.871   2.006  -1.081  0.00  0.00    +0.047 A 
ATOM     14  C   UNL     1      -3.015   2.903  -0.477  0.00  0.00    +0.017 A 
ATOM     15  C   UNL     1      -1.862   3.321  -1.141  0.00  0.00    +0.043 A 
ATOM     16  C   UNL     1      -1.581   2.831  -2.423  0.00  0.00    +0.132 A 
BRANCH  16  17
ATOM     17  O   UNL     1      -0.463   3.237  -3.077  0.00  0.00    -0.506 OA
ATOM     18  H   UNL     1       0.221   3.956  -2.603  0.00  0.00    +0.292 HD
ENDBRANCH  16  17
BRANCH  12  19
ATOM     19  O   UNL     1      -4.435   0.632  -2.938  0.00  0.00    -0.495 OA
ATOM     20  C   UNL     1      -5.595   0.252  -2.195  0.00  0.00    +0.277 C 
ENDBRANCH  12  19
ENDBRANCH   1  15
BRANCH   2  21
ATOM     21  C   UNL     1      -0.935   2.888   1.597  0.00  0.00    +0.027 A 
ATOM     22  C   UNL     1      -1.753   2.889   2.750  0.00  0.00    +0.065 A 
ATOM     23  C   UNL     1      -1.895   1.586   3.130  0.00  0.00    +0.212 A 
ATOM     24  O   UNL     1      -1.210   0.814   2.261  0.00  0.00    -0.453 OA
ATOM     25  C   UNL     1      -0.631   1.585   1.332  0.00  0.00    +0.111 A 
ATOM     26  C   UNL     1       0.220   1.096   0.188  0.00  0.00    +0.087 C 
BRANCH  23  27
ATOM     27  C   UNL     1      -2.659   1.107   4.284  0.00  0.00    +0.375 C 
ATOM     28  O   UNL     1      -3.239   1.901   5.001  0.00  0.00    -0.241 OA
BRANCH  27  29
ATOM     29  O   UNL     1      -2.720  -0.213   4.552  0.00  0.00    -0.462 OA
ATOM     30  C   UNL     1      -3.496  -0.615   5.712  0.00  0.00    +0.280 C 
ENDBRANCH  27  29
ENDBRANCH  23  27
ENDBRANCH   2  21
TORSDOF 6
