REMARK  Name = ZINC12329001
REMARK  10 active torsions:
REMARK  status: ('A' for Active; 'I' for Inactive)
REMARK    1  A    between atoms: C_1  and  C_2
REMARK    2  A    between atoms: C_2  and  O_3
REMARK    3  A    between atoms: O_3  and  C_4
REMARK    4  A    between atoms: C_4  and  C_5
REMARK    5  A    between atoms: C_7  and  C_13
REMARK    6  A    between atoms: C_10  and  O_11
REMARK    7  A    between atoms: O_11  and  C_12
REMARK    8  A    between atoms: C_13  and  N_14
REMARK    9  A    between atoms: C_22  and  C_24
REMARK   10  A    between atoms: C_22  and  O_31
REMARK                            x       y       z     vdW  Elec       q    Type
REMARK                         _______ _______ _______ _____ _____    ______ ____
ROOT
ATOM      1  N   UNL     1       4.485  -0.173  -5.090  0.00  0.00    +0.386 N 
ATOM      2  C   UNL     1       4.491   0.566  -3.800  0.00  0.00    -0.065 C 
ATOM      3  C   UNL     1       4.027   1.992  -4.176  0.00  0.00    -0.017 C 
ATOM      4  C   UNL     1       4.402   2.149  -5.665  0.00  0.00    -0.017 C 
ATOM      5  C   UNL     1       5.059   0.804  -6.052  0.00  0.00    -0.065 C 
ATOM      6  C   UNL     1       6.563   0.911  -5.750  0.00  0.00    +0.024 C 
ATOM      7  C   UNL     1       6.746   1.490  -4.344  0.00  0.00    +0.088 C 
ATOM      8  C   UNL     1       5.952   0.641  -3.326  0.00  0.00    +0.024 C 
ATOM      9  H   UNL     1       5.064  -0.998  -5.033  0.00  0.00    -0.081 HD
ENDROOT
BRANCH   7  10
ATOM     10  C   UNL     1       8.207   1.465  -3.978  0.00  0.00    -0.014 A 
ATOM     11  C   UNL     1       9.034   0.489  -4.501  0.00  0.00    +0.006 A 
ATOM     12  C   UNL     1      10.375   0.465  -4.166  0.00  0.00    +0.003 A 
ATOM     13  C   UNL     1      10.891   1.417  -3.307  0.00  0.00    +0.038 A 
ATOM     14  C   UNL     1      10.064   2.395  -2.783  0.00  0.00    +0.124 A 
ATOM     15  C   UNL     1       8.722   2.422  -3.124  0.00  0.00    +0.044 A 
ATOM     16  F   UNL     1      10.566   3.326  -1.943  0.00  0.00    -0.205 F 
ENDBRANCH   7  10
BRANCH   7  17
ATOM     17  O   UNL     1       6.273   2.839  -4.320  0.00  0.00    -0.384 OA
ATOM     18  H   UNL     1       6.358   3.270  -3.458  0.00  0.00    +0.211 HD
ENDBRANCH   7  17
BRANCH   1  19
ATOM     19  C   UNL     1       3.113  -0.531  -5.474  0.00  0.00    -0.042 C 
BRANCH  19  22
ATOM     20  C   UNL     1       1.467  -2.260  -2.550  0.00  0.00    +0.020 A 
ATOM     21  C   UNL     1       1.939  -1.271  -3.392  0.00  0.00    +0.011 A 
ATOM     22  C   UNL     1       2.600  -1.612  -4.557  0.00  0.00    -0.063 A 
ATOM     23  C   UNL     1       2.791  -2.942  -4.883  0.00  0.00    +0.005 A 
ATOM     24  C   UNL     1       2.322  -3.934  -4.044  0.00  0.00    +0.046 A 
ATOM     25  C   UNL     1       1.663  -3.595  -2.871  0.00  0.00    +0.125 A 
BRANCH  25  26
ATOM     26  O   UNL     1       1.205  -4.569  -2.042  0.00  0.00    -0.495 OA
ATOM     27  C   UNL     1       1.442  -5.922  -2.437  0.00  0.00    +0.277 C 
ENDBRANCH  25  26
BRANCH  20  28
ATOM     28  C   UNL     1       0.746  -1.888  -1.280  0.00  0.00    +0.198 C 
BRANCH  28  29
ATOM     29  O   UNL     1       0.671  -0.465  -1.174  0.00  0.00    -0.375 OA
BRANCH  29  31
ATOM     30  C   UNL     1      -0.019   1.526   0.010  0.00  0.00    +0.034 C 
ATOM     31  C   UNL     1       0.002  -0.004   0.002  0.00  0.00    +0.157 C 
ENDBRANCH  29  31
ENDBRANCH  28  29
ENDBRANCH  20  28
ENDBRANCH  19  22
ENDBRANCH   1  19
TORSDOF 8
