REMARK  Name = ZINC17093810
REMARK  11 active torsions:
REMARK  status: ('A' for Active; 'I' for Inactive)
REMARK    1  A    between atoms: C_1  and  C_2
REMARK    2  A    between atoms: C_5  and  N_9
REMARK    3  A    between atoms: C_6  and  C_8
REMARK    4  A    between atoms: N_9  and  C_10
REMARK    5  A    between atoms: C_10  and  N_12
REMARK    6  A    between atoms: N_12  and  N_13
REMARK    7  A    between atoms: C_14  and  C_16
REMARK    8  A    between atoms: C_16  and  C_17
REMARK    9  A    between atoms: C_17  and  N_18
REMARK   10  A    between atoms: C_19  and  C_25
REMARK   11  A    between atoms: C_21  and  C_23
REMARK                            x       y       z     vdW  Elec       q    Type
REMARK                         _______ _______ _______ _____ _____    ______ ____
ROOT
ATOM      1  N   UNL     1       1.108   2.389   0.389  0.00  0.00    -0.246 N 
ATOM      2  H   UNL     1       1.920   1.932   0.659  0.00  0.00    +0.172 HD
ENDROOT
BRANCH   1   3
ATOM      3  N   UNL     1       1.159   3.730  -0.013  0.00  0.00    -0.235 N 
ATOM      4  C   UNL     1       2.336   4.386  -0.024  0.00  0.00    +0.231 C 
ATOM      5  O   UNL     1       3.351   3.815   0.313  0.00  0.00    -0.274 OA
ATOM      6  H   UNL     1       0.346   4.186  -0.282  0.00  0.00    +0.173 HD
BRANCH   4   7
ATOM      7  C   UNL     1       2.391   5.828  -0.457  0.00  0.00    +0.120 C 
BRANCH   7   8
ATOM      8  C   UNL     1       3.834   6.330  -0.378  0.00  0.00    +0.153 C 
BRANCH   8   9
ATOM      9  N   UNL     1       3.887   7.732  -0.799  0.00  0.00    -0.267 N 
ATOM     10  C   UNL     1       3.750   8.808   0.005  0.00  0.00    +0.050 A 
ATOM     11  C   UNL     1       3.862   9.915  -0.765  0.00  0.00    +0.061 A 
ATOM     12  C   UNL     1       4.075   9.502  -2.085  0.00  0.00    +0.074 A 
ATOM     13  N   UNL     1       4.095   8.194  -2.105  0.00  0.00    -0.175 NA
ATOM     14  C   UNL     1       4.256  10.407  -3.276  0.00  0.00    +0.068 C 
ATOM     15 BR   UNL     1       3.750  11.705  -0.164  0.00  0.00    -0.047 Br
ATOM     16  C   UNL     1       3.516   8.781   1.494  0.00  0.00    +0.066 C 
ENDBRANCH   8   9
ENDBRANCH   7   8
ENDBRANCH   4   7
ENDBRANCH   1   3
BRANCH   1  17
ATOM     17  C   UNL     1      -0.070   1.733   0.401  0.00  0.00    +0.151 C 
ATOM     18  S   UNL     1      -0.132   0.094   0.892  0.00  0.00    -0.017 S 
BRANCH  17  19
ATOM     19  N   UNL     1      -1.197   2.366   0.021  0.00  0.00    -0.296 N 
ATOM     20  H   UNL     1      -1.177   3.314  -0.181  0.00  0.00    +0.154 HD
BRANCH  19  25
ATOM     21  C   UNL     1      -6.064  -0.519  -0.399  0.00  0.00    +0.044 C 
ATOM     22  C   UNL     1      -4.771   0.247  -0.288  0.00  0.00    -0.050 A 
ATOM     23  C   UNL     1      -3.603  -0.292  -0.796  0.00  0.00    +0.005 A 
ATOM     24  C   UNL     1      -2.417   0.408  -0.696  0.00  0.00    +0.024 A 
ATOM     25  C   UNL     1      -2.397   1.654  -0.083  0.00  0.00    +0.036 A 
ATOM     26  C   UNL     1      -3.571   2.190   0.431  0.00  0.00    -0.029 A 
ATOM     27  C   UNL     1      -4.755   1.488   0.323  0.00  0.00    +0.008 A 
ATOM     28  C   UNL     1      -3.553   3.539   1.103  0.00  0.00    +0.045 C 
ENDBRANCH  19  25
ENDBRANCH  17  19
ENDBRANCH   1  17
TORSDOF 7
