REMARK  Name = ZINC59790017
REMARK  9 active torsions:
REMARK  status: ('A' for Active; 'I' for Inactive)
REMARK    1  A    between atoms: C_3  and  C_10
REMARK    2  A    between atoms: C_5  and  N_7
REMARK    3  A    between atoms: C_13  and  S_16
REMARK    4  A    between atoms: N_14  and  N_15
REMARK    5  A    between atoms: S_16  and  C_17
REMARK    6  A    between atoms: C_17  and  C_18
REMARK    7  A    between atoms: N_20  and  C_21
REMARK    8  A    between atoms: C_24  and  S_27
REMARK    9  A    between atoms: S_27  and  N_30
REMARK                            x       y       z     vdW  Elec       q    Type
REMARK                         _______ _______ _______ _____ _____    ______ ____
ROOT
ATOM      1  C   UNL     1       7.708   4.931   0.046  0.00  0.00    +0.173 C 
ENDROOT
BRANCH   1   2
ATOM      2  C   UNL     1       8.521   6.189   0.219  0.00  0.00    +0.227 C 
ATOM      3  O   UNL     1       7.976   7.223   0.542  0.00  0.00    -0.275 OA
ATOM      4  N   UNL     1       9.853   6.164   0.015  0.00  0.00    -0.285 N 
ATOM      5  H   UNL     1      10.299   5.324  -0.176  0.00  0.00    +0.155 HD
BRANCH   4   6
ATOM      6  C   UNL     1      10.593   7.350   0.081  0.00  0.00    +0.034 A 
ATOM      7  C   UNL     1      11.678   7.541  -0.764  0.00  0.00    +0.025 A 
ATOM      8  C   UNL     1      12.406   8.712  -0.697  0.00  0.00    +0.030 A 
ATOM      9  C   UNL     1      12.056   9.695   0.210  0.00  0.00    +0.106 A 
ATOM     10  C   UNL     1      10.976   9.508   1.054  0.00  0.00    +0.030 A 
ATOM     11  C   UNL     1      10.240   8.341   0.988  0.00  0.00    +0.025 A 
BRANCH   9  12
ATOM     12  S   UNL     1      12.988  11.188   0.293  0.00  0.00    +0.061 S 
ATOM     13  O   UNL     1      12.792  11.717   1.597  0.00  0.00    -0.153 OA
ATOM     14  O   UNL     1      14.278  10.890  -0.223  0.00  0.00    -0.153 OA
BRANCH  12  15
ATOM     15  N   UNL     1      12.292  12.258  -0.762  0.00  0.00    -0.177 NA
ATOM     16  C   UNL     1      12.640  12.411  -2.182  0.00  0.00    +0.109 C 
ATOM     17  C   UNL     1      11.754  13.539  -2.752  0.00  0.00    +0.018 C 
ATOM     18  C   UNL     1      11.357  14.342  -1.486  0.00  0.00    +0.018 C 
ATOM     19  C   UNL     1      11.216  13.211  -0.434  0.00  0.00    +0.109 C 
ENDBRANCH  12  15
ENDBRANCH   9  12
ENDBRANCH   4   6
ENDBRANCH   1   2
BRANCH   1  20
ATOM     20  S   UNL     1       5.963   5.287   0.389  0.00  0.00    -0.075 S 
BRANCH  20  24
ATOM     21  C   UNL     1       3.661   2.154   0.000  0.00  0.00    +0.182 A 
ATOM     22  N   UNL     1       4.849   1.676  -0.288  0.00  0.00    -0.127 NA
ATOM     23  N   UNL     1       5.729   2.608  -0.201  0.00  0.00    -0.121 NA
ATOM     24  C   UNL     1       5.157   3.739   0.147  0.00  0.00    +0.209 A 
ATOM     25  N   UNL     1       3.821   3.491   0.282  0.00  0.00    -0.224 N 
BRANCH  21  28
ATOM     26  C   UNL     1      -0.012   1.370   0.033  0.00  0.00    +0.003 A 
ATOM     27  C   UNL     1       1.171   2.080   0.022  0.00  0.00    +0.012 A 
ATOM     28  C   UNL     1       2.389   1.400   0.013  0.00  0.00    +0.023 A 
ATOM     29  C   UNL     1       2.402   0.004   0.015  0.00  0.00    +0.044 A 
ATOM     30  C   UNL     1       1.213  -0.694   0.027  0.00  0.00    +0.127 A 
ATOM     31  C   UNL     1       0.008  -0.013   0.036  0.00  0.00    +0.033 A 
BRANCH  30  32
ATOM     32  N   UNL     1       1.225  -2.174   0.029  0.00  0.00    +0.056 N 
ATOM     33  O   UNL     1       2.276  -2.770   0.022  0.00  0.00    -0.126 OA
ATOM     34  O   UNL     1       0.183  -2.787   0.039  0.00  0.00    -0.126 OA
ENDBRANCH  30  32
ENDBRANCH  21  28
BRANCH  25  35
ATOM     35  N   UNL     1       2.847   4.384   0.628  0.00  0.00    -0.295 N 
ATOM     36  H   UNL     1       2.722   4.413   1.629  0.00  0.00    +0.163 HD
ATOM     37  H   UNL     1       3.052   5.302   0.263  0.00  0.00    +0.163 HD
ENDBRANCH  25  35
ENDBRANCH  20  24
ENDBRANCH   1  20
TORSDOF 9
