REMARK  Name = ZINC40031871
REMARK  12 active torsions:
REMARK  status: ('A' for Active; 'I' for Inactive)
REMARK    1  A    between atoms: C_1  and  C_2
REMARK    2  A    between atoms: C_2  and  C_3
REMARK    3  A    between atoms: C_3  and  C_4
REMARK    4  A    between atoms: C_4  and  C_5
REMARK    5  A    between atoms: C_5  and  C_6
REMARK    6  A    between atoms: C_6  and  O_7
REMARK    7  A    between atoms: O_7  and  C_8
REMARK    8  A    between atoms: C_11  and  C_16
REMARK    9  A    between atoms: C_13  and  O_14
REMARK   10  A    between atoms: O_14  and  C_15
REMARK   11  A    between atoms: N_31  and  C_32
REMARK   12  A    between atoms: C_32  and  C_33
REMARK                            x       y       z     vdW  Elec       q    Type
REMARK                         _______ _______ _______ _____ _____    ______ ____
ROOT
ATOM      1  C   UNL     1       2.664 -10.137   4.223  0.00  0.00    +0.145 C 
ATOM      2  C   UNL     1       1.372 -10.708   4.708  0.00  0.00    +0.072 A 
ATOM      3  C   UNL     1       0.614 -10.473   5.941  0.00  0.00    +0.199 A 
ATOM      4  O   UNL     1       0.882  -9.585   6.730  0.00  0.00    -0.287 OA
ATOM      5  C   UNL     1      -0.511 -11.422   6.137  0.00  0.00    +0.065 A 
ATOM      6  C   UNL     1      -1.200 -11.459   7.349  0.00  0.00    +0.030 A 
ATOM      7  C   UNL     1      -2.238 -12.350   7.516  0.00  0.00    +0.019 A 
ATOM      8  C   UNL     1      -2.593 -13.205   6.480  0.00  0.00    +0.019 A 
ATOM      9  C   UNL     1      -1.921 -13.176   5.280  0.00  0.00    +0.048 A 
ATOM     10  C   UNL     1      -0.869 -12.282   5.086  0.00  0.00    +0.140 A 
ATOM     11  O   UNL     1      -0.232 -12.267   3.892  0.00  0.00    -0.450 OA
ATOM     12  C   UNL     1       0.922 -11.584   3.761  0.00  0.00    +0.199 A 
ATOM     13  C   UNL     1       1.896 -11.611   2.656  0.00  0.00    +0.283 C 
ATOM     14  O   UNL     1       1.795 -12.292   1.655  0.00  0.00    -0.267 OA
ATOM     15  N   UNL     1       2.918 -10.768   2.917  0.00  0.00    -0.280 N 
ATOM     16 BR   UNL     1      -3.179 -12.409   9.155  0.00  0.00    -0.050 Br
ENDROOT
BRANCH   1  20
ATOM     17  C   UNL     1       2.324  -5.899   3.768  0.00  0.00    +0.162 A 
ATOM     18  C   UNL     1       1.782  -6.746   2.815  0.00  0.00    +0.050 A 
ATOM     19  C   UNL     1       1.894  -8.116   2.965  0.00  0.00    +0.009 A 
ATOM     20  C   UNL     1       2.545  -8.643   4.064  0.00  0.00    -0.019 A 
ATOM     21  C   UNL     1       3.087  -7.803   5.019  0.00  0.00    +0.055 A 
ATOM     22  C   UNL     1       2.984  -6.429   4.872  0.00  0.00    +0.162 A 
BRANCH  22  23
ATOM     23  O   UNL     1       3.522  -5.601   5.807  0.00  0.00    -0.491 OA
ATOM     24  C   UNL     1       4.185  -6.216   6.913  0.00  0.00    +0.277 C 
ENDBRANCH  22  23
BRANCH  17  25
ATOM     25  O   UNL     1       2.215  -4.551   3.622  0.00  0.00    -0.488 OA
BRANCH  25  26
ATOM     26  C   UNL     1       1.524  -4.077   2.464  0.00  0.00    +0.229 C 
BRANCH  26  27
ATOM     27  C   UNL     1       1.503  -2.548   2.473  0.00  0.00    +0.041 C 
BRANCH  27  28
ATOM     28  C   UNL     1       0.763  -2.041   1.233  0.00  0.00    +0.003 C 
BRANCH  28  29
ATOM     29  C   UNL     1       0.742  -0.511   1.242  0.00  0.00    -0.000 C 
BRANCH  29  31
ATOM     30  C   UNL     1      -0.019   1.526   0.010  0.00  0.00    +0.004 C 
ATOM     31  C   UNL     1       0.002  -0.004   0.002  0.00  0.00    -0.003 C 
ENDBRANCH  29  31
ENDBRANCH  28  29
ENDBRANCH  27  28
ENDBRANCH  26  27
ENDBRANCH  25  26
ENDBRANCH  17  25
ENDBRANCH   1  20
BRANCH  15  32
ATOM     32  C   UNL     1       4.077 -10.523   2.054  0.00  0.00    +0.136 C 
BRANCH  32  33
ATOM     33  C   UNL     1       5.177 -11.491   2.404  0.00  0.00    -0.016 C 
ATOM     34  C   UNL     1       5.699 -12.253   1.474  0.00  0.00    +0.005 C 
ENDBRANCH  32  33
ENDBRANCH  15  32
TORSDOF 10
