REMARK  Name = ZINC08767671
REMARK  8 active torsions:
REMARK  status: ('A' for Active; 'I' for Inactive)
REMARK    1  A    between atoms: C_1  and  C_2
REMARK    2  A    between atoms: C_5  and  C_8
REMARK    3  A    between atoms: C_8  and  O_37
REMARK    4  A    between atoms: C_9  and  C_31
REMARK    5  A    between atoms: C_11  and  C_17
REMARK    6  A    between atoms: C_20  and  C_22
REMARK    7  A    between atoms: C_26  and  N_28
REMARK    8  A    between atoms: C_31  and  C_33
REMARK                            x       y       z     vdW  Elec       q    Type
REMARK                         _______ _______ _______ _____ _____    ______ ____
ROOT
ATOM      1  C   UNL     1       2.866  -2.633   1.830  0.00  0.00    +0.172 C 
ATOM      2  C   UNL     1       4.390  -2.553   1.971  0.00  0.00    +0.147 C 
ATOM      3  C   UNL     1       4.953  -1.797   0.763  0.00  0.00    +0.156 C 
ATOM      4  N   UNL     1       4.508  -2.456  -0.466  0.00  0.00    -0.289 N 
ATOM      5  C   UNL     1       3.348  -3.127  -0.517  0.00  0.00    +0.303 C 
ATOM      6  O   UNL     1       3.020  -3.647  -1.566  0.00  0.00    -0.253 OA
ATOM      7  N   UNL     1       2.534  -3.247   0.543  0.00  0.00    -0.267 N 
ATOM      8  H   UNL     1       5.063  -2.406  -1.260  0.00  0.00    +0.151 HD
ATOM      9  H   UNL     1       1.710  -3.750   0.455  0.00  0.00    +0.153 HD
ENDROOT
BRANCH   1  14
ATOM     10  C   UNL     1       0.621   2.686   2.068  0.00  0.00    +0.044 C 
ATOM     11  C   UNL     1       1.207   1.299   2.006  0.00  0.00    -0.050 A 
ATOM     12  C   UNL     1       1.166   0.584   0.824  0.00  0.00    +0.004 A 
ATOM     13  C   UNL     1       1.703  -0.688   0.767  0.00  0.00    +0.008 A 
ATOM     14  C   UNL     1       2.281  -1.246   1.892  0.00  0.00    +0.003 A 
ATOM     15  C   UNL     1       2.317  -0.532   3.075  0.00  0.00    +0.008 A 
ATOM     16  C   UNL     1       1.785   0.742   3.131  0.00  0.00    +0.004 A 
ENDBRANCH   1  14
BRANCH   3  17
ATOM     17  C   UNL     1       4.453  -0.375   0.781  0.00  0.00    +0.127 A 
ATOM     18  C   UNL     1       4.480   0.454   1.843  0.00  0.00    +0.047 A 
ATOM     19  C   UNL     1       3.918   1.677   1.427  0.00  0.00    +0.050 A 
ATOM     20  C   UNL     1       3.576   1.526   0.120  0.00  0.00    +0.135 A 
ATOM     21  O   UNL     1       3.901   0.274  -0.257  0.00  0.00    -0.458 OA
BRANCH  20  22
ATOM     22  C   UNL     1       2.949   2.554  -0.737  0.00  0.00    +0.019 A 
ATOM     23  C   UNL     1       2.735   3.842  -0.243  0.00  0.00    +0.012 A 
ATOM     24  C   UNL     1       2.149   4.797  -1.048  0.00  0.00    +0.003 A 
ATOM     25  C   UNL     1       1.774   4.481  -2.342  0.00  0.00    +0.033 A 
ATOM     26  C   UNL     1       1.988   3.207  -2.839  0.00  0.00    +0.127 A 
ATOM     27  C   UNL     1       2.567   2.241  -2.042  0.00  0.00    +0.044 A 
BRANCH  26  28
ATOM     28  N   UNL     1       1.589   2.879  -4.226  0.00  0.00    +0.056 N 
ATOM     29  O   UNL     1       1.772   1.757  -4.663  0.00  0.00    -0.126 OA
ATOM     30  O   UNL     1       1.077   3.731  -4.930  0.00  0.00    -0.126 OA
ENDBRANCH  26  28
ENDBRANCH  20  22
ENDBRANCH   3  17
BRANCH   2  31
ATOM     31  C   UNL     1       4.968  -3.944   2.011  0.00  0.00    +0.245 C 
ATOM     32  O   UNL     1       4.406  -4.848   1.441  0.00  0.00    -0.287 OA
BRANCH  31  33
ATOM     33  C   UNL     1       6.247  -4.207   2.764  0.00  0.00    +0.451 C 
ATOM     34  F   UNL     1       7.213  -4.702   1.882  0.00  0.00    -0.163 F 
ATOM     35  F   UNL     1       6.705  -3.015   3.336  0.00  0.00    -0.163 F 
ATOM     36  F   UNL     1       6.010  -5.147   3.772  0.00  0.00    -0.163 F 
ENDBRANCH  31  33
ENDBRANCH   2  31
BRANCH   1  37
ATOM     37  O   UNL     1       2.329  -3.427   2.890  0.00  0.00    -0.367 OA
ATOM     38  H   UNL     1       1.367  -3.520   2.863  0.00  0.00    +0.212 HD
ENDBRANCH   1  37
TORSDOF 7
