REMARK  Name = ZINC14545771
REMARK  8 active torsions:
REMARK  status: ('A' for Active; 'I' for Inactive)
REMARK    1  A    between atoms: C_1  and  C_2
REMARK    2  A    between atoms: C_2  and  O_3
REMARK    3  A    between atoms: O_3  and  C_4
REMARK    4  A    between atoms: C_9  and  C_10
REMARK    5  A    between atoms: C_21  and  N_26
REMARK    6  A    between atoms: C_27  and  C_29
REMARK    7  A    between atoms: C_29  and  C_30
REMARK    8  A    between atoms: C_29  and  C_31
REMARK                            x       y       z     vdW  Elec       q    Type
REMARK                         _______ _______ _______ _____ _____    ______ ____
ROOT
ATOM      1  C   UNL     1      -0.757   0.795   2.495  0.00  0.00    +0.108 C 
ATOM      2  C   UNL     1      -0.800   1.633   1.221  0.00  0.00    +0.029 C 
ATOM      3  C   UNL     1      -0.005   1.095   0.024  0.00  0.00    +0.033 C 
ATOM      4  C   UNL     1      -0.822   1.628  -1.155  0.00  0.00    -0.030 C 
ATOM      5  C   UNL     1      -2.082   1.818  -0.784  0.00  0.00    -0.023 C 
ATOM      6  C   UNL     1      -2.227   1.405   0.635  0.00  0.00    +0.049 C 
ATOM      7  C   UNL     1      -3.184   2.068   1.548  0.00  0.00    -0.018 A 
ATOM      8  C   UNL     1      -4.323   2.697   1.095  0.00  0.00    +0.029 A 
ATOM      9  C   UNL     1      -5.197   3.294   1.992  0.00  0.00    +0.034 A 
ATOM     10  C   UNL     1      -4.922   3.256   3.353  0.00  0.00    +0.025 A 
ATOM     11  C   UNL     1      -3.780   2.632   3.811  0.00  0.00    +0.025 A 
ATOM     12  C   UNL     1      -2.897   2.038   2.917  0.00  0.00    +0.031 A 
ATOM     13  N   UNL     1      -1.725   1.443   3.407  0.00  0.00    -0.336 N 
ATOM     14  H   UNL     1      -1.547   1.455   4.360  0.00  0.00    +0.147 HD
ENDROOT
BRANCH   1  20
ATOM     15  C   UNL     1      -0.218  -1.569   1.856  0.00  0.00    +0.125 A 
ATOM     16  C   UNL     1      -0.601  -2.879   1.607  0.00  0.00    +0.046 A 
ATOM     17  C   UNL     1      -1.927  -3.244   1.727  0.00  0.00    +0.004 A 
ATOM     18  C   UNL     1      -2.874  -2.305   2.095  0.00  0.00    +0.001 A 
ATOM     19  C   UNL     1      -2.494  -1.000   2.348  0.00  0.00    +0.009 A 
ATOM     20  C   UNL     1      -1.169  -0.629   2.224  0.00  0.00    +0.015 A 
BRANCH  15  21
ATOM     21  O   UNL     1       1.087  -1.207   1.738  0.00  0.00    -0.492 OA
BRANCH  21  23
ATOM     22  C   UNL     1       3.420  -1.635   1.275  0.00  0.00    +0.048 C 
ATOM     23  C   UNL     1       2.011  -2.227   1.355  0.00  0.00    +0.225 C 
ENDBRANCH  21  23
ENDBRANCH  15  21
ENDBRANCH   1  20
BRANCH   9  24
ATOM     24  N   UNL     1      -6.354   3.934   1.527  0.00  0.00    -0.285 N 
ATOM     25  C   UNL     1      -7.488   3.888   2.254  0.00  0.00    +0.220 C 
ATOM     26  O   UNL     1      -7.486   3.366   3.348  0.00  0.00    -0.275 OA
ATOM     27  H   UNL     1      -6.338   4.410   0.682  0.00  0.00    +0.155 HD
BRANCH  25  28
ATOM     28  C   UNL     1      -8.758   4.486   1.706  0.00  0.00    +0.069 C 
ATOM     29  C   UNL     1      -9.129   3.785   0.398  0.00  0.00    +0.017 C 
ATOM     30  C   UNL     1      -9.888   4.301   2.721  0.00  0.00    +0.017 C 
ENDBRANCH  25  28
ENDBRANCH   9  24
TORSDOF 5
