REMARK  Name = ZINC20157676
REMARK  10 active torsions:
REMARK  status: ('A' for Active; 'I' for Inactive)
REMARK    1  A    between atoms: C_1  and  C_2
REMARK    2  A    between atoms: C_2  and  C_3
REMARK    3  A    between atoms: C_2  and  C_4
REMARK    4  A    between atoms: C_14  and  C_40
REMARK    5  A    between atoms: C_18  and  C_19
REMARK    6  A    between atoms: C_18  and  C_20
REMARK    7  A    between atoms: C_20  and  N_21
REMARK    8  A    between atoms: N_21  and  C_22
REMARK    9  A    between atoms: N_32  and  C_33
REMARK   10  A    between atoms: C_33  and  C_34
REMARK                            x       y       z     vdW  Elec       q    Type
REMARK                         _______ _______ _______ _____ _____    ______ ____
ROOT
ATOM      1  C   UNL     1      -0.769   1.385  -1.641  0.00  0.00    -0.073 C 
ENDROOT
BRANCH   1  15
ATOM      2  C   UNL     1      -6.037   5.348  -4.208  0.00  0.00    -0.045 A 
ATOM      3  C   UNL     1      -5.058   5.980  -3.463  0.00  0.00    +0.004 A 
ATOM      4  C   UNL     1      -4.150   5.226  -2.749  0.00  0.00    +0.005 A 
ATOM      5  C   UNL     1      -4.214   3.839  -2.771  0.00  0.00    -0.038 A 
ATOM      6  C   UNL     1      -5.182   3.209  -3.519  0.00  0.00    -0.043 A 
ATOM      7  C   UNL     1      -6.097   3.971  -4.236  0.00  0.00    +0.007 A 
ATOM      8  C   UNL     1      -5.303   1.710  -3.603  0.00  0.00    +0.036 C 
ATOM      9  C   UNL     1      -4.515   1.037  -2.480  0.00  0.00    +0.009 C 
ATOM     10  C   UNL     1      -3.110   1.640  -2.453  0.00  0.00    +0.004 C 
ATOM     11  C   UNL     1      -3.205   3.076  -1.947  0.00  0.00    -0.004 C 
ATOM     12  C   UNL     1      -3.668   3.086  -0.487  0.00  0.00    +0.011 C 
ATOM     13  C   UNL     1      -2.698   2.275   0.372  0.00  0.00    +0.001 C 
ATOM     14  C   UNL     1      -2.674   0.828  -0.127  0.00  0.00    +0.005 C 
ATOM     15  C   UNL     1      -2.184   0.807  -1.576  0.00  0.00    -0.044 C 
ATOM     16  C   UNL     1      -2.167  -0.636  -2.083  0.00  0.00    +0.009 C 
ATOM     17  C   UNL     1      -1.836   3.750  -2.060  0.00  0.00    +0.016 C 
BRANCH   2  19
ATOM     18  C   UNL     1      -7.823   7.059  -4.028  0.00  0.00    +0.012 C 
ATOM     19  C   UNL     1      -7.037   6.163  -4.987  0.00  0.00    +0.013 C 
ATOM     20  C   UNL     1      -6.301   7.032  -6.009  0.00  0.00    +0.012 C 
ENDBRANCH   2  19
ENDBRANCH   1  15
BRANCH   1  21
ATOM     21  N   UNL     1       0.158   0.489  -0.936  0.00  0.00    +0.394 N 
ATOM     22  H   UNL     1      -0.151   0.395   0.115  0.00  0.00    -0.083 HD
ATOM     23  H   UNL     1       0.144  -0.502  -1.413  0.00  0.00    -0.083 HD
BRANCH  21  24
ATOM     24  C   UNL     1       1.530   1.013  -0.978  0.00  0.00    +0.046 C 
ATOM     25  C   UNL     1       2.178   0.883   0.374  0.00  0.00    -0.059 C 
ATOM     26  C   UNL     1       3.244   0.092   0.230  0.00  0.00    +0.014 C 
ATOM     27  C   UNL     1       4.169  -0.286   1.363  0.00  0.00    +0.040 C 
ATOM     28  C   UNL     1       3.939   0.686   2.525  0.00  0.00    +0.005 C 
ATOM     29  C   UNL     1       2.439   0.778   2.824  0.00  0.00    +0.005 C 
ATOM     30  C   UNL     1       1.737   1.506   1.671  0.00  0.00    +0.031 C 
ATOM     31  C   UNL     1       3.356  -0.326  -1.170  0.00  0.00    +0.241 C 
ATOM     32  O   UNL     1       4.226  -1.050  -1.614  0.00  0.00    -0.270 OA
ATOM     33  N   UNL     1       2.353   0.209  -1.894  0.00  0.00    -0.305 N 
BRANCH  33  34
ATOM     34  C   UNL     1       2.124   0.023  -3.329  0.00  0.00    +0.138 C 
BRANCH  34  35
ATOM     35  C   UNL     1       2.863   1.114  -4.108  0.00  0.00    +0.136 C 
ATOM     36  C   UNL     1       2.535   1.014  -5.614  0.00  0.00    +0.035 C 
ATOM     37  C   UNL     1       3.868   1.367  -6.312  0.00  0.00    +0.031 C 
ATOM     38  C   UNL     1       4.843   1.638  -5.145  0.00  0.00    +0.160 C 
ATOM     39  O   UNL     1       4.290   0.911  -4.026  0.00  0.00    -0.375 OA
ENDBRANCH  34  35
ENDBRANCH  33  34
ENDBRANCH  21  24
ENDBRANCH   1  21
TORSDOF 6
