REMARK  Name = ZINC35304160
REMARK  11 active torsions:
REMARK  status: ('A' for Active; 'I' for Inactive)
REMARK    1  A    between atoms: C_1  and  C_2
REMARK    2  A    between atoms: C_2  and  N_3
REMARK    3  A    between atoms: C_4  and  C_36
REMARK    4  A    between atoms: C_5  and  C_31
REMARK    5  A    between atoms: C_6  and  C_11
REMARK    6  A    between atoms: C_14  and  N_17
REMARK    7  A    between atoms: N_17  and  S_18
REMARK    8  A    between atoms: S_18  and  C_21
REMARK    9  A    between atoms: C_31  and  O_33
REMARK   10  A    between atoms: O_33  and  C_34
REMARK   11  A    between atoms: C_34  and  C_35
REMARK                            x       y       z     vdW  Elec       q    Type
REMARK                         _______ _______ _______ _____ _____    ______ ____
ROOT
ATOM      1  C   UNL     1       2.796  -0.936   4.463  0.00  0.00    -0.022 A 
ATOM      2  C   UNL     1       2.753   0.435   4.636  0.00  0.00    +0.008 A 
ATOM      3  C   UNL     1       3.517   1.033   5.619  0.00  0.00    +0.027 A 
ATOM      4  C   UNL     1       4.328   0.256   6.435  0.00  0.00    +0.074 A 
ATOM      5  C   UNL     1       4.368  -1.122   6.260  0.00  0.00    +0.027 A 
ATOM      6  C   UNL     1       3.598  -1.714   5.278  0.00  0.00    +0.008 A 
ENDROOT
BRANCH   1  10
ATOM      7  N   UNL     1       0.774  -0.299   1.248  0.00  0.00    -0.286 N 
ATOM      8  C   UNL     1       2.039  -0.779   1.072  0.00  0.00    +0.021 C 
ATOM      9  C   UNL     1       2.687  -1.419   2.070  0.00  0.00    +0.078 C 
ATOM     10  C   UNL     1       1.961  -1.585   3.389  0.00  0.00    +0.141 C 
ATOM     11  N   UNL     1       0.600  -1.031   3.476  0.00  0.00    -0.315 N 
ATOM     12  C   UNL     1       0.089  -0.413   2.393  0.00  0.00    +0.138 C 
ATOM     13  S   UNL     1      -1.491   0.242   2.481  0.00  0.00    -0.018 S 
ATOM     14  C   UNL     1       2.724  -0.592  -0.257  0.00  0.00    +0.061 C 
ATOM     15  H   UNL     1       0.084  -1.106   4.295  0.00  0.00    +0.149 HD
BRANCH   7  17
ATOM     16  C   UNL     1      -0.523  -0.649  -0.796  0.00  0.00    +0.025 C 
ATOM     17  C   UNL     1       0.131   0.385   0.123  0.00  0.00    +0.109 C 
ENDBRANCH   7  17
BRANCH   9  18
ATOM     18  C   UNL     1       3.998  -1.918   1.888  0.00  0.00    +0.339 C 
ATOM     19  O   UNL     1       4.561  -1.774   0.819  0.00  0.00    -0.245 OA
BRANCH  18  20
ATOM     20  O   UNL     1       4.624  -2.554   2.901  0.00  0.00    -0.462 OA
BRANCH  20  21
ATOM     21  C   UNL     1       5.946  -3.032   2.647  0.00  0.00    +0.229 C 
ATOM     22  C   UNL     1       6.489  -3.720   3.901  0.00  0.00    +0.048 C 
ENDBRANCH  20  21
ENDBRANCH  18  20
ENDBRANCH   9  18
ENDBRANCH   1  10
BRANCH   4  23
ATOM     23  N   UNL     1       5.102   0.857   7.430  0.00  0.00    -0.098 NA
BRANCH  23  24
ATOM     24  S   UNL     1       6.068  -0.072   8.403  0.00  0.00    +0.094 S 
ATOM     25  O   UNL     1       5.200  -0.882   9.183  0.00  0.00    -0.148 OA
ATOM     26  O   UNL     1       7.077  -0.622   7.566  0.00  0.00    -0.148 OA
BRANCH  24  27
ATOM     27  C   UNL     1       6.882   1.019   9.523  0.00  0.00    +0.136 A 
ATOM     28  C   UNL     1       6.631   0.939  10.858  0.00  0.00    +0.031 A 
ATOM     29  C   UNL     1       7.263   1.791  11.761  0.00  0.00    +0.003 A 
ATOM     30  C   UNL     1       8.152   2.729  11.331  0.00  0.00    +0.010 A 
ATOM     31  C   UNL     1       8.436   2.839   9.961  0.00  0.00    +0.002 A 
ATOM     32  C   UNL     1       7.798   1.970   9.041  0.00  0.00    +0.098 A 
ATOM     33  N   UNL     1       8.068   2.068   7.735  0.00  0.00    -0.253 NA
ATOM     34  C   UNL     1       8.921   2.954   7.281  0.00  0.00    +0.111 A 
ATOM     35  C   UNL     1       9.586   3.835   8.131  0.00  0.00    +0.020 A 
ATOM     36  C   UNL     1       9.348   3.796   9.476  0.00  0.00    +0.011 A 
ENDBRANCH  24  27
ENDBRANCH  23  24
ENDBRANCH   4  23
TORSDOF 8
