REMARK  Name = ZINC05129037
REMARK  9 active torsions:
REMARK  status: ('A' for Active; 'I' for Inactive)
REMARK    1  A    between atoms: C_1  and  C_2
REMARK    2  A    between atoms: C_3  and  C_23
REMARK    3  A    between atoms: C_4  and  C_16
REMARK    4  A    between atoms: C_10  and  C_14
REMARK    5  A    between atoms: C_10  and  C_15
REMARK    6  A    between atoms: C_20  and  O_22
REMARK    7  A    between atoms: C_23  and  O_25
REMARK    8  A    between atoms: O_25  and  C_26
REMARK    9  A    between atoms: C_26  and  C_27
REMARK                            x       y       z     vdW  Elec       q    Type
REMARK                         _______ _______ _______ _____ _____    ______ ____
ROOT
ATOM      1  C   UNL     1      -0.018   1.503   0.010  0.00  0.00    +0.061 C 
ATOM      2  C   UNL     1       0.002  -0.004   0.002  0.00  0.00    +0.016 C 
ATOM      3  C   UNL     1      -1.155  -0.688   0.004  0.00  0.00    +0.065 C 
ATOM      4  C   UNL     1      -1.174  -2.188   0.005  0.00  0.00    +0.092 C 
ATOM      5  C   UNL     1       0.160  -2.746  -0.422  0.00  0.00    +0.024 C 
ATOM      6  C   UNL     1       1.267  -1.974  -0.410  0.00  0.00    +0.016 C 
ATOM      7  N   UNL     1       1.198  -0.667  -0.013  0.00  0.00    -0.321 N 
ATOM      8  C   UNL     1       2.604  -2.524  -0.842  0.00  0.00    +0.058 C 
ATOM      9  C   UNL     1       2.670  -4.019  -0.526  0.00  0.00    -0.023 C 
ATOM     10  C   UNL     1       1.517  -4.721  -1.252  0.00  0.00    +0.086 C 
ATOM     11  C   UNL     1       0.218  -4.091  -0.830  0.00  0.00    +0.162 C 
ATOM     12  O   UNL     1      -0.799  -4.755  -0.843  0.00  0.00    -0.292 OA
ATOM     13  C   UNL     1       4.005  -4.588  -1.012  0.00  0.00    +0.011 C 
ATOM     14  C   UNL     1       2.534  -4.233   0.982  0.00  0.00    +0.011 C 
ATOM     15  H   UNL     1       2.005  -0.207   0.265  0.00  0.00    +0.152 HD
ENDROOT
BRANCH   4  16
ATOM     16  C   UNL     1      -1.492  -2.678   1.395  0.00  0.00    -0.032 A 
ATOM     17  C   UNL     1      -0.664  -2.343   2.451  0.00  0.00    +0.005 A 
ATOM     18  C   UNL     1      -0.953  -2.791   3.727  0.00  0.00    +0.004 A 
ATOM     19  C   UNL     1      -2.069  -3.574   3.949  0.00  0.00    +0.045 A 
ATOM     20  C   UNL     1      -2.901  -3.911   2.891  0.00  0.00    +0.117 A 
ATOM     21  C   UNL     1      -2.612  -3.455   1.613  0.00  0.00    +0.050 A 
BRANCH  20  22
ATOM     22  O   UNL     1      -3.999  -4.681   3.107  0.00  0.00    -0.507 OA
ATOM     23  H   UNL     1      -4.798  -4.177   3.316  0.00  0.00    +0.292 HD
ENDBRANCH  20  22
ENDBRANCH   4  16
BRANCH   3  24
ATOM     24  C   UNL     1      -2.380   0.021   0.005  0.00  0.00    +0.338 C 
ATOM     25  O   UNL     1      -2.378   1.238   0.004  0.00  0.00    -0.245 OA
BRANCH  24  26
ATOM     26  O   UNL     1      -3.549  -0.652   0.007  0.00  0.00    -0.457 OA
BRANCH  26  27
ATOM     27  C   UNL     1      -4.747   0.128   0.008  0.00  0.00    +0.268 C 
BRANCH  27  28
ATOM     28  C   UNL     1      -5.943  -0.789   0.010  0.00  0.00    -0.010 A 
ATOM     29  C   UNL     1      -6.489  -1.214  -1.186  0.00  0.00    +0.007 A 
ATOM     30  C   UNL     1      -7.587  -2.055  -1.184  0.00  0.00    +0.000 A 
ATOM     31  C   UNL     1      -8.137  -2.471   0.014  0.00  0.00    +0.000 A 
ATOM     32  C   UNL     1      -7.590  -2.046   1.210  0.00  0.00    +0.000 A 
ATOM     33  C   UNL     1      -6.490  -1.209   1.208  0.00  0.00    +0.007 A 
ENDBRANCH  27  28
ENDBRANCH  26  27
ENDBRANCH  24  26
ENDBRANCH   3  24
TORSDOF 6
