REMARK  Name = ZINC27571416
REMARK  3 active torsions:
REMARK  status: ('A' for Active; 'I' for Inactive)
REMARK    1  A    between atoms: C_6  and  N_7
REMARK    2  A    between atoms: C_13  and  C_14
REMARK    3  A    between atoms: C_13  and  N_19
REMARK                            x       y       z     vdW  Elec       q    Type
REMARK                         _______ _______ _______ _____ _____    ______ ____
ROOT
ATOM      1  N   UNL     1      -1.174   1.931   0.280  0.00  0.00    -0.232 N 
ATOM      2  C   UNL     1      -0.049   1.246   0.146  0.00  0.00    +0.235 C 
ATOM      3  O   UNL     1      -0.022   0.089  -0.214  0.00  0.00    -0.274 OA
ATOM      4  C   UNL     1       1.208   2.036   0.478  0.00  0.00    +0.172 C 
ATOM      5  S   UNL     1       0.460   3.649   0.934  0.00  0.00    -0.098 S 
ATOM      6  C   UNL     1      -1.204   3.222   0.689  0.00  0.00    +0.107 C 
ATOM      7  C   UNL     1      -2.390   4.079   0.879  0.00  0.00    +0.175 C 
ENDROOT
BRANCH   1  13
ATOM      8  C   UNL     1      -3.030   0.551   0.976  0.00  0.00    +0.027 A 
ATOM      9  C   UNL     1      -4.228  -0.074   0.691  0.00  0.00    +0.040 A 
ATOM     10  C   UNL     1      -4.779   0.027  -0.576  0.00  0.00    +0.124 A 
ATOM     11  C   UNL     1      -4.134   0.760  -1.559  0.00  0.00    +0.040 A 
ATOM     12  C   UNL     1      -2.939   1.392  -1.277  0.00  0.00    +0.027 A 
ATOM     13  C   UNL     1      -2.384   1.292  -0.007  0.00  0.00    +0.042 A 
ATOM     14  F   UNL     1      -5.948  -0.591  -0.854  0.00  0.00    -0.205 F 
ENDBRANCH   1  13
BRANCH   7  15
ATOM     15  C   UNL     1      -2.236   5.403   1.160  0.00  0.00    +0.103 C 
ATOM     16  C   UNL     1      -3.357   6.190   1.465  0.00  0.00    +0.127 C 
ATOM     17 CL   UNL     1      -4.951   5.512   1.351  0.00  0.00    -0.069 Cl
ATOM     18 CL   UNL     1      -3.149   7.843   1.954  0.00  0.00    -0.069 Cl
ATOM     19 CL   UNL     1      -0.654   6.116   1.142  0.00  0.00    -0.079 Cl
ENDBRANCH   7  15
BRANCH   7  20
ATOM     20  N   UNL     1      -3.748   3.500   0.763  0.00  0.00    +0.060 N 
ATOM     21  O   UNL     1      -4.298   2.899   1.797  0.00  0.00    -0.126 OA
ATOM     22  O   UNL     1      -4.406   3.586  -0.375  0.00  0.00    -0.126 OA
ENDBRANCH   7  20
TORSDOF 3
