REMARK  Name = ZINC40777986
REMARK  7 active torsions:
REMARK  status: ('A' for Active; 'I' for Inactive)
REMARK    1  A    between atoms: C_4  and  N_7
REMARK    2  A    between atoms: N_7  and  C_8
REMARK    3  A    between atoms: N_7  and  N_14
REMARK    4  A    between atoms: C_16  and  N_32
REMARK    5  A    between atoms: C_17  and  N_21
REMARK    6  A    between atoms: N_21  and  C_22
REMARK    7  A    between atoms: C_25  and  C_28
REMARK                            x       y       z     vdW  Elec       q    Type
REMARK                         _______ _______ _______ _____ _____    ______ ____
ROOT
ATOM      1  N   UNL     1       5.299  -0.565  -0.583  0.00  0.00    -0.242 N 
ATOM      2  C   UNL     1       6.118   0.018   0.377  0.00  0.00    +0.161 A 
ATOM      3  C   UNL     1       7.133   0.901   0.001  0.00  0.00    +0.105 A 
ATOM      4  C   UNL     1       7.927   1.458   1.005  0.00  0.00    +0.126 A 
ATOM      5  N   UNL     1       7.688   1.129   2.273  0.00  0.00    -0.333 N 
ATOM      6  C   UNL     1       6.720   0.292   2.584  0.00  0.00    +0.200 A 
ATOM      7  N   UNL     1       5.944  -0.252   1.668  0.00  0.00    -0.219 NA
ATOM      8  H   UNL     1       5.433  -0.362  -1.522  0.00  0.00    +0.172 HD
ATOM      9  H   UNL     1       8.235   1.512   2.977  0.00  0.00    +0.168 HD
ENDROOT
BRANCH   3  10
ATOM     10  N   UNL     1       7.349   1.219  -1.349  0.00  0.00    -0.353 N 
ATOM     11  H   UNL     1       6.790   0.823  -2.036  0.00  0.00    +0.143 HD
ATOM     12  H   UNL     1       8.058   1.833  -1.595  0.00  0.00    +0.143 HD
ENDBRANCH   3  10
BRANCH   4  13
ATOM     13  N   UNL     1       8.952   2.342   0.685  0.00  0.00    -0.299 N 
ATOM     14  H   UNL     1       9.060   2.649  -0.228  0.00  0.00    +0.154 HD
BRANCH  13  15
ATOM     15  C   UNL     1       9.825   2.788   1.681  0.00  0.00    +0.032 A 
ATOM     16  C   UNL     1      10.277   1.908   2.656  0.00  0.00    +0.024 A 
ATOM     17  C   UNL     1      11.140   2.352   3.638  0.00  0.00    +0.014 A 
ATOM     18  C   UNL     1      11.555   3.671   3.652  0.00  0.00    +0.055 A 
ATOM     19  C   UNL     1      11.107   4.550   2.682  0.00  0.00    +0.014 A 
ATOM     20  C   UNL     1      10.248   4.111   1.694  0.00  0.00    +0.024 A 
BRANCH  18  21
ATOM     21  C   UNL     1      12.496   4.153   4.726  0.00  0.00    +0.417 C 
ATOM     22  F   UNL     1      13.817   3.986   4.297  0.00  0.00    -0.166 F 
ATOM     23  F   UNL     1      12.257   5.507   4.983  0.00  0.00    -0.166 F 
ATOM     24  F   UNL     1      12.288   3.412   5.894  0.00  0.00    -0.166 F 
ENDBRANCH  18  21
ENDBRANCH  13  15
ENDBRANCH   4  13
BRANCH   1  25
ATOM     25  N   UNL     1       4.280  -1.444  -0.193  0.00  0.00    -0.221 N 
BRANCH  25  29
ATOM     26  C   UNL     1       0.798   0.041   1.542  0.00  0.00    +0.000 A 
ATOM     27  C   UNL     1       1.023  -1.323   1.504  0.00  0.00    +0.002 A 
ATOM     28  C   UNL     1       2.177  -1.819   0.930  0.00  0.00    +0.025 A 
ATOM     29  C   UNL     1       3.112  -0.946   0.389  0.00  0.00    +0.053 A 
ATOM     30  C   UNL     1       2.883   0.424   0.427  0.00  0.00    +0.025 A 
ATOM     31  C   UNL     1       1.727   0.913   1.004  0.00  0.00    +0.002 A 
ENDBRANCH  25  29
BRANCH  25  32
ATOM     32  C   UNL     1       4.433  -2.819  -0.387  0.00  0.00    +0.053 A 
ATOM     33  C   UNL     1       3.436  -3.547  -1.024  0.00  0.00    +0.025 A 
ATOM     34  C   UNL     1       3.590  -4.907  -1.214  0.00  0.00    +0.002 A 
ATOM     35  C   UNL     1       4.735  -5.543  -0.770  0.00  0.00    +0.000 A 
ATOM     36  C   UNL     1       5.729  -4.821  -0.134  0.00  0.00    +0.002 A 
ATOM     37  C   UNL     1       5.584  -3.461   0.053  0.00  0.00    +0.025 A 
ENDBRANCH  25  32
ENDBRANCH   1  25
TORSDOF 7
