REMARK  Name = ZINC20696236
REMARK  6 active torsions:
REMARK  status: ('A' for Active; 'I' for Inactive)
REMARK    1  A    between atoms: C_1  and  C_2
REMARK    2  A    between atoms: C_2  and  C_3
REMARK    3  A    between atoms: C_3  and  O_4
REMARK    4  A    between atoms: O_4  and  C_5
REMARK    5  A    between atoms: C_18  and  C_21
REMARK    6  A    between atoms: C_26  and  O_27
REMARK                            x       y       z     vdW  Elec       q    Type
REMARK                         _______ _______ _______ _____ _____    ______ ____
ROOT
ATOM      1  C   UNL     1       2.796   0.054  -1.154  0.00  0.00    +0.121 A 
ATOM      2  C   UNL     1       3.604   0.030  -0.027  0.00  0.00    +0.047 A 
ATOM      3  C   UNL     1       3.339   0.887   1.022  0.00  0.00    +0.027 A 
ATOM      4  C   UNL     1       2.268   1.768   0.949  0.00  0.00    +0.032 A 
ATOM      5  C   UNL     1       1.458   1.800  -0.175  0.00  0.00    -0.016 A 
ATOM      6  C   UNL     1       1.730   0.935  -1.226  0.00  0.00    +0.051 A 
ATOM      7  C   UNL     1       0.298   2.736  -0.299  0.00  0.00    +0.049 C 
ATOM      8  C   UNL     1      -1.016   2.013  -0.119  0.00  0.00    -0.023 C 
ATOM      9  C   UNL     1      -1.873   2.780   0.510  0.00  0.00    -0.030 C 
ATOM     10  C   UNL     1      -1.244   4.121   0.838  0.00  0.00    +0.033 C 
ATOM     11  C   UNL     1       0.284   3.826   0.790  0.00  0.00    +0.029 C 
ATOM     12  C   UNL     1       0.674   3.219   2.141  0.00  0.00    +0.108 C 
ATOM     13  N   UNL     1       2.011   2.627   2.026  0.00  0.00    -0.336 N 
ATOM     14  H   UNL     1       2.782   2.861   2.776  0.00  0.00    +0.147 HD
ENDROOT
BRANCH  12  15
ATOM     15  C   UNL     1      -0.320   2.152   2.521  0.00  0.00    +0.015 A 
ATOM     16  C   UNL     1      -0.167   0.864   2.045  0.00  0.00    +0.024 A 
ATOM     17  C   UNL     1      -1.079  -0.116   2.393  0.00  0.00    +0.018 A 
ATOM     18  C   UNL     1      -2.146   0.191   3.219  0.00  0.00    +0.019 A 
ATOM     19  C   UNL     1      -2.303   1.478   3.696  0.00  0.00    +0.047 A 
ATOM     20  C   UNL     1      -1.386   2.461   3.353  0.00  0.00    +0.122 A 
ATOM     21 BR   UNL     1      -0.867  -1.878   1.740  0.00  0.00    -0.050 Br
BRANCH  20  22
ATOM     22  O   UNL     1      -1.535   3.726   3.827  0.00  0.00    -0.506 OA
ATOM     23  H   UNL     1      -2.380   3.970   4.487  0.00  0.00    +0.292 HD
ENDBRANCH  20  22
ENDBRANCH  12  15
BRANCH   1  24
ATOM     24  O   UNL     1       3.051  -0.788  -2.190  0.00  0.00    -0.492 OA
BRANCH  24  25
ATOM     25  C   UNL     1       4.167  -1.670  -2.049  0.00  0.00    +0.229 C 
BRANCH  25  27
ATOM     26  C   UNL     1       5.489  -3.479  -3.155  0.00  0.00    +0.007 C 
ATOM     27  C   UNL     1       4.295  -2.534  -3.305  0.00  0.00    +0.038 C 
ENDBRANCH  25  27
ENDBRANCH  24  25
ENDBRANCH   1  24
TORSDOF 5
