REMARK  Name = ZINC26509774
REMARK  10 active torsions:
REMARK  status: ('A' for Active; 'I' for Inactive)
REMARK    1  A    between atoms: C_4  and  C_7
REMARK    2  A    between atoms: C_7  and  C_8
REMARK    3  A    between atoms: C_8  and  C_10
REMARK    4  A    between atoms: C_8  and  N_25
REMARK    5  A    between atoms: N_12  and  N_13
REMARK    6  A    between atoms: C_14  and  C_16
REMARK    7  A    between atoms: C_16  and  O_17
REMARK    8  A    between atoms: O_17  and  C_18
REMARK    9  A    between atoms: N_25  and  S_26
REMARK   10  A    between atoms: S_26  and  C_29
REMARK                            x       y       z     vdW  Elec       q    Type
REMARK                         _______ _______ _______ _____ _____    ______ ____
ROOT
ATOM      1  C   UNL     1       4.199   9.939   0.160  0.00  0.00    +0.168 C 
ENDROOT
BRANCH   1   2
ATOM      2  C   UNL     1       4.591   8.706   0.933  0.00  0.00    +0.248 C 
ATOM      3  O   UNL     1       5.731   8.573   1.326  0.00  0.00    -0.273 OA
ATOM      4  N   UNL     1       3.675   7.750   1.187  0.00  0.00    -0.233 N 
ATOM      5  H   UNL     1       2.642   7.870   0.831  0.00  0.00    +0.173 HD
BRANCH   4   6
ATOM      6  N   UNL     1       4.040   6.604   1.906  0.00  0.00    -0.232 N 
ATOM      7  C   UNL     1       3.124   5.649   2.160  0.00  0.00    +0.267 C 
ATOM      8  O   UNL     1       1.984   5.781   1.767  0.00  0.00    -0.271 OA
ATOM      9  H   UNL     1       5.074   6.484   2.262  0.00  0.00    +0.173 HD
BRANCH   7  10
ATOM     10  C   UNL     1       3.516   4.416   2.933  0.00  0.00    +0.326 C 
BRANCH  10  11
ATOM     11  O   UNL     1       2.380   3.559   3.072  0.00  0.00    -0.483 OA
BRANCH  11  12
ATOM     12  C   UNL     1       2.564   2.395   3.749  0.00  0.00    +0.121 A 
ATOM     13  C   UNL     1       1.505   1.517   3.921  0.00  0.00    +0.048 A 
ATOM     14  C   UNL     1       1.693   0.334   4.609  0.00  0.00    +0.042 A 
ATOM     15  C   UNL     1       2.939   0.025   5.127  0.00  0.00    +0.124 A 
ATOM     16  C   UNL     1       3.998   0.900   4.956  0.00  0.00    +0.042 A 
ATOM     17  C   UNL     1       3.812   2.084   4.269  0.00  0.00    +0.048 A 
ATOM     18  F   UNL     1       3.122  -1.133   5.800  0.00  0.00    -0.205 F 
ENDBRANCH  11  12
ENDBRANCH  10  11
ENDBRANCH   7  10
ENDBRANCH   4   6
ENDBRANCH   1   2
BRANCH   1  19
ATOM     19  N   UNL     1       5.363  10.816   0.018  0.00  0.00    -0.178 NA
ATOM     20  H   UNL     1       6.295  10.428  -0.418  0.00  0.00    +0.149 HD
BRANCH  19  21
ATOM     21  S   UNL     1       5.366  12.311   0.732  0.00  0.00    +0.062 S 
ATOM     22  O   UNL     1       6.649  12.872   0.493  0.00  0.00    -0.153 OA
ATOM     23  O   UNL     1       4.166  12.956   0.328  0.00  0.00    -0.153 OA
BRANCH  21  24
ATOM     24  C   UNL     1       5.242  12.058   2.471  0.00  0.00    +0.140 A 
ATOM     25  C   UNL     1       4.131  12.510   3.158  0.00  0.00    +0.031 A 
ATOM     26  C   UNL     1       4.030  12.306   4.521  0.00  0.00    +0.002 A 
ATOM     27  C   UNL     1       5.046  11.661   5.201  0.00  0.00    +0.003 A 
ATOM     28  C   UNL     1       6.160  11.213   4.518  0.00  0.00    +0.040 A 
ATOM     29  C   UNL     1       6.259  11.411   3.151  0.00  0.00    +0.150 A 
ATOM     30  F   UNL     1       7.348  10.974   2.482  0.00  0.00    -0.203 F 
ENDBRANCH  21  24
ENDBRANCH  19  21
ENDBRANCH   1  19
BRANCH   1  31
ATOM     31  C   UNL     1       3.694   9.533  -1.226  0.00  0.00    +0.065 C 
BRANCH  31  35
ATOM     32  C   UNL     1       2.258  12.988  -3.287  0.00  0.00    +0.000 A 
ATOM     33  C   UNL     1       3.584  12.613  -3.406  0.00  0.00    +0.000 A 
ATOM     34  C   UNL     1       4.048  11.495  -2.739  0.00  0.00    +0.004 A 
ATOM     35  C   UNL     1       3.188  10.752  -1.953  0.00  0.00    -0.045 A 
ATOM     36  C   UNL     1       1.861  11.123  -1.838  0.00  0.00    +0.004 A 
ATOM     37  C   UNL     1       1.398  12.244  -2.501  0.00  0.00    +0.000 A 
ENDBRANCH  31  35
ENDBRANCH   1  31
TORSDOF 10
