REMARK  Name = ZINC28465735
REMARK  5 active torsions:
REMARK  status: ('A' for Active; 'I' for Inactive)
REMARK    1  A    between atoms: C_1  and  C_2
REMARK    2  A    between atoms: C_9  and  C_11
REMARK    3  A    between atoms: C_11  and  C_12
REMARK    4  A    between atoms: C_12  and  S_13
REMARK    5  A    between atoms: S_13  and  C_14
REMARK                            x       y       z     vdW  Elec       q    Type
REMARK                         _______ _______ _______ _____ _____    ______ ____
ROOT
ATOM      1  C   UNL     1      -1.712  -3.753  -0.002  0.00  0.00    +0.069 C 
ENDROOT
BRANCH   1  10
ATOM      2  C   UNL     1       0.359  -8.065  -2.875  0.00  0.00    +0.064 C 
ATOM      3  C   UNL     1       0.363  -8.055  -1.368  0.00  0.00    +0.023 A 
ATOM      4  C   UNL     1       0.876  -9.105  -0.694  0.00  0.00    +0.021 A 
ATOM      5  C   UNL     1       0.887  -9.109   0.711  0.00  0.00    +0.005 A 
ATOM      6  C   UNL     1       0.378  -8.047   1.392  0.00  0.00    +0.047 A 
ATOM      7  C   UNL     1      -0.155  -6.957   0.674  0.00  0.00    +0.139 A 
ATOM      8  N   UNL     1      -0.151  -6.982  -0.697  0.00  0.00    -0.291 N 
ATOM      9  C   UNL     1      -0.727  -5.815  -1.120  0.00  0.00    +0.113 A 
ATOM     10  C   UNL     1      -1.055  -5.109  -0.015  0.00  0.00    +0.075 A 
ATOM     11  N   UNL     1      -0.705  -5.816   1.062  0.00  0.00    -0.232 NA
ATOM     12 BR   UNL     1      -1.005  -5.287  -2.914  0.00  0.00    -0.028 Br
ENDBRANCH   1  10
BRANCH   1  13
ATOM     13  C   UNL     1      -0.637  -2.665  -0.006  0.00  0.00    +0.083 C 
BRANCH  13  14
ATOM     14  S   UNL     1      -1.426  -1.036   0.010  0.00  0.00    -0.087 S 
BRANCH  14  15
ATOM     15  C   UNL     1       0.002  -0.004   0.002  0.00  0.00    +0.167 A 
ATOM     16  N   UNL     1      -0.017   1.362   0.009  0.00  0.00    -0.333 N 
ATOM     17  H   UNL     1      -0.977   1.899   0.021  0.00  0.00    +0.168 HD
ATOM     18  C   UNL     1       1.301   1.791  -0.001  0.00  0.00    +0.067 A 
ATOM     19  C   UNL     1       1.906   3.038  -0.000  0.00  0.00    +0.028 A 
ATOM     20  C   UNL     1       3.282   3.134  -0.013  0.00  0.00    +0.002 A 
ATOM     21  C   UNL     1       4.066   1.990  -0.027  0.00  0.00    +0.002 A 
ATOM     22  C   UNL     1       3.482   0.743  -0.027  0.00  0.00    +0.030 A 
ATOM     23  C   UNL     1       2.090   0.629  -0.015  0.00  0.00    +0.090 A 
ATOM     24  N   UNL     1       1.241  -0.432  -0.012  0.00  0.00    -0.222 NA
ENDBRANCH  14  15
ENDBRANCH  13  14
ENDBRANCH   1  13
TORSDOF 4
