REMARK  Name = ZINC24537849
REMARK  12 active torsions:
REMARK  status: ('A' for Active; 'I' for Inactive)
REMARK    1  A    between atoms: C_1  and  C_2
REMARK    2  A    between atoms: C_2  and  N_3
REMARK    3  A    between atoms: N_3  and  C_4
REMARK    4  A    between atoms: C_4  and  C_5
REMARK    5  A    between atoms: C_12  and  O_19
REMARK    6  A    between atoms: C_13  and  O_17
REMARK    7  A    between atoms: O_17  and  C_18
REMARK    8  A    between atoms: O_19  and  C_20
REMARK    9  A    between atoms: C_21  and  C_23
REMARK   10  A    between atoms: C_23  and  N_24
REMARK   11  A    between atoms: C_31  and  C_35
REMARK   12  A    between atoms: C_32  and  C_34
REMARK                            x       y       z     vdW  Elec       q    Type
REMARK                         _______ _______ _______ _____ _____    ______ ____
ROOT
ATOM      1  N   UNL     1      -4.000   0.181   1.689  0.00  0.00    -0.293 N 
ATOM      2  C   UNL     1      -2.864   0.864   1.441  0.00  0.00    +0.236 C 
ATOM      3  O   UNL     1      -2.184   1.264   2.362  0.00  0.00    -0.274 OA
ENDROOT
BRANCH   1   5
ATOM      4  C   UNL     1      -4.366  -1.707   0.179  0.00  0.00    +0.024 C 
ATOM      5  C   UNL     1      -4.822  -0.302   0.577  0.00  0.00    +0.105 C 
ENDBRANCH   1   5
BRANCH   1   6
ATOM      6  C   UNL     1      -4.412  -0.077   3.071  0.00  0.00    +0.182 C 
BRANCH   6   7
ATOM      7  C   UNL     1      -5.284   1.053   3.554  0.00  0.00    +0.128 A 
ATOM      8  N   UNL     1      -5.769   0.996   4.823  0.00  0.00    -0.309 N 
ATOM      9  H   UNL     1      -5.524   0.139   5.468  0.00  0.00    +0.170 HD
ATOM     10  C   UNL     1      -6.556   1.986   5.305  0.00  0.00    +0.259 A 
ATOM     11  O   UNL     1      -6.997   1.947   6.439  0.00  0.00    -0.267 OA
ATOM     12  C   UNL     1      -6.857   3.109   4.408  0.00  0.00    +0.068 A 
ATOM     13  C   UNL     1      -7.658   4.178   4.811  0.00  0.00    +0.064 A 
ATOM     14  C   UNL     1      -7.910   5.210   3.930  0.00  0.00    +0.162 A 
ATOM     15  C   UNL     1      -7.368   5.187   2.641  0.00  0.00    +0.164 A 
ATOM     16  C   UNL     1      -6.574   4.135   2.228  0.00  0.00    +0.078 A 
ATOM     17  C   UNL     1      -6.308   3.084   3.106  0.00  0.00    +0.082 A 
ATOM     18  N   UNL     1      -5.528   2.034   2.741  0.00  0.00    -0.232 NA
BRANCH  15  19
ATOM     19  O   UNL     1      -7.626   6.210   1.786  0.00  0.00    -0.491 OA
ATOM     20  C   UNL     1      -7.044   6.130   0.483  0.00  0.00    +0.277 C 
ENDBRANCH  15  19
BRANCH  14  21
ATOM     21  O   UNL     1      -8.689   6.255   4.319  0.00  0.00    -0.491 OA
ATOM     22  C   UNL     1      -9.210   6.216   5.648  0.00  0.00    +0.277 C 
ENDBRANCH  14  21
ENDBRANCH   6   7
ENDBRANCH   1   6
BRANCH   2  23
ATOM     23  C   UNL     1      -2.440   1.130   0.020  0.00  0.00    +0.222 C 
BRANCH  23  24
ATOM     24  N   UNL     1      -1.183   1.883   0.018  0.00  0.00    -0.290 N 
ATOM     25  C   UNL     1      -1.221   3.240   0.030  0.00  0.00    +0.203 A 
ATOM     26  N   UNL     1      -0.122   3.947   0.024  0.00  0.00    -0.230 NA
ATOM     27  C   UNL     1       1.070   3.359   0.009  0.00  0.00    +0.116 A 
ATOM     28  C   UNL     1       1.210   1.959   0.001  0.00  0.00    +0.075 A 
ATOM     29  C   UNL     1      -0.015   1.215   0.009  0.00  0.00    +0.263 A 
ATOM     30  O   UNL     1       0.002  -0.004   0.002  0.00  0.00    -0.267 OA
ATOM     31  C   UNL     1       2.579   1.479  -0.015  0.00  0.00    -0.026 A 
ATOM     32  C   UNL     1       3.585   2.369  -0.020  0.00  0.00    -0.008 A 
ATOM     33  S   UNL     1       2.746   3.942  -0.004  0.00  0.00    -0.073 S 
ATOM     34  C   UNL     1       5.068   2.101  -0.036  0.00  0.00    +0.052 C 
ATOM     35  C   UNL     1       2.869   0.001  -0.024  0.00  0.00    +0.045 C 
ENDBRANCH  23  24
ENDBRANCH   2  23
TORSDOF 7
