REMARK  Name = ZINC39313485
REMARK  5 active torsions:
REMARK  status: ('A' for Active; 'I' for Inactive)
REMARK    1  A    between atoms: C_1  and  C_2
REMARK    2  A    between atoms: C_7  and  C_8
REMARK    3  A    between atoms: N_9  and  C_20
REMARK    4  A    between atoms: C_10  and  C_13
REMARK    5  A    between atoms: C_20  and  C_21
REMARK                            x       y       z     vdW  Elec       q    Type
REMARK                         _______ _______ _______ _____ _____    ______ ____
ROOT
ATOM      1  C   UNL     1      -0.018   1.503   0.010  0.00  0.00    +0.044 C 
ATOM      2  C   UNL     1       0.002  -0.004   0.002  0.00  0.00    -0.046 A 
ATOM      3  C   UNL     1       0.006  -0.687  -1.199  0.00  0.00    +0.028 A 
ATOM      4  C   UNL     1       0.025  -2.076  -1.212  0.00  0.00    +0.050 A 
ATOM      5  C   UNL     1       0.041  -2.777  -0.010  0.00  0.00    +0.053 A 
ATOM      6  C   UNL     1       0.037  -2.082   1.193  0.00  0.00    +0.028 A 
ATOM      7  C   UNL     1       0.023  -0.700   1.196  0.00  0.00    -0.046 A 
ATOM      8  C   UNL     1       0.025   0.049   2.503  0.00  0.00    +0.044 C 
ATOM      9  N   UNL     1       0.059  -4.156  -0.264  0.00  0.00    -0.302 N 
ATOM     10  C   UNL     1       0.054  -4.331  -1.722  0.00  0.00    +0.191 C 
ATOM     11  N   UNL     1       0.032  -2.977  -2.287  0.00  0.00    -0.321 N 
ATOM     12  H   UNL     1       0.025  -2.747  -3.229  0.00  0.00    +0.148 HD
ENDROOT
BRANCH  10  13
ATOM     13  C   UNL     1       1.297  -5.060  -2.162  0.00  0.00    +0.003 C 
ATOM     14  C   UNL     1       1.182  -6.231  -2.806  0.00  0.00    -0.009 C 
ATOM     15  C   UNL     1       2.464  -6.924  -3.227  0.00  0.00    +0.125 C 
ATOM     16  C   UNL     1       3.761  -6.222  -2.877  0.00  0.00    +0.240 C 
ATOM     17  O   UNL     1       4.833  -6.707  -3.178  0.00  0.00    -0.273 OA
ATOM     18  N   UNL     1       3.694  -5.053  -2.228  0.00  0.00    -0.188 NA
ATOM     19  C   UNL     1       2.560  -4.499  -1.895  0.00  0.00    +0.107 C 
ENDBRANCH  10  13
BRANCH   9  20
ATOM     20  C   UNL     1       0.079  -5.224   0.739  0.00  0.00    +0.142 C 
BRANCH  20  21
ATOM     21  C   UNL     1      -1.335  -5.610   1.090  0.00  0.00    -0.029 A 
ATOM     22  C   UNL     1      -1.992  -4.964   2.120  0.00  0.00    +0.007 A 
ATOM     23  C   UNL     1      -3.288  -5.317   2.443  0.00  0.00    +0.022 A 
ATOM     24  C   UNL     1      -3.929  -6.319   1.736  0.00  0.00    +0.059 A 
ATOM     25  C   UNL     1      -3.271  -6.966   0.704  0.00  0.00    +0.060 A 
ATOM     26  C   UNL     1      -1.975  -6.607   0.378  0.00  0.00    +0.026 A 
ATOM     27 CL   UNL     1      -4.073  -8.223  -0.185  0.00  0.00    -0.082 Cl
ATOM     28 CL   UNL     1      -5.557  -6.764   2.142  0.00  0.00    -0.082 Cl
ENDBRANCH  20  21
ENDBRANCH   9  20
TORSDOF 3
