REMARK  Name = ZINC16809454
REMARK  8 active torsions:
REMARK  status: ('A' for Active; 'I' for Inactive)
REMARK    1  A    between atoms: C_1  and  C_2
REMARK    2  A    between atoms: C_5  and  C_36
REMARK    3  A    between atoms: C_6  and  C_8
REMARK    4  A    between atoms: C_8  and  C_9
REMARK    5  A    between atoms: C_10  and  C_35
REMARK    6  A    between atoms: C_23  and  C_27
REMARK    7  A    between atoms: C_24  and  C_26
REMARK    8  A    between atoms: C_27  and  C_28
REMARK                            x       y       z     vdW  Elec       q    Type
REMARK                         _______ _______ _______ _____ _____    ______ ____
ROOT
ATOM      1  C   UNL     1       5.897   4.165  -1.015  0.00  0.00    +0.042 A 
ATOM      2  C   UNL     1       5.712   2.834  -1.252  0.00  0.00    +0.050 A 
ATOM      3  N   UNL     1       4.525   2.274  -1.027  0.00  0.00    -0.221 NA
ATOM      4  C   UNL     1       3.507   2.982  -0.584  0.00  0.00    +0.202 A 
ATOM      5  N   UNL     1       3.631   4.312  -0.330  0.00  0.00    -0.295 N 
ATOM      6  H   UNL     1       2.872   4.817  -0.001  0.00  0.00    +0.172 HD
ATOM      7  C   UNL     1       4.816   4.926  -0.537  0.00  0.00    +0.256 A 
ATOM      8  O   UNL     1       4.945   6.119  -0.313  0.00  0.00    -0.267 OA
ATOM      9  N   UNL     1       2.298   2.364  -0.371  0.00  0.00    -0.255 N 
ATOM     10  C   UNL     1       2.158   1.020  -0.624  0.00  0.00    +0.202 A 
ATOM     11  N   UNL     1       0.957   0.421  -0.409  0.00  0.00    -0.295 N 
ATOM     12  H   UNL     1       0.205   0.941  -0.083  0.00  0.00    +0.172 HD
ATOM     13  C   UNL     1       0.811  -0.899  -0.656  0.00  0.00    +0.256 A 
ATOM     14  O   UNL     1      -0.259  -1.452  -0.468  0.00  0.00    -0.267 OA
ATOM     15  C   UNL     1       1.919  -1.622  -1.134  0.00  0.00    +0.042 A 
ATOM     16  C   UNL     1       3.099  -0.967  -1.331  0.00  0.00    +0.050 A 
ATOM     17  N   UNL     1       3.191   0.336  -1.072  0.00  0.00    -0.221 NA
ATOM     18  C   UNL     1       4.301  -1.719  -1.841  0.00  0.00    +0.066 C 
ATOM     19  C   UNL     1       6.854   1.995  -1.765  0.00  0.00    +0.066 C 
ATOM     20  H   UNL     1       1.543   2.876  -0.041  0.00  0.00    +0.158 HD
ENDROOT
BRANCH   1  21
ATOM     21  C   UNL     1       7.238   4.808  -1.261  0.00  0.00    +0.077 C 
BRANCH  21  27
ATOM     22  C   UNL     1       5.088   5.468  -5.732  0.00  0.00    +0.044 C 
ATOM     23  C   UNL     1       6.237   5.710  -4.788  0.00  0.00    -0.050 A 
ATOM     24  C   UNL     1       7.318   6.470  -5.195  0.00  0.00    +0.003 A 
ATOM     25  C   UNL     1       8.372   6.692  -4.330  0.00  0.00    +0.004 A 
ATOM     26  C   UNL     1       8.344   6.159  -3.055  0.00  0.00    -0.047 A 
ATOM     27  C   UNL     1       7.266   5.394  -2.649  0.00  0.00    -0.040 A 
ATOM     28  C   UNL     1       6.211   5.172  -3.515  0.00  0.00    +0.007 A 
ATOM     29  C   UNL     1       9.491   6.406  -2.109  0.00  0.00    +0.044 C 
ENDBRANCH  21  27
ENDBRANCH   1  21
BRANCH  15  30
ATOM     30  C   UNL     1       1.804  -3.097  -1.423  0.00  0.00    +0.079 C 
BRANCH  30  31
ATOM     31  C   UNL     1       1.993  -3.876  -0.147  0.00  0.00    -0.025 A 
ATOM     32  C   UNL     1       3.267  -4.133   0.323  0.00  0.00    +0.005 A 
ATOM     33  C   UNL     1       3.440  -4.844   1.496  0.00  0.00    +0.000 A 
ATOM     34  C   UNL     1       2.340  -5.307   2.194  0.00  0.00    +0.001 A 
ATOM     35  C   UNL     1       1.066  -5.054   1.721  0.00  0.00    +0.020 A 
ATOM     36  C   UNL     1       0.891  -4.339   0.550  0.00  0.00    +0.044 A 
ATOM     37 CL   UNL     1      -0.709  -4.021  -0.043  0.00  0.00    -0.083 Cl
ENDBRANCH  30  31
ENDBRANCH  15  30
TORSDOF 4
