REMARK  Name = ZINC15529851
REMARK  5 active torsions:
REMARK  status: ('A' for Active; 'I' for Inactive)
REMARK    1  A    between atoms: C_6  and  C_7
REMARK    2  A    between atoms: C_7  and  C_8
REMARK    3  A    between atoms: N_10  and  N_11
REMARK    4  A    between atoms: C_12  and  C_14
REMARK    5  A    between atoms: C_15  and  C_16
REMARK                            x       y       z     vdW  Elec       q    Type
REMARK                         _______ _______ _______ _____ _____    ______ ____
ROOT
ATOM      1  C   UNL     1      -0.742   1.585  -1.213  0.00  0.00    +0.233 C 
ATOM      2  O   UNL     1      -1.736   2.268  -1.088  0.00  0.00    -0.274 OA
ATOM      3  N   UNL     1      -0.288   1.272  -2.443  0.00  0.00    -0.234 N 
ATOM      4  H   UNL     1       0.507   0.726  -2.543  0.00  0.00    +0.173 HD
ENDROOT
BRANCH   3   5
ATOM      5  N   UNL     1      -0.966   1.736  -3.578  0.00  0.00    -0.231 N 
ATOM      6  C   UNL     1      -0.513   1.424  -4.808  0.00  0.00    +0.253 C 
ATOM      7  O   UNL     1       0.486   0.738  -4.933  0.00  0.00    -0.269 OA
ATOM      8  H   UNL     1      -1.761   2.283  -3.479  0.00  0.00    +0.173 HD
BRANCH   6   9
ATOM      9  C   UNL     1      -1.197   1.892  -5.954  0.00  0.00    +0.072 C 
ATOM     10  C   UNL     1      -0.741   1.577  -7.193  0.00  0.00    +0.051 C 
BRANCH  10  11
ATOM     11  C   UNL     1      -1.425   2.046  -8.339  0.00  0.00    +0.129 A 
ATOM     12  C   UNL     1      -1.071   1.808  -9.652  0.00  0.00    +0.050 A 
ATOM     13  C   UNL     1      -2.026   2.458 -10.447  0.00  0.00    +0.057 A 
ATOM     14  C   UNL     1      -2.902   3.060  -9.610  0.00  0.00    +0.171 A 
ATOM     15  O   UNL     1      -2.538   2.811  -8.344  0.00  0.00    -0.449 OA
ATOM     16 BR   UNL     1      -4.398   4.088 -10.140  0.00  0.00    -0.008 Br
ENDBRANCH  10  11
ENDBRANCH   6   9
ENDBRANCH   3   5
BRANCH   1  17
ATOM     17  C   UNL     1      -0.013   1.086   0.008  0.00  0.00    +0.132 C 
BRANCH  17  23
ATOM     18  C   UNL     1      -0.360   2.779   1.818  0.00  0.00    +0.005 A 
ATOM     19  C   UNL     1      -1.010   3.228   2.952  0.00  0.00    +0.020 A 
ATOM     20  C   UNL     1      -2.012   2.464   3.523  0.00  0.00    +0.041 A 
ATOM     21  C   UNL     1      -2.367   1.253   2.955  0.00  0.00    +0.020 A 
ATOM     22  C   UNL     1      -1.719   0.808   1.817  0.00  0.00    +0.005 A 
ATOM     23  C   UNL     1      -0.718   1.572   1.248  0.00  0.00    -0.038 A 
ATOM     24 CL   UNL     1      -2.825   3.024   4.951  0.00  0.00    -0.084 Cl
ENDBRANCH  17  23
ENDBRANCH   1  17
TORSDOF 5
