REMARK  Name = ZINC08771537
REMARK  16 active torsions:
REMARK  status: ('A' for Active; 'I' for Inactive)
REMARK    1  A    between atoms: C_1  and  C_2
REMARK    2  A    between atoms: C_6  and  C_36
REMARK    3  A    between atoms: C_6  and  C_37
REMARK    4  A    between atoms: C_13  and  C_15
REMARK    5  A    between atoms: C_15  and  C_16
REMARK    6  A    between atoms: C_16  and  C_17
REMARK    7  A    between atoms: C_21  and  C_22
REMARK    8  A    between atoms: C_22  and  N_80
REMARK    9  A    between atoms: C_23  and  C_25
REMARK   10  A    between atoms: C_23  and  C_32
REMARK   11  A    between atoms: C_23  and  N_80
REMARK   12  A    between atoms: C_25  and  C_26
REMARK   13  A    between atoms: C_32  and  O_34
REMARK   14  A    between atoms: O_34  and  C_35
REMARK   15  A    between atoms: C_37  and  O_39
REMARK   16  A    between atoms: O_39  and  C_40
REMARK                            x       y       z     vdW  Elec       q    Type
REMARK                         _______ _______ _______ _____ _____    ______ ____
ROOT
ATOM      1  C   UNL     1      -2.212   8.259   2.784  0.00  0.00    -0.008 A 
ATOM      2  C   UNL     1      -1.230   9.151   3.272  0.00  0.00    +0.045 A 
ATOM      3  C   UNL     1      -1.492  10.354   2.728  0.00  0.00    +0.195 A 
ATOM      4  O   UNL     1      -2.579  10.239   1.948  0.00  0.00    -0.469 OA
ATOM      5  C   UNL     1      -3.020   8.971   1.978  0.00  0.00    +0.091 A 
ENDROOT
BRANCH   1   6
ATOM      6  C   UNL     1      -2.333   6.792   3.108  0.00  0.00    +0.039 C 
BRANCH   6   7
ATOM      7  C   UNL     1      -1.637   5.970   2.022  0.00  0.00    +0.013 C 
BRANCH   7  19
ATOM      8  C   UNL     1       0.477   4.186   1.296  0.00  0.00    +0.012 C 
ATOM      9  C   UNL     1      -0.960   3.663   1.335  0.00  0.00    -0.022 C 
ATOM     10  C   UNL     1      -0.953   2.190   1.745  0.00  0.00    +0.007 C 
ATOM     11  C   UNL     1      -0.123   1.389   0.739  0.00  0.00    +0.002 C 
ATOM     12  C   UNL     1      -0.729   1.536  -0.658  0.00  0.00    +0.018 C 
ATOM     13  C   UNL     1      -0.743   3.012  -1.060  0.00  0.00    +0.068 C 
ATOM     14  C   UNL     1      -1.588   3.801  -0.053  0.00  0.00    +0.012 C 
ATOM     15  C   UNL     1      -3.011   3.235  -0.048  0.00  0.00    +0.009 C 
ATOM     16  C   UNL     1      -3.880   4.043   0.919  0.00  0.00    +0.031 C 
ATOM     17  C   UNL     1      -3.212   4.064   2.277  0.00  0.00    -0.073 C 
ATOM     18  C   UNL     1      -3.872   3.729   3.357  0.00  0.00    +0.008 C 
ATOM     19  C   UNL     1      -1.760   4.481   2.351  0.00  0.00    +0.021 C 
ATOM     20  C   UNL     1      -1.347   3.155  -2.459  0.00  0.00    +0.023 C 
BRANCH  13  21
ATOM     21  C   UNL     1       0.666   3.547  -1.063  0.00  0.00    +0.313 C 
ATOM     22  O   UNL     1       1.597   2.796  -0.891  0.00  0.00    -0.250 OA
BRANCH  21  23
ATOM     23  O   UNL     1       0.886   4.857  -1.256  0.00  0.00    -0.468 OA
ATOM     24  C   UNL     1       2.269   5.301  -1.246  0.00  0.00    +0.280 C 
ENDBRANCH  21  23
ENDBRANCH  13  21
ENDBRANCH   7  19
ENDBRANCH   6   7
ENDBRANCH   1   6
BRANCH   5  25
ATOM     25  C   UNL     1      -4.217   8.437   1.234  0.00  0.00    -0.005 C 
BRANCH  25  26
ATOM     26  N   UNL     1      -5.414   8.573   2.085  0.00  0.00    +0.393 N 
ATOM     27  H   UNL     1      -5.558   9.564   2.311  0.00  0.00    -0.084 HD
ATOM     28  H   UNL     1      -5.276   8.040   2.952  0.00  0.00    -0.084 HD
BRANCH  26  29
ATOM     29  C   UNL     1      -6.603   8.056   1.381  0.00  0.00    +0.044 C 
BRANCH  29  30
ATOM     30  C   UNL     1      -7.178   9.139   0.504  0.00  0.00    +0.293 C 
ATOM     31  O   UNL     1      -6.652  10.225   0.461  0.00  0.00    -0.253 OA
BRANCH  30  32
ATOM     32  O   UNL     1      -8.276   8.895  -0.230  0.00  0.00    -0.469 OA
ATOM     33  C   UNL     1      -8.774   9.984  -1.052  0.00  0.00    +0.280 C 
ENDBRANCH  30  32
ENDBRANCH  29  30
BRANCH  29  34
ATOM     34  C   UNL     1      -7.649   7.625   2.411  0.00  0.00    +0.030 C 
BRANCH  34  35
ATOM     35  C   UNL     1      -7.120   6.461   3.207  0.00  0.00    -0.048 A 
ATOM     36  C   UNL     1      -7.354   5.167   2.779  0.00  0.00    +0.003 A 
ATOM     37  C   UNL     1      -6.864   4.099   3.507  0.00  0.00    +0.000 A 
ATOM     38  C   UNL     1      -6.149   4.324   4.668  0.00  0.00    +0.000 A 
ATOM     39  C   UNL     1      -5.920   5.617   5.100  0.00  0.00    +0.000 A 
ATOM     40  C   UNL     1      -6.405   6.686   4.369  0.00  0.00    +0.003 A 
ENDBRANCH  34  35
ENDBRANCH  29  34
ENDBRANCH  26  29
ENDBRANCH  25  26
ENDBRANCH   5  25
TORSDOF 12
