REMARK  Name = ZINC10383890
REMARK  7 active torsions:
REMARK  status: ('A' for Active; 'I' for Inactive)
REMARK    1  A    between atoms: C_1  and  C_2
REMARK    2  A    between atoms: C_5  and  N_21
REMARK    3  A    between atoms: C_14  and  C_16
REMARK    4  A    between atoms: N_21  and  C_22
REMARK    5  A    between atoms: C_28  and  C_30
REMARK    6  A    between atoms: C_30  and  N_69
REMARK    7  A    between atoms: C_33  and  C_36
REMARK                            x       y       z     vdW  Elec       q    Type
REMARK                         _______ _______ _______ _____ _____    ______ ____
ROOT
ATOM      1  N   UNL     1      -0.147   7.620  -2.077  0.00  0.00    -0.265 N 
ATOM      2  C   UNL     1       0.136   6.304  -2.146  0.00  0.00    +0.204 C 
ATOM      3  O   UNL     1       1.231   5.901  -1.815  0.00  0.00    -0.277 OA
ENDROOT
BRANCH   1   7
ATOM      4  C   UNL     1       2.981   8.998   1.497  0.00  0.00    +0.028 C 
ATOM      5  C   UNL     1       2.569   9.183   0.035  0.00  0.00    +0.081 C 
ATOM      6  C   UNL     1       1.335   8.323  -0.270  0.00  0.00    +0.050 C 
ATOM      7  C   UNL     1       0.901   8.576  -1.713  0.00  0.00    +0.115 C 
ATOM      8  C   UNL     1       2.068   8.416  -2.651  0.00  0.00    -0.005 A 
ATOM      9  C   UNL     1       1.822   8.175  -3.992  0.00  0.00    +0.007 A 
ATOM     10  C   UNL     1       2.871   8.026  -4.878  0.00  0.00    +0.000 A 
ATOM     11  C   UNL     1       4.177   8.118  -4.430  0.00  0.00    +0.002 A 
ATOM     12  C   UNL     1       4.431   8.356  -3.095  0.00  0.00    +0.024 A 
ATOM     13  C   UNL     1       3.376   8.505  -2.201  0.00  0.00    +0.042 A 
ATOM     14  N   UNL     1       3.655   8.738  -0.848  0.00  0.00    -0.262 N 
ATOM     15  C   UNL     1       4.901   8.557  -0.365  0.00  0.00    +0.286 C 
ATOM     16  O   UNL     1       5.175   8.925   0.762  0.00  0.00    -0.266 OA
BRANCH  15  17
ATOM     17  C   UNL     1       5.925   7.918  -1.198  0.00  0.00    +0.190 A 
ATOM     18  C   UNL     1       7.207   8.355  -1.369  0.00  0.00    +0.054 A 
ATOM     19  C   UNL     1       7.830   7.446  -2.238  0.00  0.00    +0.042 A 
ATOM     20  C   UNL     1       6.910   6.511  -2.562  0.00  0.00    +0.196 A 
ATOM     21  O   UNL     1       5.763   6.798  -1.933  0.00  0.00    -0.458 OA
ENDBRANCH  15  17
ENDBRANCH   1   7
BRANCH   1  22
ATOM     22  C   UNL     1      -1.442   8.072  -2.353  0.00  0.00    +0.037 A 
ATOM     23  C   UNL     1      -1.947   7.991  -3.645  0.00  0.00    +0.023 A 
ATOM     24  C   UNL     1      -3.225   8.439  -3.914  0.00  0.00    +0.002 A 
ATOM     25  C   UNL     1      -4.000   8.973  -2.901  0.00  0.00    +0.000 A 
ATOM     26  C   UNL     1      -3.503   9.050  -1.613  0.00  0.00    +0.002 A 
ATOM     27  C   UNL     1      -2.225   8.604  -1.337  0.00  0.00    +0.023 A 
ENDBRANCH   1  22
BRANCH   2  28
ATOM     28  C   UNL     1      -0.908   5.333  -2.635  0.00  0.00    +0.019 C 
BRANCH  28  34
ATOM     29  C   UNL     1      -0.028   3.717  -1.063  0.00  0.00    -0.077 C 
ATOM     30  C   UNL     1       0.608   2.330  -0.945  0.00  0.00    -0.006 C 
ATOM     31  C   UNL     1      -0.399   1.271  -1.402  0.00  0.00    +0.071 C 
ATOM     32  C   UNL     1      -0.829   1.574  -2.840  0.00  0.00    -0.006 C 
ATOM     33  C   UNL     1      -1.423   2.983  -2.903  0.00  0.00    -0.077 C 
ATOM     34  N   UNL     1      -0.397   3.956  -2.474  0.00  0.00    +0.385 N 
ATOM     35  H   UNL     1       0.438   3.840  -3.061  0.00  0.00    -0.081 HD
BRANCH  31  36
ATOM     36  C   UNL     1       0.240  -0.092  -1.344  0.00  0.00    +0.213 C 
ATOM     37  O   UNL     1       0.343  -0.757  -2.353  0.00  0.00    -0.276 OA
ATOM     38  N   UNL     1       0.698  -0.573  -0.171  0.00  0.00    -0.329 N 
ATOM     39  H   UNL     1       0.617  -0.041   0.636  0.00  0.00    +0.145 HD
ATOM     40  H   UNL     1       1.110  -1.451  -0.134  0.00  0.00    +0.145 HD
ENDBRANCH  31  36
ENDBRANCH  28  34
ENDBRANCH   2  28
TORSDOF 6
