REMARK  Name = ZINC58197649
REMARK  9 active torsions:
REMARK  status: ('A' for Active; 'I' for Inactive)
REMARK    1  A    between atoms: C_1  and  C_2
REMARK    2  A    between atoms: C_5  and  C_8
REMARK    3  A    between atoms: C_8  and  C_10
REMARK    4  A    between atoms: C_8  and  N_15
REMARK    5  A    between atoms: C_16  and  C_18
REMARK    6  A    between atoms: C_18  and  N_19
REMARK    7  A    between atoms: C_22  and  C_26
REMARK    8  A    between atoms: C_22  and  C_27
REMARK    9  A    between atoms: C_31  and  C_33
REMARK                            x       y       z     vdW  Elec       q    Type
REMARK                         _______ _______ _______ _____ _____    ______ ____
ROOT
ATOM      1  C   UNL     1      -2.261  -6.529   2.025  0.00  0.00    +0.213 C 
ENDROOT
BRANCH   1   2
ATOM      2  N   UNL     1      -2.721  -7.877   1.678  0.00  0.00    -0.215 N 
ATOM      3  C   UNL     1      -3.839  -8.137   0.973  0.00  0.00    +0.251 C 
ATOM      4  O   UNL     1      -4.625  -7.331   0.522  0.00  0.00    -0.272 OA
ATOM      5  C   UNL     1      -3.909  -9.647   0.858  0.00  0.00    +0.135 C 
ATOM      6  N   UNL     1      -2.710 -10.105   1.581  0.00  0.00    -0.281 N 
ATOM      7  C   UNL     1      -2.079  -9.000   2.018  0.00  0.00    +0.310 C 
ATOM      8  O   UNL     1      -1.043  -9.021   2.654  0.00  0.00    -0.252 OA
ATOM      9  C   UNL     1      -3.852 -10.079  -0.608  0.00  0.00    +0.047 C 
ATOM     10  H   UNL     1      -2.429 -11.024   1.713  0.00  0.00    +0.152 HD
BRANCH   5  11
ATOM     11  C   UNL     1      -5.159 -10.171   1.518  0.00  0.00    -0.014 A 
ATOM     12  C   UNL     1      -6.301  -9.390   1.552  0.00  0.00    +0.006 A 
ATOM     13  C   UNL     1      -7.452  -9.863   2.156  0.00  0.00    +0.002 A 
ATOM     14  C   UNL     1      -7.468 -11.118   2.729  0.00  0.00    +0.019 A 
ATOM     15  C   UNL     1      -6.320 -11.911   2.699  0.00  0.00    +0.052 A 
ATOM     16  C   UNL     1      -5.162 -11.429   2.083  0.00  0.00    +0.025 A 
BRANCH  15  17
ATOM     17  C   UNL     1      -6.329 -13.214   3.292  0.00  0.00    +0.099 C 
ATOM     18  N   UNL     1      -6.337 -14.248   3.762  0.00  0.00    -0.191 NA
ENDBRANCH  15  17
ENDBRANCH   5  11
ENDBRANCH   1   2
BRANCH   1  20
ATOM     19  N   UNL     1      -0.816  -4.781   1.039  0.00  0.00    -0.303 N 
ATOM     20  C   UNL     1      -1.361  -6.009   0.935  0.00  0.00    +0.232 C 
ATOM     21  O   UNL     1      -1.125  -6.696  -0.037  0.00  0.00    -0.274 OA
ATOM     22  H   UNL     1      -1.004  -4.231   1.816  0.00  0.00    +0.150 HD
BRANCH  19  23
ATOM     23  C   UNL     1       0.059  -4.275  -0.021  0.00  0.00    +0.140 C 
BRANCH  23  28
ATOM     24  C   UNL     1      -0.018   1.503   0.010  0.00  0.00    +0.044 C 
ATOM     25  C   UNL     1       0.002  -0.004   0.002  0.00  0.00    -0.050 A 
ATOM     26  C   UNL     1       0.006  -0.689  -1.199  0.00  0.00    +0.004 A 
ATOM     27  C   UNL     1       0.025  -2.071  -1.206  0.00  0.00    +0.006 A 
ATOM     28  C   UNL     1       0.040  -2.768  -0.013  0.00  0.00    -0.022 A 
ATOM     29  C   UNL     1       0.037  -2.084   1.188  0.00  0.00    +0.006 A 
ATOM     30  C   UNL     1       0.023  -0.702   1.195  0.00  0.00    +0.004 A 
ENDBRANCH  23  28
BRANCH  23  31
ATOM     31  C   UNL     1       1.466  -4.761   0.215  0.00  0.00    +0.014 A 
ATOM     32  C   UNL     1       2.382  -5.196  -0.685  0.00  0.00    +0.013 A 
ATOM     33  C   UNL     1       3.626  -5.597  -0.236  0.00  0.00    +0.008 A 
ATOM     34  C   UNL     1       3.893  -5.544   1.092  0.00  0.00    +0.045 A 
ATOM     35  S   UNL     1       2.363  -4.905   1.752  0.00  0.00    -0.099 S 
ENDBRANCH  23  31
ENDBRANCH  19  23
ENDBRANCH   1  20
TORSDOF 7
