REMARK  Name = ZINC09611173
REMARK  7 active torsions:
REMARK  status: ('A' for Active; 'I' for Inactive)
REMARK    1  A    between atoms: C_1  and  C_2
REMARK    2  A    between atoms: C_2  and  N_3
REMARK    3  A    between atoms: N_3  and  C_4
REMARK    4  A    between atoms: C_9  and  O_10
REMARK    5  A    between atoms: O_10  and  C_11
REMARK    6  A    between atoms: C_13  and  C_15
REMARK    7  A    between atoms: C_22  and  C_29
REMARK                            x       y       z     vdW  Elec       q    Type
REMARK                         _______ _______ _______ _____ _____    ______ ____
ROOT
ATOM      1  C   UNL     1      -4.147   0.168   1.304  0.00  0.00    +0.076 A 
ATOM      2  C   UNL     1      -4.859  -0.184   2.415  0.00  0.00    +0.036 A 
ATOM      3  C   UNL     1      -5.983  -1.002   2.259  0.00  0.00    +0.075 A 
ATOM      4  C   UNL     1      -6.265  -1.398   0.938  0.00  0.00    +0.038 A 
ATOM      5  S   UNL     1      -5.032  -0.656  -0.007  0.00  0.00    -0.083 S 
ATOM      6  C   UNL     1      -7.408  -2.256   0.648  0.00  0.00    +0.032 A 
ATOM      7  C   UNL     1      -7.703  -2.659  -0.657  0.00  0.00    +0.016 A 
ATOM      8  C   UNL     1      -8.790  -3.470  -0.894  0.00  0.00    -0.050 A 
ATOM      9  C   UNL     1      -9.592  -3.890   0.156  0.00  0.00    +0.007 A 
ATOM     10  C   UNL     1      -9.313  -3.501   1.450  0.00  0.00    +0.047 A 
ATOM     11  C   UNL     1      -8.223  -2.683   1.712  0.00  0.00    +0.140 A 
ATOM     12  O   UNL     1      -7.944  -2.298   2.975  0.00  0.00    -0.422 OA
ATOM     13  C   UNL     1      -6.910  -1.513   3.295  0.00  0.00    +0.346 A 
ATOM     14  O   UNL     1      -6.727  -1.211   4.460  0.00  0.00    -0.244 OA
ATOM     15  C   UNL     1      -9.109  -3.905  -2.302  0.00  0.00    +0.044 C 
ENDROOT
BRANCH   1  17
ATOM     16  N   UNL     1      -2.437   1.324   0.006  0.00  0.00    -0.264 N 
ATOM     17  C   UNL     1      -2.949   1.009   1.213  0.00  0.00    +0.258 C 
ATOM     18  O   UNL     1      -2.417   1.423   2.226  0.00  0.00    -0.269 OA
BRANCH  16  19
ATOM     19  C   UNL     1      -3.104   0.933  -1.161  0.00  0.00    +0.080 A 
ATOM     20  C   UNL     1      -2.823  -0.293  -1.745  0.00  0.00    +0.047 A 
ATOM     21  C   UNL     1      -3.478  -0.675  -2.902  0.00  0.00    +0.043 A 
ATOM     22  C   UNL     1      -4.420   0.162  -3.475  0.00  0.00    +0.024 A 
ATOM     23  C   UNL     1      -4.709   1.383  -2.894  0.00  0.00    +0.049 A 
ATOM     24  C   UNL     1      -4.056   1.772  -1.736  0.00  0.00    +0.141 A 
ATOM     25 CL   UNL     1      -3.119  -2.206  -3.636  0.00  0.00    -0.083 Cl
BRANCH  24  26
ATOM     26  O   UNL     1      -4.340   2.973  -1.164  0.00  0.00    -0.493 OA
ATOM     27  C   UNL     1      -5.323   3.784  -1.812  0.00  0.00    +0.277 C 
ENDBRANCH  24  26
ENDBRANCH  16  19
BRANCH  16  29
ATOM     28  C   UNL     1      -1.492   3.567  -0.229  0.00  0.00    +0.025 C 
ATOM     29  C   UNL     1      -1.183   2.076  -0.084  0.00  0.00    +0.111 C 
ENDBRANCH  16  29
ENDBRANCH   1  17
TORSDOF 4
