REMARK  Name = ZINC36430641
REMARK  9 active torsions:
REMARK  status: ('A' for Active; 'I' for Inactive)
REMARK    1  A    between atoms: C_1  and  C_2
REMARK    2  A    between atoms: C_4  and  O_5
REMARK    3  A    between atoms: C_14  and  C_16
REMARK    4  A    between atoms: C_19  and  O_33
REMARK    5  A    between atoms: C_20  and  S_22
REMARK    6  A    between atoms: S_22  and  N_25
REMARK    7  A    between atoms: C_27  and  C_32
REMARK    8  A    between atoms: C_29  and  C_31
REMARK    9  A    between atoms: O_33  and  C_34
REMARK                            x       y       z     vdW  Elec       q    Type
REMARK                         _______ _______ _______ _____ _____    ______ ____
ROOT
ATOM      1  C   UNL     1      -0.085  -4.985   5.964  0.00  0.00    +0.039 A 
ATOM      2  C   UNL     1      -0.088  -4.313   7.187  0.00  0.00    +0.017 A 
ATOM      3  C   UNL     1      -0.170  -5.026   8.363  0.00  0.00    +0.048 A 
ATOM      4  C   UNL     1      -0.250  -6.413   8.332  0.00  0.00    +0.146 A 
ATOM      5  C   UNL     1      -0.247  -7.085   7.117  0.00  0.00    +0.148 A 
ATOM      6  C   UNL     1      -0.171  -6.378   5.936  0.00  0.00    +0.045 A 
ENDROOT
BRANCH   1  19
ATOM      7  C   UNL     1       0.306   1.444  -0.040  0.00  0.00    +0.045 C 
ATOM      8  C   UNL     1      -0.134   0.003   0.011  0.00  0.00    -0.033 A 
ATOM      9  C   UNL     1      -0.599  -0.633  -1.123  0.00  0.00    +0.091 A 
ATOM     10  C   UNL     1      -0.999  -1.960  -1.057  0.00  0.00    +0.285 A 
ATOM     11  O   UNL     1      -0.946  -2.647   0.089  0.00  0.00    -0.425 OA
ATOM     12  C   UNL     1      -0.500  -2.074   1.227  0.00  0.00    +0.141 A 
ATOM     13  C   UNL     1      -0.074  -0.726   1.216  0.00  0.00    +0.021 A 
ATOM     14  C   UNL     1       0.397  -0.127   2.398  0.00  0.00    +0.013 A 
ATOM     15  C   UNL     1       0.447  -0.845   3.550  0.00  0.00    +0.024 A 
ATOM     16  C   UNL     1       0.031  -2.189   3.569  0.00  0.00    +0.037 A 
ATOM     17  C   UNL     1      -0.450  -2.796   2.405  0.00  0.00    +0.070 A 
ATOM     18  N   UNL     1       0.086  -2.898   4.726  0.00  0.00    -0.281 N 
ATOM     19  C   UNL     1       0.004  -4.222   4.698  0.00  0.00    +0.248 C 
ATOM     20  O   UNL     1       0.002  -4.811   3.629  0.00  0.00    -0.270 OA
ATOM     21  H   UNL     1       0.186  -2.436   5.573  0.00  0.00    +0.155 HD
BRANCH  10  22
ATOM     22  O   UNL     1      -1.451  -2.569  -2.170  0.00  0.00    -0.480 OA
ATOM     23  H   UNL     1      -1.709  -3.491  -2.037  0.00  0.00    +0.295 HD
ENDBRANCH  10  22
ENDBRANCH   1  19
BRANCH   5  24
ATOM     24  S   UNL     1      -0.348  -8.844   7.083  0.00  0.00    +0.064 S 
ATOM     25  O   UNL     1      -1.427  -9.205   7.935  0.00  0.00    -0.153 OA
ATOM     26  O   UNL     1      -0.295  -9.228   5.716  0.00  0.00    -0.153 OA
BRANCH  24  27
ATOM     27  N   UNL     1       1.030  -9.427   7.792  0.00  0.00    -0.176 NA
ATOM     28  C   UNL     1       2.229  -9.697   6.987  0.00  0.00    +0.112 C 
ATOM     29  C   UNL     1       3.417  -8.953   7.607  0.00  0.00    +0.002 C 
ATOM     30  C   UNL     1       3.547  -9.347   9.080  0.00  0.00    +0.009 C 
ATOM     31  C   UNL     1       2.277  -8.942   9.832  0.00  0.00    +0.002 C 
ATOM     32  C   UNL     1       1.079  -9.680   9.238  0.00  0.00    +0.112 C 
ATOM     33  C   UNL     1       2.422  -9.306  11.311  0.00  0.00    +0.009 C 
ATOM     34  C   UNL     1       3.187  -7.445   7.500  0.00  0.00    +0.009 C 
ENDBRANCH  24  27
ENDBRANCH   5  24
BRANCH   4  35
ATOM     35  O   UNL     1      -0.332  -7.113   9.493  0.00  0.00    -0.493 OA
ATOM     36  C   UNL     1      -0.330  -6.359  10.707  0.00  0.00    +0.277 C 
ENDBRANCH   4  35
TORSDOF 5
