REMARK  Name = ZINC02094052
REMARK  11 active torsions:
REMARK  status: ('A' for Active; 'I' for Inactive)
REMARK    1  A    between atoms: C_1  and  C_2
REMARK    2  A    between atoms: C_2  and  C_3
REMARK    3  A    between atoms: C_6  and  N_9
REMARK    4  A    between atoms: N_9  and  C_10
REMARK    5  A    between atoms: C_10  and  C_11
REMARK    6  A    between atoms: C_13  and  O_27
REMARK    7  A    between atoms: C_14  and  O_18
REMARK    8  A    between atoms: O_18  and  C_19
REMARK    9  A    between atoms: C_19  and  C_20
REMARK   10  A    between atoms: C_23  and  C_26
REMARK   11  A    between atoms: O_27  and  C_28
REMARK                            x       y       z     vdW  Elec       q    Type
REMARK                         _______ _______ _______ _____ _____    ______ ____
ROOT
ATOM      1  C   UNL     1      -1.040   3.593   0.026  0.00  0.00    -0.026 A 
ATOM      2  C   UNL     1      -0.923   4.267   1.228  0.00  0.00    +0.054 A 
ATOM      3  C   UNL     1      -0.684   5.632   1.236  0.00  0.00    +0.163 A 
ATOM      4  C   UNL     1      -0.572   6.323   0.034  0.00  0.00    +0.175 A 
ATOM      5  C   UNL     1      -0.695   5.642  -1.167  0.00  0.00    +0.059 A 
ATOM      6  C   UNL     1      -0.929   4.279  -1.168  0.00  0.00    +0.023 A 
ATOM      7  I   UNL     1      -0.527   6.678  -2.980  0.00  0.00    -0.040 I 
ENDROOT
BRANCH   3   8
ATOM      8  O   UNL     1      -0.564   6.295   2.417  0.00  0.00    -0.491 OA
ATOM      9  C   UNL     1      -0.690   5.521   3.612  0.00  0.00    +0.277 C 
ENDBRANCH   3   8
BRANCH   1  10
ATOM     10  C   UNL     1      -1.295   2.108   0.020  0.00  0.00    +0.137 C 
BRANCH  10  11
ATOM     11  N   UNL     1      -0.017   1.393   0.010  0.00  0.00    -0.340 N 
ATOM     12  H   UNL     1       0.817   1.889   0.004  0.00  0.00    +0.146 HD
BRANCH  11  16
ATOM     13  C   UNL     1       0.040  -2.771  -0.012  0.00  0.00    -0.048 A 
ATOM     14  C   UNL     1       1.229  -2.065  -0.020  0.00  0.00    +0.005 A 
ATOM     15  C   UNL     1       1.214  -0.684  -0.013  0.00  0.00    +0.023 A 
ATOM     16  C   UNL     1       0.002  -0.004   0.002  0.00  0.00    +0.027 A 
ATOM     17  C   UNL     1      -1.190  -0.717   0.015  0.00  0.00    +0.023 A 
ATOM     18  C   UNL     1      -1.168  -2.097   0.003  0.00  0.00    +0.005 A 
BRANCH  13  20
ATOM     19  C   UNL     1       0.081  -4.795   1.419  0.00  0.00    +0.009 C 
ATOM     20  C   UNL     1       0.060  -4.278  -0.021  0.00  0.00    +0.032 C 
ENDBRANCH  13  20
ENDBRANCH  11  16
ENDBRANCH  10  11
ENDBRANCH   1  10
BRANCH   4  21
ATOM     21  O   UNL     1      -0.343   7.663   0.037  0.00  0.00    -0.483 OA
BRANCH  21  22
ATOM     22  C   UNL     1      -1.488   8.518   0.045  0.00  0.00    +0.264 C 
BRANCH  22  23
ATOM     23  C   UNL     1      -1.041   9.957   0.048  0.00  0.00    -0.010 A 
ATOM     24  C   UNL     1      -0.836  10.615   1.246  0.00  0.00    +0.007 A 
ATOM     25  C   UNL     1      -0.422  11.934   1.248  0.00  0.00    +0.004 A 
ATOM     26  C   UNL     1      -0.223  12.598   0.052  0.00  0.00    -0.050 A 
ATOM     27  C   UNL     1      -0.433  11.941  -1.146  0.00  0.00    +0.004 A 
ATOM     28  C   UNL     1      -0.843  10.621  -1.148  0.00  0.00    +0.007 A 
ATOM     29  C   UNL     1       0.224  14.037   0.054  0.00  0.00    +0.044 C 
ENDBRANCH  22  23
ENDBRANCH  21  22
ENDBRANCH   4  21
TORSDOF 8
