REMARK  Name = ZINC59445329
REMARK  4 active torsions:
REMARK  status: ('A' for Active; 'I' for Inactive)
REMARK    1  A    between atoms: C_3  and  O_17
REMARK    2  A    between atoms: C_4  and  C_8
REMARK    3  A    between atoms: N_9  and  N_10
REMARK    4  A    between atoms: C_11  and  C_13
REMARK                            x       y       z     vdW  Elec       q    Type
REMARK                         _______ _______ _______ _____ _____    ______ ____
ROOT
ATOM      1  C   UNL     1       3.692  -0.690  -0.037  0.00  0.00    +0.142 C 
ATOM      2  N   UNL     1       4.806  -0.025  -0.045  0.00  0.00    -0.187 NA
ENDROOT
BRANCH   1   6
ATOM      3  C   UNL     1      -0.017   1.381   0.010  0.00  0.00    +0.019 A 
ATOM      4  C   UNL     1       1.166   2.096   0.002  0.00  0.00    +0.047 A 
ATOM      5  C   UNL     1       2.381   1.430  -0.013  0.00  0.00    +0.126 A 
ATOM      6  C   UNL     1       2.405   0.028  -0.021  0.00  0.00    +0.037 A 
ATOM      7  C   UNL     1       1.204  -0.683  -0.013  0.00  0.00    +0.028 A 
ATOM      8  C   UNL     1       0.002  -0.004   0.002  0.00  0.00    +0.019 A 
ATOM      9 BR   UNL     1      -1.625  -0.968   0.012  0.00  0.00    -0.050 Br
BRANCH   5  10
ATOM     10  O   UNL     1       3.543   2.132  -0.021  0.00  0.00    -0.506 OA
ATOM     11  H   UNL     1       3.888   2.331   0.860  0.00  0.00    +0.292 HD
ENDBRANCH   5  10
ENDBRANCH   1   6
BRANCH   2  12
ATOM     12  N   UNL     1       6.029  -0.708  -0.061  0.00  0.00    -0.200 N 
ATOM     13  C   UNL     1       7.187  -0.018  -0.069  0.00  0.00    +0.336 C 
ATOM     14  O   UNL     1       7.170   1.195  -0.062  0.00  0.00    -0.264 OA
ATOM     15  H   UNL     1       6.043  -1.678  -0.066  0.00  0.00    +0.178 HD
BRANCH  13  16
ATOM     16  C   UNL     1       8.502  -0.753  -0.086  0.00  0.00    +0.471 C 
ATOM     17  F   UNL     1       9.553   0.172  -0.091  0.00  0.00    -0.162 F 
ATOM     18  F   UNL     1       8.599  -1.562   1.051  0.00  0.00    -0.162 F 
ATOM     19  F   UNL     1       8.577  -1.550  -1.233  0.00  0.00    -0.162 F 
ENDBRANCH  13  16
ENDBRANCH   2  12
TORSDOF 4
