REMARK  Name = ZINC64061390
REMARK  9 active torsions:
REMARK  status: ('A' for Active; 'I' for Inactive)
REMARK    1  A    between atoms: C_1  and  N_2
REMARK    2  A    between atoms: N_2  and  C_3
REMARK    3  A    between atoms: N_2  and  C_14
REMARK    4  A    between atoms: C_3  and  C_4
REMARK    5  A    between atoms: C_14  and  C_15
REMARK    6  A    between atoms: C_19  and  S_28
REMARK    7  A    between atoms: N_20  and  C_21
REMARK    8  A    between atoms: S_28  and  C_29
REMARK    9  A    between atoms: C_29  and  C_30
REMARK                            x       y       z     vdW  Elec       q    Type
REMARK                         _______ _______ _______ _____ _____    ______ ____
ROOT
ATOM      1  C   UNL     1      -0.439  -0.041  -2.379  0.00  0.00    +0.196 C 
ATOM      2  N   UNL     1      -0.463   1.429  -2.468  0.00  0.00    -0.245 N 
ATOM      3  N   UNL     1      -1.791   1.812  -2.245  0.00  0.00    -0.162 NA
ATOM      4  C   UNL     1      -2.550   0.789  -2.039  0.00  0.00    +0.180 C 
ATOM      5  N   UNL     1      -1.838  -0.404  -2.098  0.00  0.00    -0.257 N 
ATOM      6  H   UNL     1       0.290   2.014  -2.645  0.00  0.00    +0.170 HD
ENDROOT
BRANCH   5   7
ATOM      7  C   UNL     1      -2.348  -1.694  -1.923  0.00  0.00    +0.039 A 
ATOM      8  C   UNL     1      -2.848  -2.083  -0.686  0.00  0.00    +0.023 A 
ATOM      9  C   UNL     1      -3.351  -3.358  -0.517  0.00  0.00    +0.003 A 
ATOM     10  C   UNL     1      -3.357  -4.247  -1.576  0.00  0.00    +0.020 A 
ATOM     11  C   UNL     1      -2.860  -3.864  -2.809  0.00  0.00    +0.043 A 
ATOM     12  C   UNL     1      -2.361  -2.587  -2.986  0.00  0.00    +0.043 A 
ATOM     13 CL   UNL     1      -2.870  -4.984  -4.135  0.00  0.00    -0.083 Cl
ENDBRANCH   5   7
BRANCH   1  14
ATOM     14  C   UNL     1       0.473  -0.496  -1.238  0.00  0.00    +0.128 C 
BRANCH  14  16
ATOM     15  C   UNL     1       0.316   1.454   0.189  0.00  0.00    +0.105 C 
ATOM     16  N   UNL     1      -0.033   0.035   0.035  0.00  0.00    -0.300 NA
BRANCH  16  17
ATOM     17  C   UNL     1       0.463  -0.755   1.169  0.00  0.00    +0.113 C 
BRANCH  17  18
ATOM     18  C   UNL     1      -0.273  -0.337   2.443  0.00  0.00    +0.117 C 
ATOM     19  C   UNL     1       0.092  -1.261   3.583  0.00  0.00    +0.008 C 
ATOM     20  C   UNL     1      -1.063  -1.845   3.976  0.00  0.00    -0.004 A 
ATOM     21  C   UNL     1      -1.375  -2.827   5.021  0.00  0.00    +0.010 A 
ATOM     22  C   UNL     1      -2.656  -3.232   5.179  0.00  0.00    +0.001 A 
ATOM     23  C   UNL     1      -3.690  -2.739   4.372  0.00  0.00    +0.002 A 
ATOM     24  C   UNL     1      -3.481  -1.835   3.391  0.00  0.00    +0.026 A 
ATOM     25  C   UNL     1      -2.173  -1.340   3.137  0.00  0.00    +0.043 A 
ATOM     26  N   UNL     1      -1.722  -0.475   2.259  0.00  0.00    -0.377 N 
ATOM     27  H   UNL     1      -2.256  -0.006   1.599  0.00  0.00    +0.160 HD
ENDBRANCH  17  18
ENDBRANCH  16  17
ENDBRANCH  14  16
ENDBRANCH   1  14
BRANCH   4  28
ATOM     28  S   UNL     1      -4.280   0.891  -1.723  0.00  0.00    -0.084 S 
BRANCH  28  29
ATOM     29  C   UNL     1      -4.630   2.671  -1.770  0.00  0.00    +0.112 C 
BRANCH  29  30
ATOM     30  C   UNL     1      -6.097   2.901  -1.511  0.00  0.00    -0.034 A 
ATOM     31  C   UNL     1      -7.007   2.929  -2.557  0.00  0.00    +0.024 A 
ATOM     32  C   UNL     1      -8.344   3.143  -2.281  0.00  0.00    +0.111 A 
ATOM     33  N   UNL     1      -8.757   3.319  -1.041  0.00  0.00    -0.263 NA
ATOM     34  C   UNL     1      -7.920   3.298  -0.022  0.00  0.00    +0.111 A 
ATOM     35  C   UNL     1      -6.570   3.083  -0.220  0.00  0.00    +0.024 A 
ENDBRANCH  29  30
ENDBRANCH  28  29
ENDBRANCH   4  28
TORSDOF 8
