REMARK  Name = ZINC09183771
REMARK  7 active torsions:
REMARK  status: ('A' for Active; 'I' for Inactive)
REMARK    1  A    between atoms: C_1  and  C_2
REMARK    2  A    between atoms: C_2  and  C_35
REMARK    3  A    between atoms: C_8  and  O_19
REMARK    4  A    between atoms: O_19  and  C_20
REMARK    5  A    between atoms: C_20  and  C_21
REMARK    6  A    between atoms: N_23  and  C_24
REMARK    7  A    between atoms: C_31  and  O_33
REMARK                            x       y       z     vdW  Elec       q    Type
REMARK                         _______ _______ _______ _____ _____    ______ ____
ROOT
ATOM      1  C   UNL     1      -1.122   1.012  -7.681  0.00  0.00    +0.055 C 
ATOM      2  C   UNL     1      -0.337   2.314  -7.510  0.00  0.00    +0.105 C 
ATOM      3  C   UNL     1      -1.281   3.429  -7.044  0.00  0.00    +0.052 C 
ATOM      4  C   UNL     1      -1.988   2.958  -5.771  0.00  0.00    +0.046 C 
ATOM      5  C   UNL     1      -0.976   2.396  -4.806  0.00  0.00    +0.038 A 
ATOM      6  C   UNL     1       0.286   2.011  -5.225  0.00  0.00    +0.131 A 
ATOM      7  C   UNL     1       1.200   1.482  -4.312  0.00  0.00    +0.092 A 
ATOM      8  C   UNL     1       0.863   1.340  -2.983  0.00  0.00    +0.136 A 
ATOM      9  C   UNL     1      -0.414   1.736  -2.547  0.00  0.00    +0.063 A 
ATOM     10  C   UNL     1      -1.333   2.263  -3.470  0.00  0.00    +0.149 A 
ATOM     11  O   UNL     1      -2.563   2.639  -3.054  0.00  0.00    -0.421 OA
ATOM     12  C   UNL     1      -2.921   2.519  -1.765  0.00  0.00    +0.341 A 
ATOM     13  O   UNL     1      -4.036   2.866  -1.420  0.00  0.00    -0.245 OA
ATOM     14  C   UNL     1      -2.029   1.998  -0.802  0.00  0.00    +0.041 A 
ATOM     15  C   UNL     1      -0.785   1.607  -1.183  0.00  0.00    -0.023 A 
ATOM     16  C   UNL     1      -0.013   1.086   0.008  0.00  0.00    +0.037 C 
ATOM     17  C   UNL     1      -0.778   1.605   1.244  0.00  0.00    +0.010 C 
ATOM     18  C   UNL     1      -2.210   1.776   0.684  0.00  0.00    +0.043 C 
ATOM     19  O   UNL     1       0.676   2.139  -6.520  0.00  0.00    -0.486 OA
ATOM     20  C   UNL     1       0.306   2.706  -8.842  0.00  0.00    +0.055 C 
ENDROOT
BRANCH   8  21
ATOM     21  O   UNL     1       1.756   0.824  -2.102  0.00  0.00    -0.482 OA
BRANCH  21  22
ATOM     22  C   UNL     1       3.033   0.445  -2.620  0.00  0.00    +0.324 C 
BRANCH  22  23
ATOM     23  C   UNL     1       3.885  -0.104  -1.505  0.00  0.00    +0.251 C 
ATOM     24  O   UNL     1       3.443  -0.164  -0.377  0.00  0.00    -0.272 OA
ATOM     25  N   UNL     1       5.139  -0.527  -1.760  0.00  0.00    -0.306 N 
ATOM     26  H   UNL     1       5.493  -0.478  -2.662  0.00  0.00    +0.149 HD
BRANCH  25  27
ATOM     27  C   UNL     1       5.968  -1.060  -0.676  0.00  0.00    +0.124 C 
ATOM     28  C   UNL     1       5.672  -2.565  -0.523  0.00  0.00    +0.190 C 
ATOM     29  S   UNL     1       7.339  -3.336  -0.651  0.00  0.00    -0.027 S 
ATOM     30  O   UNL     1       7.515  -4.250   0.423  0.00  0.00    -0.174 OA
ATOM     31  O   UNL     1       7.551  -3.772  -1.987  0.00  0.00    -0.174 OA
ATOM     32  C   UNL     1       8.354  -1.826  -0.336  0.00  0.00    +0.199 C 
ATOM     33  C   UNL     1       7.433  -0.755  -0.984  0.00  0.00    +0.157 C 
BRANCH  33  34
ATOM     34  O   UNL     1       7.767   0.533  -0.465  0.00  0.00    -0.388 OA
ATOM     35  H   UNL     1       8.685   0.795  -0.623  0.00  0.00    +0.210 HD
ENDBRANCH  33  34
ENDBRANCH  25  27
ENDBRANCH  22  23
ENDBRANCH  21  22
ENDBRANCH   8  21
TORSDOF 5
