REMARK  Name = ZINC05845425
REMARK  11 active torsions:
REMARK  status: ('A' for Active; 'I' for Inactive)
REMARK    1  A    between atoms: C_1  and  C_2
REMARK    2  A    between atoms: C_2  and  C_3
REMARK    3  A    between atoms: C_3  and  C_4
REMARK    4  A    between atoms: C_4  and  C_5
REMARK    5  A    between atoms: C_5  and  C_6
REMARK    6  A    between atoms: C_6  and  C_7
REMARK    7  A    between atoms: N_9  and  N_10
REMARK    8  A    between atoms: N_10  and  C_11
REMARK    9  A    between atoms: C_11  and  C_13
REMARK   10  A    between atoms: N_20  and  C_23
REMARK   11  A    between atoms: C_23  and  C_24
REMARK                            x       y       z     vdW  Elec       q    Type
REMARK                         _______ _______ _______ _____ _____    ______ ____
ROOT
ATOM      1  C   UNL     1       2.878   5.556  -3.423  0.00  0.00    +0.206 C 
ATOM      2  C   UNL     1       3.760   4.484  -4.035  0.00  0.00    +0.238 C 
ATOM      3  O   UNL     1       4.165   4.578  -5.173  0.00  0.00    -0.274 OA
ATOM      4  N   UNL     1       4.076   3.421  -3.264  0.00  0.00    -0.239 N 
ATOM      5  C   UNL     1       3.642   3.305  -2.004  0.00  0.00    +0.315 C 
ATOM      6  O   UNL     1       3.979   2.319  -1.381  0.00  0.00    -0.252 OA
ATOM      7  N   UNL     1       2.858   4.194  -1.383  0.00  0.00    -0.220 N 
ATOM      8  C   UNL     1       2.436   5.323  -1.990  0.00  0.00    +0.241 C 
ATOM      9  O   UNL     1       1.730   6.122  -1.413  0.00  0.00    -0.274 OA
ATOM     10  H   UNL     1       4.639   2.723  -3.634  0.00  0.00    +0.159 HD
ENDROOT
BRANCH   1  11
ATOM     11  C   UNL     1       1.645   5.693  -4.277  0.00  0.00    +0.036 C 
ATOM     12  C   UNL     1       1.432   6.806  -4.955  0.00  0.00    +0.031 C 
BRANCH  11  13
ATOM     13  N   UNL     1       0.732   4.649  -4.352  0.00  0.00    -0.268 N 
ATOM     14  H   UNL     1       0.888   3.831  -3.854  0.00  0.00    +0.170 HD
BRANCH  13  17
ATOM     15  C   UNL     1      -1.301   3.764  -5.219  0.00  0.00    +0.229 C 
ATOM     16  O   UNL     1      -1.105   2.741  -4.596  0.00  0.00    -0.274 OA
ATOM     17  N   UNL     1      -0.415   4.777  -5.147  0.00  0.00    -0.237 N 
ATOM     18  H   UNL     1      -0.571   5.594  -5.645  0.00  0.00    +0.173 HD
BRANCH  15  19
ATOM     19  C   UNL     1      -2.534   3.901  -6.074  0.00  0.00    +0.097 C 
BRANCH  19  20
ATOM     20  C   UNL     1      -3.365   2.619  -5.981  0.00  0.00    +0.009 C 
BRANCH  20  21
ATOM     21  C   UNL     1      -4.617   2.759  -6.848  0.00  0.00    +0.000 C 
BRANCH  21  22
ATOM     22  C   UNL     1      -5.448   1.477  -6.755  0.00  0.00    -0.000 C 
BRANCH  22  24
ATOM     23  C   UNL     1      -7.531   0.335  -7.529  0.00  0.00    +0.004 C 
ATOM     24  C   UNL     1      -6.700   1.617  -7.622  0.00  0.00    -0.003 C 
ENDBRANCH  22  24
ENDBRANCH  21  22
ENDBRANCH  20  21
ENDBRANCH  19  20
ENDBRANCH  15  19
ENDBRANCH  13  17
ENDBRANCH  11  13
ENDBRANCH   1  11
BRANCH   7  25
ATOM     25  C   UNL     1       2.451   3.937   0.001  0.00  0.00    +0.153 C 
BRANCH  25  26
ATOM     26  C   UNL     1       1.156   3.165   0.008  0.00  0.00    -0.030 A 
ATOM     27  C   UNL     1       1.175   1.783   0.000  0.00  0.00    +0.005 A 
ATOM     28  C   UNL     1      -0.013   1.076   0.008  0.00  0.00    +0.000 A 
ATOM     29  C   UNL     1      -1.219   1.751   0.017  0.00  0.00    +0.000 A 
ATOM     30  C   UNL     1      -1.238   3.133   0.029  0.00  0.00    +0.000 A 
ATOM     31  C   UNL     1      -0.050   3.840   0.023  0.00  0.00    +0.005 A 
ENDBRANCH  25  26
ENDBRANCH   7  25
TORSDOF 10
