REMARK  Name = ZINC36221841
REMARK  6 active torsions:
REMARK  status: ('A' for Active; 'I' for Inactive)
REMARK    1  A    between atoms: C_1  and  C_2
REMARK    2  A    between atoms: C_5  and  C_9
REMARK    3  A    between atoms: C_6  and  C_8
REMARK    4  A    between atoms: C_10  and  C_19
REMARK    5  A    between atoms: C_13  and  N_18
REMARK    6  A    between atoms: C_19  and  C_20
REMARK                            x       y       z     vdW  Elec       q    Type
REMARK                         _______ _______ _______ _____ _____    ______ ____
ROOT
ATOM      1  C   UNL     1       0.358  -4.247  -0.233  0.00  0.00    +0.094 A 
ATOM      2  C   UNL     1       0.359  -4.971  -1.388  0.00  0.00    +0.065 A 
ATOM      3  N   UNL     1       0.552  -6.278  -1.042  0.00  0.00    -0.300 N 
ATOM      4  C   UNL     1       0.640  -7.423  -1.786  0.00  0.00    +0.115 A 
ATOM      5  C   UNL     1       0.839  -8.621  -1.184  0.00  0.00    +0.041 A 
ATOM      6  C   UNL     1       0.958  -8.698   0.218  0.00  0.00    +0.028 A 
ATOM      7  C   UNL     1       0.872  -7.564   0.964  0.00  0.00    +0.048 A 
ATOM      8  C   UNL     1       0.665  -6.326   0.322  0.00  0.00    +0.139 A 
ATOM      9  N   UNL     1       0.551  -5.091   0.793  0.00  0.00    -0.227 NA
ENDROOT
BRANCH   1  14
ATOM     10  C   UNL     1      -0.334   1.456   0.176  0.00  0.00    +0.044 C 
ATOM     11  C   UNL     1      -0.153  -0.036   0.069  0.00  0.00    -0.050 A 
ATOM     12  C   UNL     1       0.750  -0.558  -0.840  0.00  0.00    +0.004 A 
ATOM     13  C   UNL     1       0.920  -1.923  -0.942  0.00  0.00    +0.010 A 
ATOM     14  C   UNL     1       0.180  -2.778  -0.127  0.00  0.00    +0.005 A 
ATOM     15  C   UNL     1      -0.728  -2.248   0.787  0.00  0.00    -0.041 A 
ATOM     16  C   UNL     1      -0.886  -0.880   0.884  0.00  0.00    +0.007 A 
ATOM     17  C   UNL     1      -1.532  -3.165   1.671  0.00  0.00    +0.044 C 
ENDBRANCH   1  14
BRANCH   5  18
ATOM     18  N   UNL     1       0.926  -9.786  -1.958  0.00  0.00    -0.357 N 
ATOM     19  H   UNL     1       0.845  -9.735  -2.923  0.00  0.00    +0.142 HD
ATOM     20  H   UNL     1       1.069 -10.644  -1.528  0.00  0.00    +0.142 HD
ENDBRANCH   5  18
BRANCH   2  21
ATOM     21  C   UNL     1       0.181  -4.430  -2.783  0.00  0.00    +0.174 C 
BRANCH  21  22
ATOM     22  C   UNL     1      -1.255  -4.313  -3.084  0.00  0.00    +0.069 C 
ATOM     23  N   UNL     1      -2.363  -4.222  -3.317  0.00  0.00    -0.196 NA
ENDBRANCH  21  22
ENDBRANCH   2  21
TORSDOF 4
