REMARK  Name = ZINC63214708
REMARK  5 active torsions:
REMARK  status: ('A' for Active; 'I' for Inactive)
REMARK    1  A    between atoms: C_1  and  C_2
REMARK    2  A    between atoms: C_3  and  C_22
REMARK    3  A    between atoms: C_7  and  N_11
REMARK    4  A    between atoms: N_11  and  C_12
REMARK    5  A    between atoms: C_19  and  N_21
REMARK                            x       y       z     vdW  Elec       q    Type
REMARK                         _______ _______ _______ _____ _____    ______ ____
ROOT
ATOM      1  N   UNL     1       0.262   1.092   2.839  0.00  0.00    -0.327 N 
ATOM      2  H   UNL     1       0.110   1.724   2.119  0.00  0.00    +0.148 HD
ENDROOT
BRANCH   1   9
ATOM      3  C   UNL     1      -0.553   1.486   0.113  0.00  0.00    +0.045 C 
ATOM      4  C   UNL     1      -0.481  -0.019   0.095  0.00  0.00    -0.028 A 
ATOM      5  C   UNL     1      -0.767  -0.699  -1.026  0.00  0.00    -0.008 A 
ATOM      6  S   UNL     1      -0.543  -2.402  -0.549  0.00  0.00    -0.074 S 
ATOM      7  C   UNL     1      -0.072  -2.156   1.143  0.00  0.00    +0.114 A 
ATOM      8  C   UNL     1      -0.095  -0.751   1.289  0.00  0.00    +0.051 A 
ATOM      9  C   UNL     1       0.255  -0.267   2.579  0.00  0.00    +0.131 A 
ATOM     10  N   UNL     1       0.576  -1.132   3.528  0.00  0.00    -0.220 NA
ATOM     11  C   UNL     1       0.582  -2.436   3.318  0.00  0.00    +0.224 A 
ATOM     12  N   UNL     1       0.256  -2.946   2.146  0.00  0.00    -0.228 NA
ATOM     13  C   UNL     1      -1.180  -0.152  -2.368  0.00  0.00    +0.052 C 
ENDBRANCH   1   9
BRANCH   1  14
ATOM     14  C   UNL     1       0.498   1.576   4.201  0.00  0.00    +0.057 C 
ATOM     15  C   UNL     1       2.017   1.625   4.455  0.00  0.00    +0.020 C 
ATOM     16  C   UNL     1       2.376   2.484   5.637  0.00  0.00    +0.002 C 
ATOM     17  C   UNL     1       2.703   3.903   5.131  0.00  0.00    +0.000 C 
ATOM     18  C   UNL     1       1.506   4.688   4.866  0.00  0.00    -0.002 C 
ATOM     19  C   UNL     1       0.628   4.066   3.761  0.00  0.00    -0.014 C 
ATOM     20  C   UNL     1      -0.178   2.951   4.364  0.00  0.00    -0.055 C 
BRANCH  20  21
ATOM     21  N   UNL     1      -1.494   2.913   3.713  0.00  0.00    +0.381 N 
ATOM     22  H   UNL     1      -2.063   2.200   4.144  0.00  0.00    -0.090 HD
ATOM     23  H   UNL     1      -1.945   3.810   3.814  0.00  0.00    -0.090 HD
ATOM     24  H   UNL     1      -1.379   2.704   2.732  0.00  0.00    -0.090 HD
ENDBRANCH  20  21
ENDBRANCH   1  14
TORSDOF 3
