REMARK  Name = ZINC24004953
REMARK  14 active torsions:
REMARK  status: ('A' for Active; 'I' for Inactive)
REMARK    1  A    between atoms: C_1  and  C_2
REMARK    2  A    between atoms: C_2  and  C_3
REMARK    3  A    between atoms: C_3  and  C_4
REMARK    4  A    between atoms: C_4  and  N_5
REMARK    5  A    between atoms: N_5  and  C_6
REMARK    6  A    between atoms: C_7  and  N_19
REMARK    7  A    between atoms: N_8  and  C_15
REMARK    8  A    between atoms: C_15  and  C_16
REMARK    9  A    between atoms: C_16  and  C_17
REMARK   10  A    between atoms: C_16  and  C_18
REMARK   11  A    between atoms: C_20  and  C_22
REMARK   12  A    between atoms: C_22  and  S_23
REMARK   13  A    between atoms: S_23  and  C_24
REMARK   14  A    between atoms: C_24  and  C_25
REMARK                            x       y       z     vdW  Elec       q    Type
REMARK                         _______ _______ _______ _____ _____    ______ ____
ROOT
ATOM      1  N   UNL     1      -0.043   1.169  -5.274  0.00  0.00    -0.264 N 
ATOM      2  C   UNL     1      -0.517   1.747  -4.150  0.00  0.00    +0.230 C 
ATOM      3  O   UNL     1      -1.390   2.586  -4.222  0.00  0.00    -0.274 OA
ENDROOT
BRANCH   1   4
ATOM      4  C   UNL     1      -0.627   1.469  -6.522  0.00  0.00    +0.140 A 
ATOM      5  C   UNL     1      -1.945   1.147  -6.777  0.00  0.00    +0.127 A 
ATOM      6  N   UNL     1      -2.486   1.452  -8.004  0.00  0.00    -0.280 N 
ATOM      7  C   UNL     1      -1.741   2.058  -8.945  0.00  0.00    +0.331 A 
ATOM      8  O   UNL     1      -2.238   2.320 -10.023  0.00  0.00    -0.246 OA
ATOM      9  N   UNL     1      -0.455   2.381  -8.715  0.00  0.00    -0.273 N 
ATOM     10  H   UNL     1       0.138   2.872  -9.501  0.00  0.00    +0.173 HD
ATOM     11  C   UNL     1       0.122   2.108  -7.528  0.00  0.00    +0.277 A 
ATOM     12  O   UNL     1       1.286   2.409  -7.328  0.00  0.00    -0.266 OA
BRANCH   5  13
ATOM     13  N   UNL     1      -2.707   0.527  -5.815  0.00  0.00    -0.343 N 
ATOM     14  H   UNL     1      -3.756   0.272  -6.025  0.00  0.00    +0.144 HD
ATOM     15  H   UNL     1      -2.267   0.285  -4.836  0.00  0.00    +0.144 HD
ENDBRANCH   5  13
BRANCH   6  16
ATOM     16  C   UNL     1      -3.884   1.116  -8.287  0.00  0.00    +0.131 C 
BRANCH  16  17
ATOM     17  C   UNL     1      -4.782   2.286  -7.883  0.00  0.00    +0.003 C 
ATOM     18  C   UNL     1      -4.470   3.497  -8.765  0.00  0.00    +0.009 C 
ATOM     19  C   UNL     1      -6.249   1.889  -8.062  0.00  0.00    +0.009 C 
ENDBRANCH  16  17
ENDBRANCH   6  16
ENDBRANCH   1   4
BRANCH   1  20
ATOM     20  C   UNL     1       1.079   0.230  -5.197  0.00  0.00    +0.114 C 
BRANCH  20  21
ATOM     21  C   UNL     1       0.541  -1.196  -5.060  0.00  0.00    +0.019 C 
BRANCH  21  23
ATOM     22  C   UNL     1       1.176  -3.603  -4.843  0.00  0.00    +0.004 C 
ATOM     23  C   UNL     1       1.713  -2.177  -4.980  0.00  0.00    -0.002 C 
ENDBRANCH  21  23
ENDBRANCH  20  21
ENDBRANCH   1  20
BRANCH   2  24
ATOM     24  C   UNL     1       0.037   1.349  -2.807  0.00  0.00    +0.165 C 
BRANCH  24  25
ATOM     25  S   UNL     1      -0.798   2.295  -1.504  0.00  0.00    -0.145 S 
BRANCH  25  26
ATOM     26  C   UNL     1      -0.027   1.707   0.029  0.00  0.00    +0.132 C 
BRANCH  26  27
ATOM     27  C   UNL     1      -0.638   2.423   1.206  0.00  0.00    +0.089 A 
ATOM     28  N   UNL     1      -1.676   2.075   1.913  0.00  0.00    -0.243 NA
ATOM     29  C   UNL     1      -2.124   2.811   2.952  0.00  0.00    +0.079 A 
ATOM     30  C   UNL     1      -3.224   2.570   3.806  0.00  0.00    +0.029 A 
ATOM     31  C   UNL     1      -3.526   3.435   4.811  0.00  0.00    +0.002 A 
ATOM     32  C   UNL     1      -2.774   4.580   5.037  0.00  0.00    +0.001 A 
ATOM     33  C   UNL     1      -1.690   4.852   4.223  0.00  0.00    +0.017 A 
ATOM     34  C   UNL     1      -1.377   3.984   3.205  0.00  0.00    +0.039 A 
ATOM     35  S   UNL     1      -0.124   3.905   1.950  0.00  0.00    -0.071 S 
ENDBRANCH  26  27
ENDBRANCH  25  26
ENDBRANCH  24  25
ENDBRANCH   2  24
TORSDOF 11
