REMARK  Name = ZINC39359473
REMARK  3 active torsions:
REMARK  status: ('A' for Active; 'I' for Inactive)
REMARK    1  A    between atoms: C_1  and  C_2
REMARK    2  A    between atoms: C_2  and  C_25
REMARK    3  A    between atoms: C_6  and  C_15
REMARK                            x       y       z     vdW  Elec       q    Type
REMARK                         _______ _______ _______ _____ _____    ______ ____
ROOT
ATOM      1  C   UNL     1      -0.019   1.526   0.010  0.00  0.00    +0.011 C 
ATOM      2  C   UNL     1       0.002  -0.004   0.002  0.00  0.00    -0.023 C 
ATOM      3  C   UNL     1      -1.430  -0.539   0.041  0.00  0.00    +0.058 C 
ATOM      4  C   UNL     1      -1.408  -2.051   0.064  0.00  0.00    +0.017 C 
ATOM      5  C   UNL     1      -0.396  -2.714   0.664  0.00  0.00    +0.024 C 
ATOM      6  C   UNL     1      -0.347  -4.228   0.721  0.00  0.00    +0.093 C 
ATOM      7  C   UNL     1      -1.355  -4.788  -0.230  0.00  0.00    +0.071 C 
ATOM      8  C   UNL     1      -2.336  -4.040  -0.812  0.00  0.00    +0.152 C 
ATOM      9  N   UNL     1      -2.452  -2.696  -0.552  0.00  0.00    -0.301 N 
ATOM     10  N   UNL     1      -3.064  -4.881  -1.611  0.00  0.00    -0.141 NA
ATOM     11  N   UNL     1      -2.633  -6.040  -1.576  0.00  0.00    -0.074 NA
ATOM     12  C   UNL     1      -1.562  -6.137  -0.753  0.00  0.00    +0.285 C 
ATOM     13  O   UNL     1      -0.913  -7.131  -0.504  0.00  0.00    -0.267 OA
ATOM     14  C   UNL     1       0.671  -2.019   1.265  0.00  0.00    +0.162 C 
ATOM     15  O   UNL     1       1.555  -2.647   1.813  0.00  0.00    -0.292 OA
ATOM     16  C   UNL     1       0.742  -0.517   1.242  0.00  0.00    +0.086 C 
ATOM     17  C   UNL     1       0.705  -0.503  -1.262  0.00  0.00    +0.011 C 
ATOM     18  H   UNL     1      -3.255  -2.212  -0.799  0.00  0.00    +0.153 HD
ENDROOT
BRANCH   6  19
ATOM     19  C   UNL     1      -0.662  -4.690   2.120  0.00  0.00    -0.021 A 
ATOM     20  C   UNL     1      -1.881  -4.379   2.693  0.00  0.00    +0.005 A 
ATOM     21  C   UNL     1      -2.170  -4.803   3.976  0.00  0.00    +0.000 A 
ATOM     22  C   UNL     1      -1.240  -5.538   4.688  0.00  0.00    +0.001 A 
ATOM     23  C   UNL     1      -0.021  -5.849   4.116  0.00  0.00    +0.015 A 
ATOM     24  C   UNL     1       0.267  -5.429   2.829  0.00  0.00    +0.022 A 
ATOM     25 BR   UNL     1       1.932  -5.861   2.044  0.00  0.00    -0.050 Br
ENDBRANCH   6  19
TORSDOF 1
