REMARK  Name = ZINC09501655
REMARK  6 active torsions:
REMARK  status: ('A' for Active; 'I' for Inactive)
REMARK    1  A    between atoms: C_1  and  C_2
REMARK    2  A    between atoms: C_7  and  N_8
REMARK    3  A    between atoms: N_8  and  C_9
REMARK    4  A    between atoms: C_9  and  C_10
REMARK    5  A    between atoms: N_12  and  C_13
REMARK    6  A    between atoms: C_13  and  C_19
REMARK                            x       y       z     vdW  Elec       q    Type
REMARK                         _______ _______ _______ _____ _____    ______ ____
ROOT
ATOM      1  C   UNL     1       0.604  -0.675   1.004  0.00  0.00    +0.231 C 
ATOM      2  O   UNL     1       1.130  -0.067   1.911  0.00  0.00    -0.274 OA
ATOM      3  N   UNL     1       0.002  -0.004   0.002  0.00  0.00    -0.296 N 
ATOM      4  H   UNL     1      -0.418  -0.491  -0.724  0.00  0.00    +0.150 HD
ENDROOT
BRANCH   3   5
ATOM      5  C   UNL     1      -0.018   1.461   0.010  0.00  0.00    +0.121 C 
ATOM      6  C   UNL     1      -0.734   1.954   1.269  0.00  0.00    +0.041 C 
ATOM      7  C   UNL     1      -0.755   3.484   1.277  0.00  0.00    +0.003 C 
ATOM      8  C   UNL     1      -1.495   3.991   0.038  0.00  0.00    +0.000 C 
ATOM      9  C   UNL     1      -0.778   3.497  -1.221  0.00  0.00    +0.003 C 
ATOM     10  C   UNL     1      -0.758   1.968  -1.230  0.00  0.00    +0.041 C 
BRANCH   5  11
ATOM     11  C   UNL     1       1.363   1.970  -0.000  0.00  0.00    +0.088 C 
ATOM     12  N   UNL     1       2.429   2.364  -0.008  0.00  0.00    -0.194 NA
ENDBRANCH   5  11
ENDBRANCH   3   5
BRANCH   1  13
ATOM     13  C   UNL     1       0.625  -2.182   0.995  0.00  0.00    +0.197 C 
BRANCH  13  14
ATOM     14  N   UNL     1       1.333  -2.667   2.182  0.00  0.00    -0.335 N 
ATOM     15  H   UNL     1       1.700  -2.036   2.821  0.00  0.00    +0.147 HD
BRANCH  14  22
ATOM     16  C   UNL     1       2.734  -3.522   4.506  0.00  0.00    +0.046 C 
ATOM     17  C   UNL     1       2.158  -4.502   3.516  0.00  0.00    -0.028 A 
ATOM     18  C   UNL     1       2.298  -5.860   3.727  0.00  0.00    +0.025 A 
ATOM     19  C   UNL     1       1.776  -6.760   2.815  0.00  0.00    +0.041 A 
ATOM     20  C   UNL     1       1.106  -6.303   1.693  0.00  0.00    +0.022 A 
ATOM     21  C   UNL     1       0.958  -4.947   1.481  0.00  0.00    +0.024 A 
ATOM     22  C   UNL     1       1.482  -4.041   2.394  0.00  0.00    +0.031 A 
ATOM     23 CL   UNL     1       1.960  -8.466   3.079  0.00  0.00    -0.084 Cl
ENDBRANCH  14  22
ENDBRANCH  13  14
ENDBRANCH   1  13
TORSDOF 5
