REMARK  Name = ZINC08622530
REMARK  6 active torsions:
REMARK  status: ('A' for Active; 'I' for Inactive)
REMARK    1  A    between atoms: C_1  and  C_2
REMARK    2  A    between atoms: C_2  and  O_3
REMARK    3  A    between atoms: O_3  and  C_4
REMARK    4  A    between atoms: C_4  and  C_6
REMARK    5  A    between atoms: N_9  and  C_12
REMARK    6  A    between atoms: C_17  and  C_18
REMARK                            x       y       z     vdW  Elec       q    Type
REMARK                         _______ _______ _______ _____ _____    ______ ____
ROOT
ATOM      1  C   UNL     1      -7.560  -4.963  -0.358  0.00  0.00    +0.207 C 
ATOM      2  N   UNL     1      -8.153  -3.624  -0.473  0.00  0.00    -0.320 N 
ATOM      3  C   UNL     1      -9.376  -3.434  -1.109  0.00  0.00    +0.040 A 
ATOM      4  C   UNL     1      -9.674  -2.250  -1.764  0.00  0.00    +0.024 A 
ATOM      5  C   UNL     1     -10.907  -2.089  -2.366  0.00  0.00    +0.002 A 
ATOM      6  C   UNL     1     -11.854  -3.100  -2.324  0.00  0.00    +0.001 A 
ATOM      7  C   UNL     1     -11.572  -4.291  -1.683  0.00  0.00    +0.013 A 
ATOM      8  C   UNL     1     -10.335  -4.465  -1.081  0.00  0.00    +0.038 A 
ATOM      9  C   UNL     1      -9.940  -5.722  -0.414  0.00  0.00    +0.145 A 
ATOM     10  N   UNL     1      -8.616  -5.934  -0.057  0.00  0.00    -0.300 N 
ATOM     11  C   UNL     1      -8.557  -7.141   0.567  0.00  0.00    +0.071 A 
ATOM     12  C   UNL     1      -7.520  -7.851   1.163  0.00  0.00    +0.028 A 
ATOM     13  C   UNL     1      -7.835  -9.084   1.710  0.00  0.00    +0.002 A 
ATOM     14  C   UNL     1      -9.119  -9.599   1.671  0.00  0.00    +0.002 A 
ATOM     15  C   UNL     1     -10.161  -8.920   1.090  0.00  0.00    +0.030 A 
ATOM     16  C   UNL     1      -9.875  -7.668   0.532  0.00  0.00    +0.090 A 
ATOM     17  N   UNL     1     -10.658  -6.761  -0.089  0.00  0.00    -0.227 NA
ATOM     18  H   UNL     1      -7.684  -2.861  -0.101  0.00  0.00    +0.148 HD
ENDROOT
BRANCH   1  24
ATOM     19  C   UNL     1      -5.666  -4.774  -1.993  0.00  0.00    +0.036 A 
ATOM     20  C   UNL     1      -5.053  -5.121  -3.190  0.00  0.00    +0.023 A 
ATOM     21  C   UNL     1      -5.666  -6.015  -4.046  0.00  0.00    +0.002 A 
ATOM     22  C   UNL     1      -6.891  -6.564  -3.712  0.00  0.00    +0.000 A 
ATOM     23  C   UNL     1      -7.505  -6.220  -2.521  0.00  0.00    +0.009 A 
ATOM     24  C   UNL     1      -6.893  -5.332  -1.659  0.00  0.00    +0.014 A 
BRANCH  19  28
ATOM     25  C   UNL     1      -3.026  -2.159  -0.133  0.00  0.00    +0.101 C 
ATOM     26  C   UNL     1      -3.829  -1.772  -1.377  0.00  0.00    +0.033 C 
ATOM     27  C   UNL     1      -5.214  -2.422  -1.310  0.00  0.00    +0.106 C 
ATOM     28  N   UNL     1      -5.048  -3.871  -1.126  0.00  0.00    -0.330 N 
ATOM     29  C   UNL     1      -4.219  -4.351  -0.011  0.00  0.00    +0.106 C 
ATOM     30  C   UNL     1      -2.845  -3.678  -0.093  0.00  0.00    +0.033 C 
BRANCH  25  31
ATOM     31  C   UNL     1      -1.675  -1.494  -0.179  0.00  0.00    +0.310 C 
ATOM     32  O   UNL     1      -0.671  -2.165  -0.181  0.00  0.00    -0.251 OA
BRANCH  31  33
ATOM     33  O   UNL     1      -1.588  -0.155  -0.220  0.00  0.00    -0.465 OA
BRANCH  33  35
ATOM     34  C   UNL     1      -0.376   1.935  -0.304  0.00  0.00    +0.048 C 
ATOM     35  C   UNL     1      -0.275   0.409  -0.262  0.00  0.00    +0.229 C 
ENDBRANCH  33  35
ENDBRANCH  31  33
ENDBRANCH  25  31
ENDBRANCH  19  28
ENDBRANCH   1  24
TORSDOF 5
