REMARK  Name = ZINC36001591
REMARK  10 active torsions:
REMARK  status: ('A' for Active; 'I' for Inactive)
REMARK    1  A    between atoms: C_1  and  C_2
REMARK    2  A    between atoms: C_2  and  N_3
REMARK    3  A    between atoms: N_10  and  C_13
REMARK    4  A    between atoms: C_13  and  C_14
REMARK    5  A    between atoms: C_15  and  C_28
REMARK    6  A    between atoms: C_16  and  C_23
REMARK    7  A    between atoms: N_21  and  C_22
REMARK    8  A    between atoms: C_28  and  O_30
REMARK    9  A    between atoms: O_30  and  C_31
REMARK   10  A    between atoms: C_31  and  C_32
REMARK                            x       y       z     vdW  Elec       q    Type
REMARK                         _______ _______ _______ _____ _____    ______ ____
ROOT
ATOM      1  C   UNL     1      -4.194  -5.973  -3.245  0.00  0.00    +0.010 C 
ATOM      2  C   UNL     1      -5.465  -6.386  -3.051  0.00  0.00    +0.076 C 
ATOM      3  C   UNL     1      -5.732  -7.878  -3.059  0.00  0.00    +0.144 C 
ATOM      4  N   UNL     1      -4.575  -8.761  -3.280  0.00  0.00    -0.288 N 
ATOM      5  C   UNL     1      -3.363  -8.198  -3.459  0.00  0.00    +0.307 C 
ATOM      6  O   UNL     1      -2.401  -8.919  -3.642  0.00  0.00    -0.252 OA
ATOM      7  N   UNL     1      -3.185  -6.871  -3.447  0.00  0.00    -0.264 N 
ATOM      8  C   UNL     1      -1.831  -6.353  -3.657  0.00  0.00    +0.139 C 
ATOM      9  H   UNL     1      -4.682  -9.725  -3.296  0.00  0.00    +0.151 HD
ENDROOT
BRANCH   3  10
ATOM     10  C   UNL     1      -6.745  -8.162  -4.138  0.00  0.00    -0.015 A 
ATOM     11  C   UNL     1      -8.078  -8.340  -3.819  0.00  0.00    +0.013 A 
ATOM     12  C   UNL     1      -8.964  -8.595  -4.813  0.00  0.00    +0.045 A 
ATOM     13  S   UNL     1      -7.912  -8.588  -6.255  0.00  0.00    -0.105 S 
ATOM     14  C   UNL     1      -6.364  -8.242  -5.436  0.00  0.00    +0.051 A 
ENDBRANCH   3  10
BRANCH   2  15
ATOM     15  C   UNL     1      -6.512  -5.457  -2.846  0.00  0.00    +0.339 C 
ATOM     16  O   UNL     1      -6.284  -4.263  -2.890  0.00  0.00    -0.245 OA
BRANCH  15  17
ATOM     17  O   UNL     1      -7.765  -5.895  -2.601  0.00  0.00    -0.462 OA
BRANCH  17  18
ATOM     18  C   UNL     1      -8.773  -4.902  -2.404  0.00  0.00    +0.229 C 
ATOM     19  C   UNL     1     -10.117  -5.584  -2.141  0.00  0.00    +0.048 C 
ENDBRANCH  17  18
ENDBRANCH  15  17
ENDBRANCH   2  15
BRANCH   1  20
ATOM     20  C   UNL     1      -3.885  -4.498  -3.244  0.00  0.00    -0.026 C 
BRANCH  20  28
ATOM     21  N   UNL     1      -0.035  -3.795   0.476  0.00  0.00    -0.300 N 
ATOM     22  C   UNL     1      -0.900  -2.766   0.572  0.00  0.00    +0.302 C 
ATOM     23  O   UNL     1      -0.487  -1.641   0.780  0.00  0.00    -0.253 OA
ATOM     24  N   UNL     1      -2.224  -2.983   0.435  0.00  0.00    -0.287 N 
ATOM     25  C   UNL     1      -3.140  -1.824   0.444  0.00  0.00    +0.107 C 
ATOM     26  C   UNL     1      -4.237  -1.978  -0.625  0.00  0.00    +0.000 C 
ATOM     27  C   UNL     1      -3.635  -2.566  -1.883  0.00  0.00    -0.077 C 
ATOM     28  N   UNL     1      -3.791  -4.019  -1.858  0.00  0.00    +0.384 N 
ATOM     29  C   UNL     1      -2.747  -4.719  -1.214  0.00  0.00    -0.059 C 
ATOM     30  C   UNL     1      -2.696  -4.343   0.280  0.00  0.00    +0.091 C 
ATOM     31  H   UNL     1      -0.368  -4.701   0.383  0.00  0.00    +0.150 HD
ATOM     32  H   UNL     1      -4.657  -4.239  -1.390  0.00  0.00    -0.081 HD
BRANCH  21  34
ATOM     33  C   UNL     1       2.159  -4.871   0.388  0.00  0.00    +0.024 C 
ATOM     34  C   UNL     1       1.408  -3.544   0.514  0.00  0.00    +0.102 C 
ENDBRANCH  21  34
ENDBRANCH  20  28
ENDBRANCH   1  20
TORSDOF 7
