REMARK  Name = ZINC16576093
REMARK  8 active torsions:
REMARK  status: ('A' for Active; 'I' for Inactive)
REMARK    1  A    between atoms: C_1  and  C_2
REMARK    2  A    between atoms: C_2  and  C_4
REMARK    3  A    between atoms: C_2  and  N_14
REMARK    4  A    between atoms: N_14  and  C_15
REMARK    5  A    between atoms: C_15  and  N_17
REMARK    6  A    between atoms: C_18  and  C_20
REMARK    7  A    between atoms: C_22  and  N_32
REMARK    8  A    between atoms: C_25  and  N_26
REMARK                            x       y       z     vdW  Elec       q    Type
REMARK                         _______ _______ _______ _____ _____    ______ ____
ROOT
ATOM      1  N   UNL     1       2.383   5.303   0.006  0.00  0.00    -0.264 N 
ATOM      2  C   UNL     1       2.413   3.956  -0.001  0.00  0.00    +0.251 C 
ATOM      3  O   UNL     1       3.480   3.372  -0.014  0.00  0.00    -0.270 OA
ATOM      4  H   UNL     1       1.532   5.769   0.017  0.00  0.00    +0.157 HD
ENDROOT
BRANCH   2   5
ATOM      5  C   UNL     1       1.155   3.190   0.008  0.00  0.00    +0.060 A 
ATOM      6  C   UNL     1      -0.074   3.856   0.022  0.00  0.00    +0.047 A 
ATOM      7  C   UNL     1      -1.247   3.134   0.030  0.00  0.00    +0.127 A 
ATOM      8  C   UNL     1      -1.217   1.749   0.017  0.00  0.00    +0.034 A 
ATOM      9  C   UNL     1      -0.013   1.076   0.008  0.00  0.00    +0.026 A 
ATOM     10  C   UNL     1       1.182   1.786   0.000  0.00  0.00    +0.042 A 
BRANCH  10  11
ATOM     11  N   UNL     1       2.395   1.111  -0.015  0.00  0.00    -0.325 N 
ATOM     12  C   UNL     1       2.548   0.329  -1.250  0.00  0.00    +0.133 C 
ATOM     13  C   UNL     1       3.920  -0.349  -1.252  0.00  0.00    +0.178 C 
ATOM     14  O   UNL     1       4.049  -1.158  -0.080  0.00  0.00    -0.377 OA
ATOM     15  C   UNL     1       3.906  -0.428   1.141  0.00  0.00    +0.178 C 
ATOM     16  C   UNL     1       2.533   0.249   1.168  0.00  0.00    +0.133 C 
ENDBRANCH  10  11
BRANCH   7  17
ATOM     17  N   UNL     1      -2.547   3.842   0.046  0.00  0.00    +0.056 N 
ATOM     18  O   UNL     1      -2.577   5.060   0.052  0.00  0.00    -0.126 OA
ATOM     19  O   UNL     1      -3.586   3.207   0.052  0.00  0.00    -0.126 OA
ENDBRANCH   7  17
ENDBRANCH   2   5
BRANCH   1  20
ATOM     20  C   UNL     1       3.534   6.003  -0.001  0.00  0.00    +0.137 C 
ATOM     21  S   UNL     1       5.036   5.182  -0.020  0.00  0.00    -0.018 S 
BRANCH  20  22
ATOM     22  N   UNL     1       3.503   7.351   0.006  0.00  0.00    -0.323 N 
ATOM     23  H   UNL     1       2.652   7.816   0.016  0.00  0.00    +0.148 HD
BRANCH  22  25
ATOM     24  C   UNL     1       5.270   8.263   1.430  0.00  0.00    +0.028 C 
ATOM     25  C   UNL     1       4.755   8.112  -0.003  0.00  0.00    +0.075 C 
BRANCH  25  26
ATOM     26  C   UNL     1       4.505   9.497  -0.603  0.00  0.00    -0.010 C 
ATOM     27  C   UNL     1       3.463  10.238   0.238  0.00  0.00    +0.012 C 
ATOM     28  C   UNL     1       3.214  11.623  -0.362  0.00  0.00    -0.010 C 
ATOM     29  C   UNL     1       4.521  12.418  -0.370  0.00  0.00    +0.007 C 
ATOM     30  C   UNL     1       5.563  11.678  -1.212  0.00  0.00    -0.010 C 
ATOM     31  C   UNL     1       5.812  10.293  -0.612  0.00  0.00    +0.012 C 
ATOM     32  C   UNL     1       5.048  11.527  -2.645  0.00  0.00    +0.007 C 
ATOM     33  C   UNL     1       3.740  10.732  -2.636  0.00  0.00    -0.010 C 
ATOM     34  C   UNL     1       2.699  11.472  -1.795  0.00  0.00    +0.007 C 
ATOM     35  C   UNL     1       3.990   9.347  -2.036  0.00  0.00    +0.012 C 
ENDBRANCH  25  26
ENDBRANCH  22  25
ENDBRANCH  20  22
ENDBRANCH   1  20
TORSDOF 7
