REMARK  Name = ZINC67177462
REMARK  3 active torsions:
REMARK  status: ('A' for Active; 'I' for Inactive)
REMARK    1  A    between atoms: C_6  and  C_7
REMARK    2  A    between atoms: C_14  and  C_16
REMARK    3  A    between atoms: C_21  and  O_22
REMARK                            x       y       z     vdW  Elec       q    Type
REMARK                         _______ _______ _______ _____ _____    ______ ____
ROOT
ATOM      1  C   UNL     1      -0.836  -1.125  -0.465  0.00  0.00    +0.166 C 
ATOM      2  C   UNL     1      -1.453  -1.533  -1.808  0.00  0.00    +0.144 C 
ATOM      3  N   UNL     1      -2.687  -2.289  -1.541  0.00  0.00    -0.292 N 
ATOM      4  C   UNL     1      -2.620  -3.407  -0.587  0.00  0.00    +0.136 C 
ATOM      5  C   UNL     1      -1.946  -2.908   0.696  0.00  0.00    +0.179 C 
ATOM      6  O   UNL     1      -0.704  -2.283   0.364  0.00  0.00    -0.369 OA
ATOM      7  C   UNL     1      -3.844  -1.966  -2.153  0.00  0.00    +0.250 C 
ATOM      8  O   UNL     1      -4.835  -2.647  -1.976  0.00  0.00    -0.270 OA
ENDROOT
BRANCH   1  14
ATOM      9  C   UNL     1       0.675   0.857  -0.697  0.00  0.00    +0.009 A 
ATOM     10  C   UNL     1       1.921   1.417  -0.911  0.00  0.00    +0.041 A 
ATOM     11  C   UNL     1       3.017   0.602  -1.129  0.00  0.00    +0.158 A 
ATOM     12  C   UNL     1       2.865  -0.777  -1.132  0.00  0.00    +0.159 A 
ATOM     13  C   UNL     1       1.617  -1.334  -0.917  0.00  0.00    +0.047 A 
ATOM     14  C   UNL     1       0.523  -0.517  -0.700  0.00  0.00    -0.015 A 
ATOM     15  F   UNL     1       3.935  -1.575  -1.345  0.00  0.00    -0.202 F 
ATOM     16  F   UNL     1       4.235   1.148  -1.340  0.00  0.00    -0.202 F 
ENDBRANCH   1  14
BRANCH   7  17
ATOM     17  C   UNL     1      -3.907  -0.787  -3.036  0.00  0.00    +0.078 A 
ATOM     18  C   UNL     1      -2.983  -0.636  -4.074  0.00  0.00    +0.018 A 
ATOM     19  C   UNL     1      -3.048   0.467  -4.896  0.00  0.00    +0.016 A 
ATOM     20  C   UNL     1      -4.026   1.430  -4.699  0.00  0.00    +0.021 A 
ATOM     21  C   UNL     1      -4.945   1.293  -3.677  0.00  0.00    +0.061 A 
ATOM     22  C   UNL     1      -4.898   0.186  -2.844  0.00  0.00    +0.130 A 
ATOM     23 BR   UNL     1      -4.102   2.939  -5.836  0.00  0.00    -0.050 Br
BRANCH  22  24
ATOM     24  O   UNL     1      -5.803   0.047  -1.843  0.00  0.00    -0.506 OA
ATOM     25  H   UNL     1      -5.529   0.446  -1.006  0.00  0.00    +0.292 HD
ENDBRANCH  22  24
ENDBRANCH   7  17
TORSDOF 3
