REMARK  Name = ZINC20279702
REMARK  10 active torsions:
REMARK  status: ('A' for Active; 'I' for Inactive)
REMARK    1  A    between atoms: C_1  and  C_2
REMARK    2  A    between atoms: C_5  and  C_36
REMARK    3  A    between atoms: N_8  and  C_10
REMARK    4  A    between atoms: C_10  and  C_11
REMARK    5  A    between atoms: C_11  and  C_12
REMARK    6  A    between atoms: C_12  and  N_13
REMARK    7  A    between atoms: C_14  and  C_16
REMARK    8  A    between atoms: C_16  and  N_17
REMARK    9  A    between atoms: C_20  and  S_28
REMARK   10  A    between atoms: S_28  and  N_31
REMARK                            x       y       z     vdW  Elec       q    Type
REMARK                         _______ _______ _______ _____ _____    ______ ____
ROOT
ATOM      1  N   UNL     1       2.363   3.885   0.002  0.00  0.00    -0.256 N 
ATOM      2  C   UNL     1       1.152   3.179   0.009  0.00  0.00    +0.081 A 
ATOM      3  C   UNL     1      -0.059   3.851   0.024  0.00  0.00    +0.055 A 
ATOM      4  C   UNL     1      -1.242   3.135   0.031  0.00  0.00    +0.107 A 
ATOM      5  C   UNL     1      -1.219   1.752   0.017  0.00  0.00    +0.032 A 
ATOM      6  C   UNL     1      -0.013   1.076   0.008  0.00  0.00    +0.049 A 
ATOM      7  C   UNL     1       1.176   1.785   0.000  0.00  0.00    +0.143 A 
ATOM      8  O   UNL     1       2.371   1.137  -0.017  0.00  0.00    -0.481 OA
ATOM      9  C   UNL     1       3.440   1.778  -0.717  0.00  0.00    +0.325 C 
ATOM     10  C   UNL     1       3.499   3.233  -0.328  0.00  0.00    +0.258 C 
ATOM     11  O   UNL     1       4.563   3.817  -0.310  0.00  0.00    -0.271 OA
ENDROOT
BRANCH   4  12
ATOM     12  S   UNL     1      -2.784   3.987   0.049  0.00  0.00    +0.061 S 
ATOM     13  O   UNL     1      -3.737   3.091   0.605  0.00  0.00    -0.153 OA
ATOM     14  O   UNL     1      -2.533   5.271   0.604  0.00  0.00    -0.153 OA
BRANCH  12  15
ATOM     15  N   UNL     1      -3.228   4.231  -1.528  0.00  0.00    -0.177 NA
ATOM     16  C   UNL     1      -2.884   5.406  -2.342  0.00  0.00    +0.109 C 
ATOM     17  C   UNL     1      -3.530   5.207  -3.729  0.00  0.00    +0.018 C 
ATOM     18  C   UNL     1      -4.677   4.205  -3.436  0.00  0.00    +0.018 C 
ATOM     19  C   UNL     1      -4.037   3.310  -2.345  0.00  0.00    +0.109 C 
ENDBRANCH  12  15
ENDBRANCH   4  12
BRANCH   1  20
ATOM     20  C   UNL     1       2.396   5.309   0.347  0.00  0.00    +0.209 C 
BRANCH  20  22
ATOM     21  N   UNL     1       2.675   6.691   2.379  0.00  0.00    -0.314 N 
ATOM     22  C   UNL     1       2.610   5.462   1.831  0.00  0.00    +0.231 C 
ATOM     23  O   UNL     1       2.724   4.478   2.531  0.00  0.00    -0.274 OA
ATOM     24  H   UNL     1       2.571   7.583   1.744  0.00  0.00    +0.149 HD
BRANCH  21  25
ATOM     25  C   UNL     1       2.883   6.839   3.822  0.00  0.00    +0.102 C 
BRANCH  25  26
ATOM     26  C   UNL     1       2.917   8.326   4.182  0.00  0.00    +0.000 C 
BRANCH  26  27
ATOM     27  C   UNL     1       3.135   8.481   5.688  0.00  0.00    -0.077 C 
BRANCH  27  33
ATOM     28  C   UNL     1       2.993  12.640   5.051  0.00  0.00    +0.005 C 
ATOM     29  C   UNL     1       4.260  12.074   5.695  0.00  0.00    -0.031 C 
ATOM     30  C   UNL     1       4.223  12.328   7.205  0.00  0.00    +0.003 C 
ATOM     31  C   UNL     1       3.025  11.591   7.809  0.00  0.00    -0.031 C 
ATOM     32  C   UNL     1       3.136  10.098   7.490  0.00  0.00    -0.076 C 
ATOM     33  N   UNL     1       3.167   9.908   6.034  0.00  0.00    +0.380 N 
ATOM     34  C   UNL     1       4.336  10.568   5.437  0.00  0.00    -0.076 C 
ATOM     35  C   UNL     1       3.015  11.789   9.326  0.00  0.00    +0.005 C 
ATOM     36  H   UNL     1       2.266  10.380   5.615  0.00  0.00    -0.082 HD
ENDBRANCH  27  33
ENDBRANCH  26  27
ENDBRANCH  25  26
ENDBRANCH  21  25
ENDBRANCH  20  22
ENDBRANCH   1  20
TORSDOF 8
