REMARK  Name = ZINC09444088
REMARK  9 active torsions:
REMARK  status: ('A' for Active; 'I' for Inactive)
REMARK    1  A    between atoms: C_1  and  C_2
REMARK    2  A    between atoms: C_2  and  O_3
REMARK    3  A    between atoms: O_3  and  C_4
REMARK    4  A    between atoms: C_4  and  C_6
REMARK    5  A    between atoms: C_10  and  N_11
REMARK    6  A    between atoms: C_12  and  C_14
REMARK    7  A    between atoms: C_14  and  C_16
REMARK    8  A    between atoms: C_14  and  S_17
REMARK    9  A    between atoms: S_17  and  C_18
REMARK                            x       y       z     vdW  Elec       q    Type
REMARK                         _______ _______ _______ _____ _____    ______ ____
ROOT
ATOM      1  C   UNL     1      -2.525   1.185   0.114  0.00  0.00    +0.091 A 
ATOM      2  C   UNL     1      -3.631   2.131   0.170  0.00  0.00    -0.021 A 
ATOM      3  C   UNL     1      -3.267   3.432   0.181  0.00  0.00    -0.004 A 
ATOM      4  S   UNL     1      -1.496   3.410   0.136  0.00  0.00    -0.077 S 
ATOM      5  C   UNL     1      -1.237   1.698   0.097  0.00  0.00    +0.086 A 
ATOM      6  C   UNL     1      -4.162   4.632   0.209  0.00  0.00    +0.043 C 
ATOM      7  C   UNL     1      -5.214   4.454   1.312  0.00  0.00    +0.005 C 
ATOM      8  C   UNL     1      -6.426   3.747   0.712  0.00  0.00    +0.001 C 
ATOM      9  C   UNL     1      -5.981   2.773  -0.377  0.00  0.00    +0.005 C 
ATOM     10  C   UNL     1      -5.088   1.687   0.213  0.00  0.00    +0.037 C 
ENDROOT
BRANCH   5  11
ATOM     11  N   UNL     1      -0.035   1.010   0.053  0.00  0.00    -0.278 N 
ATOM     12  C   UNL     1       1.130   1.688   0.031  0.00  0.00    +0.231 C 
ATOM     13  O   UNL     1       1.126   2.900   0.055  0.00  0.00    -0.274 OA
ATOM     14  H   UNL     1      -0.032   0.040   0.035  0.00  0.00    +0.155 HD
BRANCH  12  15
ATOM     15  C   UNL     1       2.437   0.939  -0.022  0.00  0.00    +0.134 C 
ATOM     16  C   UNL     1       2.773   0.604  -1.477  0.00  0.00    +0.029 C 
BRANCH  15  17
ATOM     17  S   UNL     1       3.753   1.969   0.681  0.00  0.00    -0.113 S 
BRANCH  17  18
ATOM     18  C   UNL     1       3.360   2.052   2.396  0.00  0.00    +0.009 A 
ATOM     19  C   UNL     1       2.309   1.300   2.906  0.00  0.00    +0.016 A 
ATOM     20  C   UNL     1       2.006   1.362   4.252  0.00  0.00    +0.021 A 
ATOM     21  C   UNL     1       2.741   2.182   5.091  0.00  0.00    +0.041 A 
ATOM     22  C   UNL     1       3.785   2.936   4.585  0.00  0.00    +0.021 A 
ATOM     23  C   UNL     1       4.096   2.873   3.241  0.00  0.00    +0.016 A 
ATOM     24 CL   UNL     1       2.354   2.263   6.781  0.00  0.00    -0.084 Cl
ENDBRANCH  17  18
ENDBRANCH  15  17
ENDBRANCH  12  15
ENDBRANCH   5  11
BRANCH   1  25
ATOM     25  C   UNL     1      -2.765  -0.260   0.082  0.00  0.00    +0.342 C 
ATOM     26  O   UNL     1      -2.840  -0.887   1.121  0.00  0.00    -0.245 OA
BRANCH  25  27
ATOM     27  O   UNL     1      -2.903  -0.894  -1.101  0.00  0.00    -0.461 OA
BRANCH  27  29
ATOM     28  C   UNL     1      -3.268  -2.865  -2.483  0.00  0.00    +0.048 C 
ATOM     29  C   UNL     1      -3.139  -2.326  -1.057  0.00  0.00    +0.229 C 
ENDBRANCH  27  29
ENDBRANCH  25  27
ENDBRANCH   1  25
TORSDOF 7
