REMARK  Name = ZINC21245962
REMARK  9 active torsions:
REMARK  status: ('A' for Active; 'I' for Inactive)
REMARK    1  A    between atoms: C_1  and  C_2
REMARK    2  A    between atoms: C_2  and  C_3
REMARK    3  A    between atoms: C_3  and  O_4
REMARK    4  A    between atoms: O_4  and  C_5
REMARK    5  A    between atoms: C_8  and  C_11
REMARK    6  A    between atoms: C_16  and  C_26
REMARK    7  A    between atoms: C_30  and  O_32
REMARK    8  A    between atoms: O_32  and  C_33
REMARK    9  A    between atoms: C_33  and  C_34
REMARK                            x       y       z     vdW  Elec       q    Type
REMARK                         _______ _______ _______ _____ _____    ______ ____
ROOT
ATOM      1  C   UNL     1      -4.214   0.162  -3.845  0.00  0.00    +0.032 C 
ATOM      2  C   UNL     1      -4.563   1.537  -3.281  0.00  0.00    +0.059 C 
ATOM      3  C   UNL     1      -4.147   1.618  -1.821  0.00  0.00    +0.017 C 
ATOM      4  C   UNL     1      -3.060   0.959  -1.388  0.00  0.00    +0.036 C 
ATOM      5  C   UNL     1      -2.512   0.980   0.019  0.00  0.00    +0.136 C 
ATOM      6  N   UNL     1      -3.399   1.573   0.998  0.00  0.00    -0.331 N 
ATOM      7  C   UNL     1      -3.744   2.922   0.932  0.00  0.00    +0.049 A 
ATOM      8  C   UNL     1      -3.361   3.816   1.918  0.00  0.00    +0.025 A 
ATOM      9  C   UNL     1      -3.688   5.155   1.788  0.00  0.00    +0.002 A 
ATOM     10  C   UNL     1      -4.390   5.599   0.682  0.00  0.00    +0.002 A 
ATOM     11  C   UNL     1      -4.790   4.705  -0.297  0.00  0.00    +0.025 A 
ATOM     12  C   UNL     1      -4.480   3.364  -0.157  0.00  0.00    +0.052 A 
ATOM     13  N   UNL     1      -4.942   2.400  -1.047  0.00  0.00    -0.316 N 
ATOM     14  C   UNL     1      -2.315   0.149  -2.278  0.00  0.00    +0.163 C 
ATOM     15  O   UNL     1      -1.328  -0.425  -1.861  0.00  0.00    -0.292 OA
ATOM     16  C   UNL     1      -2.698  -0.025  -3.717  0.00  0.00    +0.088 C 
ATOM     17  H   UNL     1      -3.813   0.958   1.810  0.00  0.00    +0.147 HD
ATOM     18  H   UNL     1      -6.035   2.294  -1.099  0.00  0.00    +0.152 HD
ENDROOT
BRANCH   1  22
ATOM     19  C   UNL     1      -5.354  -0.048  -7.959  0.00  0.00    +0.121 A 
ATOM     20  C   UNL     1      -5.903  -0.930  -7.040  0.00  0.00    +0.046 A 
ATOM     21  C   UNL     1      -5.533  -0.860  -5.711  0.00  0.00    +0.007 A 
ATOM     22  C   UNL     1      -4.616   0.088  -5.296  0.00  0.00    -0.043 A 
ATOM     23  C   UNL     1      -4.072   0.972  -6.209  0.00  0.00    +0.007 A 
ATOM     24  C   UNL     1      -4.434   0.903  -7.540  0.00  0.00    +0.046 A 
BRANCH  19  25
ATOM     25  O   UNL     1      -5.716  -0.114  -9.267  0.00  0.00    -0.492 OA
BRANCH  25  26
ATOM     26  C   UNL     1      -5.111   0.826 -10.156  0.00  0.00    +0.229 C 
BRANCH  26  28
ATOM     27  C   UNL     1      -4.989   1.605 -12.527  0.00  0.00    +0.007 C 
ATOM     28  C   UNL     1      -5.638   0.599 -11.575  0.00  0.00    +0.038 C 
ENDBRANCH  26  28
ENDBRANCH  25  26
ENDBRANCH  19  25
ENDBRANCH   1  22
BRANCH   5  29
ATOM     29  C   UNL     1      -1.218   1.751   0.017  0.00  0.00    -0.019 A 
ATOM     30  C   UNL     1      -0.028   1.104   0.297  0.00  0.00    +0.006 A 
ATOM     31  C   UNL     1       1.161   1.810   0.302  0.00  0.00    +0.004 A 
ATOM     32  C   UNL     1       1.163   3.163   0.021  0.00  0.00    +0.045 A 
ATOM     33  C   UNL     1      -0.028   3.813  -0.265  0.00  0.00    +0.121 A 
ATOM     34  C   UNL     1      -1.220   3.102  -0.269  0.00  0.00    +0.051 A 
BRANCH  33  35
ATOM     35  O   UNL     1      -0.028   5.143  -0.540  0.00  0.00    -0.487 OA
BRANCH  35  36
ATOM     36  C   UNL     1       1.235   5.811  -0.518  0.00  0.00    +0.264 C 
BRANCH  36  37
ATOM     37  C   UNL     1       1.039   7.269  -0.845  0.00  0.00    -0.010 A 
ATOM     38  C   UNL     1       1.102   7.697  -2.158  0.00  0.00    +0.007 A 
ATOM     39  C   UNL     1       0.918   9.034  -2.458  0.00  0.00    +0.000 A 
ATOM     40  C   UNL     1       0.680   9.943  -1.445  0.00  0.00    +0.000 A 
ATOM     41  C   UNL     1       0.622   9.516  -0.132  0.00  0.00    +0.000 A 
ATOM     42  C   UNL     1       0.802   8.178   0.168  0.00  0.00    +0.007 A 
ENDBRANCH  36  37
ENDBRANCH  35  36
ENDBRANCH  33  35
ENDBRANCH   5  29
TORSDOF 8
