REMARK  Name = ZINC13983803
REMARK  13 active torsions:
REMARK  status: ('A' for Active; 'I' for Inactive)
REMARK    1  A    between atoms: C_1  and  C_2
REMARK    2  A    between atoms: C_2  and  C_3
REMARK    3  A    between atoms: C_2  and  C_4
REMARK    4  A    between atoms: N_6  and  C_7
REMARK    5  A    between atoms: C_7  and  N_9
REMARK    6  A    between atoms: N_9  and  N_10
REMARK    7  A    between atoms: C_11  and  C_13
REMARK    8  A    between atoms: C_13  and  O_14
REMARK    9  A    between atoms: O_14  and  C_15
REMARK   10  A    between atoms: C_18  and  C_22
REMARK   11  A    between atoms: C_22  and  C_23
REMARK   12  A    between atoms: C_22  and  C_24
REMARK   13  A    between atoms: C_22  and  C_25
REMARK                            x       y       z     vdW  Elec       q    Type
REMARK                         _______ _______ _______ _____ _____    ______ ____
ROOT
ATOM      1  N   UNL     1       3.910  -2.192  -0.049  0.00  0.00    -0.232 N 
ATOM      2  C   UNL     1       3.714  -0.859  -0.040  0.00  0.00    +0.267 C 
ATOM      3  O   UNL     1       4.664  -0.105  -0.044  0.00  0.00    -0.271 OA
ATOM      4  H   UNL     1       3.150  -2.794  -0.045  0.00  0.00    +0.173 HD
ENDROOT
BRANCH   1   5
ATOM      5  N   UNL     1       5.213  -2.708  -0.065  0.00  0.00    -0.245 N 
ATOM      6  H   UNL     1       5.973  -2.106  -0.069  0.00  0.00    +0.172 HD
BRANCH   5   7
ATOM      7  C   UNL     1       5.409  -4.041  -0.074  0.00  0.00    +0.153 C 
ATOM      8  S   UNL     1       7.001  -4.672  -0.093  0.00  0.00    -0.017 S 
BRANCH   7  11
ATOM      9  C   UNL     1       4.549  -6.212  -0.078  0.00  0.00    +0.221 C 
ATOM     10  O   UNL     1       5.676  -6.658  -0.092  0.00  0.00    -0.275 OA
ATOM     11  N   UNL     1       4.353  -4.878  -0.069  0.00  0.00    -0.266 N 
ATOM     12  H   UNL     1       3.451  -4.521  -0.058  0.00  0.00    +0.157 HD
BRANCH   9  14
ATOM     13  C   UNL     1       2.508  -6.892  -1.312  0.00  0.00    +0.017 C 
ATOM     14  C   UNL     1       3.368  -7.147  -0.072  0.00  0.00    +0.069 C 
ATOM     15  C   UNL     1       3.864  -8.595  -0.085  0.00  0.00    +0.017 C 
ENDBRANCH   9  14
ENDBRANCH   7  11
ENDBRANCH   5   7
ENDBRANCH   1   5
BRANCH   2  16
ATOM     16  C   UNL     1       2.313  -0.304  -0.023  0.00  0.00    +0.326 C 
BRANCH  16  17
ATOM     17  O   UNL     1       2.366   1.124  -0.015  0.00  0.00    -0.482 OA
BRANCH  17  18
ATOM     18  C   UNL     1       1.179   1.786   0.000  0.00  0.00    +0.135 A 
ATOM     19  C   UNL     1      -0.013   1.076   0.008  0.00  0.00    +0.047 A 
ATOM     20  C   UNL     1      -1.218   1.751   0.017  0.00  0.00    +0.008 A 
ATOM     21  C   UNL     1      -1.238   3.133   0.030  0.00  0.00    -0.041 A 
ATOM     22  C   UNL     1      -0.052   3.844   0.023  0.00  0.00    +0.023 A 
ATOM     23  C   UNL     1       1.157   3.174   0.008  0.00  0.00    +0.060 A 
ATOM     24 BR   UNL     1       2.778   4.147  -0.003  0.00  0.00    -0.047 Br
BRANCH  21  25
ATOM     25  C   UNL     1      -2.554   3.866   0.046  0.00  0.00    -0.013 C 
ATOM     26  C   UNL     1      -2.660   4.752  -1.197  0.00  0.00    +0.015 C 
ATOM     27  C   UNL     1      -3.702   2.854   0.051  0.00  0.00    +0.015 C 
ATOM     28  C   UNL     1      -2.638   4.738   1.301  0.00  0.00    +0.015 C 
ENDBRANCH  21  25
ENDBRANCH  17  18
ENDBRANCH  16  17
ENDBRANCH   2  16
TORSDOF 8
