REMARK  Name = ZINC48555115
REMARK  12 active torsions:
REMARK  status: ('A' for Active; 'I' for Inactive)
REMARK    1  A    between atoms: C_1  and  N_2
REMARK    2  A    between atoms: N_11  and  C_26
REMARK    3  A    between atoms: N_14  and  N_15
REMARK    4  A    between atoms: C_16  and  C_17
REMARK    5  A    between atoms: C_20  and  N_23
REMARK    6  A    between atoms: N_23  and  C_24
REMARK    7  A    between atoms: N_23  and  C_25
REMARK    8  A    between atoms: C_26  and  C_27
REMARK    9  A    between atoms: C_27  and  C_29
REMARK   10  A    between atoms: C_27  and  O_38
REMARK   11  A    between atoms: C_29  and  O_30
REMARK   12  A    between atoms: O_30  and  C_31
REMARK                            x       y       z     vdW  Elec       q    Type
REMARK                         _______ _______ _______ _____ _____    ______ ____
ROOT
ATOM      1  C   UNL     1       0.010   1.061   0.821  0.00  0.00    +0.155 C 
ATOM      2  N   UNL     1      -0.001  -0.250   0.168  0.00  0.00    -0.280 N 
ATOM      3  C   UNL     1      -1.205  -0.833  -0.194  0.00  0.00    +0.170 A 
ATOM      4  C   UNL     1      -1.187  -2.079  -0.814  0.00  0.00    +0.153 A 
ATOM      5  C   UNL     1       0.048  -2.708  -1.054  0.00  0.00    +0.280 A 
ATOM      6  O   UNL     1       0.088  -3.799  -1.595  0.00  0.00    -0.265 OA
ATOM      7  N   UNL     1       1.187  -2.091  -0.678  0.00  0.00    -0.273 N 
ATOM      8  H   UNL     1       2.041  -2.522  -0.843  0.00  0.00    +0.173 HD
ATOM      9  C   UNL     1       1.159  -0.885  -0.086  0.00  0.00    +0.331 A 
ATOM     10  O   UNL     1       2.206  -0.357   0.235  0.00  0.00    -0.246 OA
ATOM     11  N   UNL     1      -2.511  -2.413  -1.058  0.00  0.00    -0.302 N 
ATOM     12  C   UNL     1      -3.268  -1.384  -0.590  0.00  0.00    +0.218 A 
ATOM     13  N   UNL     1      -2.479  -0.458  -0.082  0.00  0.00    -0.195 NA
ATOM     14  N   UNL     1      -4.641  -1.320  -0.639  0.00  0.00    -0.206 N 
ATOM     15  H   UNL     1      -5.147  -2.049  -1.032  0.00  0.00    +0.177 HD
ENDROOT
BRANCH  14  16
ATOM     16  N   UNL     1      -5.310  -0.203  -0.122  0.00  0.00    -0.188 NA
ATOM     17  C   UNL     1      -6.606  -0.194  -0.058  0.00  0.00    +0.138 C 
BRANCH  17  18
ATOM     18  C   UNL     1      -7.353  -1.465  -0.064  0.00  0.00    -0.005 A 
ATOM     19  C   UNL     1      -8.734  -1.465  -0.283  0.00  0.00    +0.011 A 
ATOM     20  C   UNL     1      -9.428  -2.655  -0.288  0.00  0.00    +0.024 A 
ATOM     21  C   UNL     1      -8.758  -3.854  -0.074  0.00  0.00    +0.029 A 
ATOM     22  C   UNL     1      -7.384  -3.858   0.144  0.00  0.00    +0.024 A 
ATOM     23  C   UNL     1      -6.682  -2.673   0.144  0.00  0.00    +0.011 A 
BRANCH  21  24
ATOM     24  N   UNL     1      -9.465  -5.057  -0.079  0.00  0.00    -0.336 N 
ATOM     25  C   UNL     1     -10.926  -5.048  -0.188  0.00  0.00    +0.129 C 
ATOM     26  C   UNL     1      -8.746  -6.330   0.025  0.00  0.00    +0.129 C 
ENDBRANCH  21  24
ENDBRANCH  17  18
ENDBRANCH  14  16
BRANCH  11  27
ATOM     27  C   UNL     1      -3.000  -3.638  -1.698  0.00  0.00    +0.160 C 
BRANCH  27  28
ATOM     28  C   UNL     1      -3.246  -4.707  -0.631  0.00  0.00    +0.172 C 
BRANCH  28  29
ATOM     29  O   UNL     1      -2.004  -5.067  -0.023  0.00  0.00    -0.387 OA
ATOM     30  H   UNL     1      -1.353  -5.426  -0.641  0.00  0.00    +0.210 HD
ENDBRANCH  28  29
BRANCH  28  31
ATOM     31  C   UNL     1      -3.873  -5.941  -1.282  0.00  0.00    +0.262 C 
BRANCH  31  32
ATOM     32  O   UNL     1      -4.209  -6.894  -0.270  0.00  0.00    -0.489 OA
BRANCH  32  33
ATOM     33  C   UNL     1      -4.780  -8.056  -0.683  0.00  0.00    +0.121 A 
ATOM     34  C   UNL     1      -5.006  -8.278  -2.034  0.00  0.00    +0.047 A 
ATOM     35  C   UNL     1      -5.587  -9.460  -2.451  0.00  0.00    +0.023 A 
ATOM     36  C   UNL     1      -5.943 -10.422  -1.523  0.00  0.00    +0.041 A 
ATOM     37  C   UNL     1      -5.718 -10.203  -0.175  0.00  0.00    +0.023 A 
ATOM     38  C   UNL     1      -5.132  -9.025   0.245  0.00  0.00    +0.047 A 
ATOM     39 CL   UNL     1      -6.673 -11.907  -2.050  0.00  0.00    -0.084 Cl
ENDBRANCH  32  33
ENDBRANCH  31  32
ENDBRANCH  28  31
ENDBRANCH  27  28
ENDBRANCH  11  27
TORSDOF 9
