REMARK  Name = ZINC58074157
REMARK  8 active torsions:
REMARK  status: ('A' for Active; 'I' for Inactive)
REMARK    1  A    between atoms: C_1  and  C_2
REMARK    2  A    between atoms: C_2  and  C_3
REMARK    3  A    between atoms: C_2  and  C_4
REMARK    4  A    between atoms: C_4  and  C_6
REMARK    5  A    between atoms: C_4  and  N_12
REMARK    6  A    between atoms: N_12  and  C_13
REMARK    7  A    between atoms: C_13  and  C_14
REMARK    8  A    between atoms: N_16  and  N_17
REMARK                            x       y       z     vdW  Elec       q    Type
REMARK                         _______ _______ _______ _____ _____    ______ ____
ROOT
ATOM      1  C   UNL     1      -1.282  -4.027  -1.334  0.00  0.00    +0.244 C 
ATOM      2  O   UNL     1      -1.357  -4.612  -0.274  0.00  0.00    -0.273 OA
ATOM      3  N   UNL     1      -1.184  -4.724  -2.483  0.00  0.00    -0.223 N 
ATOM      4  H   UNL     1      -1.124  -4.256  -3.330  0.00  0.00    +0.174 HD
ENDROOT
BRANCH   3   5
ATOM      5  N   UNL     1      -1.168  -6.124  -2.453  0.00  0.00    -0.137 N 
ATOM      6  C   UNL     1      -0.061  -6.874  -2.636  0.00  0.00    +0.263 C 
ATOM      7  O   UNL     1       1.065  -6.480  -2.849  0.00  0.00    -0.271 OA
ATOM      8  C   UNL     1      -0.521  -8.309  -2.519  0.00  0.00    +0.114 C 
ATOM      9  C   UNL     1       0.180  -8.999  -1.355  0.00  0.00    +0.035 C 
ATOM     10  C   UNL     1      -0.322 -10.440  -1.235  0.00  0.00    +0.003 C 
ATOM     11  C   UNL     1      -0.038 -11.188  -2.539  0.00  0.00    +0.000 C 
ATOM     12  C   UNL     1      -0.768 -10.498  -3.693  0.00  0.00    +0.003 C 
ATOM     13  C   UNL     1      -0.267  -9.057  -3.823  0.00  0.00    +0.035 C 
ATOM     14  N   UNL     1      -1.963  -8.201  -2.260  0.00  0.00    -0.284 N 
ATOM     15  C   UNL     1      -2.247  -6.885  -2.234  0.00  0.00    +0.326 C 
ATOM     16  O   UNL     1      -3.360  -6.438  -2.038  0.00  0.00    -0.251 OA
ATOM     17  H   UNL     1      -2.586  -8.932  -2.130  0.00  0.00    +0.151 HD
ENDBRANCH   3   5
BRANCH   1  18
ATOM     18  C   UNL     1      -1.300  -2.520  -1.365  0.00  0.00    +0.179 C 
BRANCH  18  19
ATOM     19  N   UNL     1      -1.413  -2.002   0.005  0.00  0.00    -0.301 NA
ATOM     20  H   UNL     1      -0.670  -2.357   0.588  0.00  0.00    +0.123 HD
BRANCH  19  21
ATOM     21  C   UNL     1      -1.433  -0.534   0.013  0.00  0.00    +0.087 C 
BRANCH  21  22
ATOM     22  C   UNL     1      -2.139  -0.048   1.253  0.00  0.00    -0.030 A 
ATOM     23  C   UNL     1      -1.926  -0.682   2.462  0.00  0.00    +0.005 A 
ATOM     24  C   UNL     1      -2.573  -0.236   3.600  0.00  0.00    +0.000 A 
ATOM     25  C   UNL     1      -3.432   0.844   3.527  0.00  0.00    +0.000 A 
ATOM     26  C   UNL     1      -3.644   1.479   2.318  0.00  0.00    +0.000 A 
ATOM     27  C   UNL     1      -2.994   1.036   1.182  0.00  0.00    +0.005 A 
ENDBRANCH  21  22
BRANCH  21  29
ATOM     28  C   UNL     1      -0.019   1.526   0.010  0.00  0.00    +0.009 C 
ATOM     29  C   UNL     1       0.002  -0.004   0.002  0.00  0.00    +0.004 C 
ATOM     30  C   UNL     1       0.742  -0.511   1.242  0.00  0.00    +0.009 C 
ENDBRANCH  21  29
ENDBRANCH  19  21
ENDBRANCH  18  19
ENDBRANCH   1  18
TORSDOF 6
