REMARK  Name = ZINC62254730
REMARK  10 active torsions:
REMARK  status: ('A' for Active; 'I' for Inactive)
REMARK    1  A    between atoms: C_1  and  C_2
REMARK    2  A    between atoms: C_2  and  C_3
REMARK    3  A    between atoms: C_2  and  C_17
REMARK    4  A    between atoms: C_3  and  N_4
REMARK    5  A    between atoms: N_4  and  C_5
REMARK    6  A    between atoms: C_5  and  C_6
REMARK    7  A    between atoms: C_11  and  O_12
REMARK    8  A    between atoms: O_12  and  C_13
REMARK    9  A    between atoms: C_13  and  C_14
REMARK   10  A    between atoms: C_17  and  N_18
REMARK                            x       y       z     vdW  Elec       q    Type
REMARK                         _______ _______ _______ _____ _____    ______ ____
ROOT
ATOM      1  N   UNL     1       2.151  -0.103   1.171  0.00  0.00    +0.382 N 
ATOM      2  H   UNL     1       2.574  -0.495   0.344  0.00  0.00    -0.085 HD
ATOM      3  H   UNL     1       2.209   0.904   1.134  0.00  0.00    -0.085 HD
ENDROOT
BRANCH   1   4
ATOM      4  C   UNL     1       0.742  -0.511   1.242  0.00  0.00    -0.077 C 
BRANCH   4   6
ATOM      5  C   UNL     1      -0.019   1.526   0.010  0.00  0.00    +0.007 C 
ATOM      6  C   UNL     1       0.002  -0.004   0.002  0.00  0.00    -0.011 C 
BRANCH   6   7
ATOM      7  C   UNL     1      -1.433  -0.534   0.013  0.00  0.00    +0.124 C 
BRANCH   7   8
ATOM      8  N   UNL     1      -2.105  -0.148  -1.230  0.00  0.00    -0.338 N 
ATOM      9  C   UNL     1      -2.814   1.002  -1.448  0.00  0.00    +0.104 A 
ATOM     10  C   UNL     1      -3.258   0.953  -2.718  0.00  0.00    +0.101 A 
ATOM     11  N   UNL     1      -2.832  -0.197  -3.262  0.00  0.00    -0.352 N 
ATOM     12  C   UNL     1      -2.136  -0.859  -2.378  0.00  0.00    +0.173 A 
ATOM     13  H   UNL     1      -3.009  -0.488  -4.170  0.00  0.00    +0.166 HD
ENDBRANCH   7   8
ENDBRANCH   6   7
ENDBRANCH   4   6
ENDBRANCH   1   4
BRANCH   1  14
ATOM     14  C   UNL     1       2.862  -0.589   2.362  0.00  0.00    -0.043 C 
BRANCH  14  15
ATOM     15  C   UNL     1       4.308  -0.171   2.290  0.00  0.00    -0.022 A 
ATOM     16  C   UNL     1       5.268  -1.070   1.868  0.00  0.00    +0.020 A 
ATOM     17  C   UNL     1       6.595  -0.686   1.802  0.00  0.00    +0.018 A 
ATOM     18  C   UNL     1       6.964   0.599   2.158  0.00  0.00    +0.019 A 
ATOM     19  C   UNL     1       6.008   1.501   2.579  0.00  0.00    +0.047 A 
ATOM     20  C   UNL     1       4.675   1.120   2.641  0.00  0.00    +0.123 A 
ATOM     21 BR   UNL     1       7.907  -1.920   1.225  0.00  0.00    -0.050 Br
BRANCH  20  22
ATOM     22  O   UNL     1       3.731   2.008   3.051  0.00  0.00    -0.479 OA
BRANCH  22  23
ATOM     23  C   UNL     1       4.181   3.319   3.397  0.00  0.00    +0.317 C 
BRANCH  23  24
ATOM     24  C   UNL     1       3.032   4.138   3.815  0.00  0.00    -0.065 C 
ATOM     25  C   UNL     1       2.115   4.792   4.148  0.00  0.00    +0.007 C 
ENDBRANCH  23  24
ENDBRANCH  22  23
ENDBRANCH  20  22
ENDBRANCH  14  15
ENDBRANCH   1  14
TORSDOF 9
