REMARK  Name = ZINC31021717
REMARK  7 active torsions:
REMARK  status: ('A' for Active; 'I' for Inactive)
REMARK    1  A    between atoms: C_1  and  C_2
REMARK    2  A    between atoms: C_2  and  C_3
REMARK    3  A    between atoms: C_2  and  N_4
REMARK    4  A    between atoms: N_7  and  C_8
REMARK    5  A    between atoms: C_11  and  N_14
REMARK    6  A    between atoms: C_15  and  C_17
REMARK    7  A    between atoms: C_18  and  C_19
REMARK                            x       y       z     vdW  Elec       q    Type
REMARK                         _______ _______ _______ _____ _____    ______ ____
ROOT
ATOM      1  N   UNL     1      -7.271  -0.210   0.021  0.00  0.00    -0.282 N 
ATOM      2  C   UNL     1      -7.192   0.996   0.615  0.00  0.00    +0.241 C 
ATOM      3  O   UNL     1      -8.169   1.468   1.167  0.00  0.00    -0.270 OA
ATOM      4  H   UNL     1      -6.412  -0.603  -0.543  0.00  0.00    +0.155 HD
ENDROOT
BRANCH   1   8
ATOM      5  C   UNL     1     -10.772  -2.455   0.315  0.00  0.00    +0.035 A 
ATOM      6  C   UNL     1     -10.840  -1.070   0.232  0.00  0.00    +0.025 A 
ATOM      7  C   UNL     1      -9.681  -0.327   0.135  0.00  0.00    +0.025 A 
ATOM      8  C   UNL     1      -8.447  -0.964   0.119  0.00  0.00    +0.034 A 
ATOM      9  C   UNL     1      -8.379  -2.349   0.196  0.00  0.00    +0.025 A 
ATOM     10  C   UNL     1      -9.538  -3.092   0.300  0.00  0.00    +0.025 A 
BRANCH   5  14
ATOM     11  N   UNL     1     -13.122  -5.008   1.328  0.00  0.00    -0.297 N 
ATOM     12  C   UNL     1     -11.968  -4.333   1.157  0.00  0.00    +0.304 C 
ATOM     13  O   UNL     1     -10.945  -4.738   1.673  0.00  0.00    -0.253 OA
ATOM     14  N   UNL     1     -11.949  -3.209   0.414  0.00  0.00    -0.269 N 
ATOM     15  H   UNL     1     -14.048  -4.641   0.861  0.00  0.00    +0.151 HD
ATOM     16  H   UNL     1     -12.857  -2.884  -0.116  0.00  0.00    +0.156 HD
BRANCH  11  18
ATOM     17  C   UNL     1     -13.310  -5.862   3.612  0.00  0.00    +0.027 C 
ATOM     18  C   UNL     1     -13.143  -6.229   2.137  0.00  0.00    +0.068 C 
ATOM     19  C   UNL     1     -14.313  -7.112   1.696  0.00  0.00    +0.027 C 
ENDBRANCH  11  18
ENDBRANCH   5  14
ENDBRANCH   1   8
BRANCH   2  20
ATOM     20  C   UNL     1      -5.933   1.739   0.598  0.00  0.00    +0.068 C 
ATOM     21  C   UNL     1      -5.853   2.948   1.194  0.00  0.00    +0.013 C 
BRANCH  21  22
ATOM     22  C   UNL     1      -4.587   3.694   1.177  0.00  0.00    -0.021 A 
ATOM     23  C   UNL     1      -3.462   3.155   0.543  0.00  0.00    +0.012 A 
ATOM     24  C   UNL     1      -2.277   3.855   0.534  0.00  0.00    +0.050 A 
ATOM     25  C   UNL     1      -2.193   5.101   1.144  0.00  0.00    +0.162 A 
ATOM     26  C   UNL     1      -3.310   5.646   1.775  0.00  0.00    +0.163 A 
ATOM     27  C   UNL     1      -4.502   4.947   1.793  0.00  0.00    +0.057 A 
ATOM     28  O   UNL     1      -3.243   6.865   2.377  0.00  0.00    -0.485 OA
ATOM     29  C   UNL     1      -1.935   7.371   2.663  0.00  0.00    +0.270 C 
ATOM     30  C   UNL     1      -1.061   7.174   1.417  0.00  0.00    +0.270 C 
ATOM     31  O   UNL     1      -1.012   5.774   1.121  0.00  0.00    -0.485 OA
ENDBRANCH  21  22
ENDBRANCH   2  20
TORSDOF 5
