REMARK  Name = ZINC16888907
REMARK  8 active torsions:
REMARK  status: ('A' for Active; 'I' for Inactive)
REMARK    1  A    between atoms: C_1  and  C_2
REMARK    2  A    between atoms: C_2  and  C_4
REMARK    3  A    between atoms: C_2  and  N_19
REMARK    4  A    between atoms: C_4  and  C_5
REMARK    5  A    between atoms: N_7  and  C_15
REMARK    6  A    between atoms: C_15  and  C_16
REMARK    7  A    between atoms: C_16  and  C_18
REMARK    8  A    between atoms: C_20  and  C_22
REMARK                            x       y       z     vdW  Elec       q    Type
REMARK                         _______ _______ _______ _____ _____    ______ ____
ROOT
ATOM      1  C   UNL     1      -3.261  -0.119   3.393  0.00  0.00    -0.020 A 
ATOM      2  C   UNL     1      -2.688  -0.297   2.192  0.00  0.00    +0.090 A 
ATOM      3  N   UNL     1      -2.925   0.790   1.396  0.00  0.00    -0.342 N 
ATOM      4  C   UNL     1      -3.672   1.721   2.085  0.00  0.00    +0.050 A 
ATOM      5  C   UNL     1      -3.919   1.190   3.364  0.00  0.00    +0.004 A 
ATOM      6  C   UNL     1      -4.665   1.921   4.290  0.00  0.00    +0.025 A 
ATOM      7  C   UNL     1      -5.158   3.159   3.942  0.00  0.00    +0.019 A 
ATOM      8  C   UNL     1      -4.918   3.680   2.677  0.00  0.00    +0.017 A 
ATOM      9  C   UNL     1      -4.184   2.970   1.752  0.00  0.00    +0.027 A 
ATOM     10 BR   UNL     1      -6.168   4.155   5.193  0.00  0.00    -0.050 Br
ENDROOT
BRANCH   1  11
ATOM     11  C   UNL     1      -3.233  -1.082   4.552  0.00  0.00    +0.059 C 
BRANCH  11  13
ATOM     12  C   UNL     1      -4.410  -3.004   5.629  0.00  0.00    +0.028 C 
ATOM     13  C   UNL     1      -4.497  -1.944   4.529  0.00  0.00    +0.074 C 
BRANCH  13  14
ATOM     14  N   UNL     1      -5.670  -1.097   4.758  0.00  0.00    -0.312 N 
ATOM     15  C   UNL     1      -6.878  -1.482   4.303  0.00  0.00    +0.216 C 
ATOM     16  O   UNL     1      -6.995  -2.530   3.703  0.00  0.00    -0.276 OA
ATOM     17  H   UNL     1      -5.576  -0.259   5.238  0.00  0.00    +0.149 HD
BRANCH  15  18
ATOM     18  C   UNL     1      -8.085  -0.610   4.538  0.00  0.00    +0.075 C 
ATOM     19  C   UNL     1      -8.353  -0.477   6.052  0.00  0.00    +0.013 C 
ATOM     20  C   UNL     1      -9.898  -0.476   6.165  0.00  0.00    +0.001 C 
ATOM     21  C   UNL     1     -10.320  -1.507   5.089  0.00  0.00    +0.001 C 
ATOM     22  C   UNL     1      -9.335  -1.265   3.926  0.00  0.00    +0.013 C 
ENDBRANCH  15  18
ENDBRANCH  13  14
ENDBRANCH  11  13
ENDBRANCH   1  11
BRANCH   3  23
ATOM     23  C   UNL     1      -2.451   0.944   0.019  0.00  0.00    +0.151 C 
BRANCH  23  24
ATOM     24  C   UNL     1      -1.156   1.715   0.017  0.00  0.00    -0.060 C 
ATOM     25  C   UNL     1      -0.013   1.076   0.008  0.00  0.00    +0.009 C 
ATOM     26  C   UNL     1      -1.176   3.222   0.025  0.00  0.00    +0.040 C 
ENDBRANCH  23  24
ENDBRANCH   3  23
TORSDOF 6
