REMARK  Name = ZINC49525472
REMARK  5 active torsions:
REMARK  status: ('A' for Active; 'I' for Inactive)
REMARK    1  A    between atoms: C_1  and  C_2
REMARK    2  A    between atoms: C_2  and  C_4
REMARK    3  A    between atoms: C_2  and  N_11
REMARK    4  A    between atoms: N_11  and  C_12
REMARK    5  A    between atoms: N_17  and  C_20
REMARK                            x       y       z     vdW  Elec       q    Type
REMARK                         _______ _______ _______ _____ _____    ______ ____
ROOT
ATOM      1  N   UNL     1      -1.370  -0.513   0.133  0.00  0.00    +0.391 N 
ATOM      2  H   UNL     1      -1.409  -1.501   0.333  0.00  0.00    -0.084 HD
ATOM      3  H   UNL     1      -1.779   0.002   0.898  0.00  0.00    -0.084 HD
ENDROOT
BRANCH   1   4
ATOM      4  C   UNL     1      -2.116  -0.233  -1.101  0.00  0.00    +0.026 C 
ATOM      5  C   UNL     1      -1.696  -1.206  -2.222  0.00  0.00    +0.090 C 
ATOM      6  C   UNL     1      -2.975  -1.945  -2.547  0.00  0.00    +0.220 C 
ATOM      7  O   UNL     1      -3.090  -2.813  -3.386  0.00  0.00    -0.275 OA
ATOM      8  N   UNL     1      -3.959  -1.490  -1.762  0.00  0.00    -0.247 N 
ATOM      9  C   UNL     1      -3.589  -0.522  -0.910  0.00  0.00    +0.208 C 
ATOM     10  O   UNL     1      -4.315   0.032  -0.113  0.00  0.00    -0.277 OA
ATOM     11  C   UNL     1      -5.329  -2.004  -1.830  0.00  0.00    +0.141 C 
ENDBRANCH   1   4
BRANCH   1  13
ATOM     12  C   UNL     1       0.103   1.417  -0.186  0.00  0.00    -0.009 C 
ATOM     13  C   UNL     1       0.031  -0.104  -0.038  0.00  0.00    -0.043 C 
BRANCH  13  14
ATOM     14  C   UNL     1       0.829  -0.530   1.167  0.00  0.00    -0.062 A 
ATOM     15  C   UNL     1       0.283  -0.421   2.432  0.00  0.00    +0.003 A 
ATOM     16  C   UNL     1       1.015  -0.812   3.537  0.00  0.00    +0.015 A 
ATOM     17  C   UNL     1       2.294  -1.312   3.377  0.00  0.00    +0.018 A 
ATOM     18  C   UNL     1       2.841  -1.422   2.111  0.00  0.00    +0.015 A 
ATOM     19  C   UNL     1       2.106  -1.035   1.006  0.00  0.00    +0.003 A 
ATOM     20 BR   UNL     1       3.296  -1.847   4.889  0.00  0.00    -0.050 Br
ENDBRANCH  13  14
ENDBRANCH   1  13
TORSDOF 3
