REMARK  Name = ZINC39543693
REMARK  8 active torsions:
REMARK  status: ('A' for Active; 'I' for Inactive)
REMARK    1  A    between atoms: C_1  and  C_2
REMARK    2  A    between atoms: C_2  and  N_3
REMARK    3  A    between atoms: N_3  and  C_4
REMARK    4  A    between atoms: C_9  and  O_10
REMARK    5  A    between atoms: C_11  and  C_13
REMARK    6  A    between atoms: C_16  and  S_27
REMARK    7  A    between atoms: S_27  and  O_30
REMARK    8  A    between atoms: O_30  and  C_31
REMARK                            x       y       z     vdW  Elec       q    Type
REMARK                         _______ _______ _______ _____ _____    ______ ____
ROOT
ATOM      1  C   UNL     1      -1.108  -0.086  -2.284  0.00  0.00    +0.150 C 
ATOM      2  C   UNL     1      -1.283   1.441  -2.184  0.00  0.00    +0.092 C 
ATOM      3  C   UNL     1      -2.024   1.811  -3.449  0.00  0.00    +0.142 C 
ATOM      4  C   UNL     1      -2.252   0.731  -4.151  0.00  0.00    +0.100 C 
ATOM      5  N   UNL     1      -2.885   0.679  -5.406  0.00  0.00    -0.302 N 
ATOM      6  C   UNL     1      -2.361  -0.277  -6.294  0.00  0.00    +0.037 A 
ATOM      7  C   UNL     1      -2.831  -0.339  -7.598  0.00  0.00    +0.023 A 
ATOM      8  C   UNL     1      -2.322  -1.284  -8.467  0.00  0.00    +0.002 A 
ATOM      9  C   UNL     1      -1.348  -2.165  -8.033  0.00  0.00    +0.000 A 
ATOM     10  C   UNL     1      -0.877  -2.100  -6.735  0.00  0.00    +0.007 A 
ATOM     11  C   UNL     1      -1.377  -1.153  -5.857  0.00  0.00    -0.010 A 
ATOM     12  C   UNL     1      -0.826  -1.091  -4.457  0.00  0.00    +0.124 C 
ATOM     13  N   UNL     1      -1.776  -0.444  -3.546  0.00  0.00    -0.368 NA
ATOM     14  H   UNL     1      -3.627   1.258  -5.641  0.00  0.00    +0.153 HD
ATOM     15  H   UNL     1      -2.547  -1.068  -3.357  0.00  0.00    +0.129 HD
ENDROOT
BRANCH   1  17
ATOM     16  N   UNL     1       0.837  -1.427  -1.550  0.00  0.00    -0.267 N 
ATOM     17  C   UNL     1       0.354  -0.447  -2.340  0.00  0.00    +0.239 C 
ATOM     18  O   UNL     1       1.096   0.143  -3.096  0.00  0.00    -0.273 OA
BRANCH  16  19
ATOM     19  C   UNL     1      -0.035  -2.171  -0.745  0.00  0.00    +0.078 A 
ATOM     20  C   UNL     1      -0.325  -1.747   0.544  0.00  0.00    +0.027 A 
ATOM     21  C   UNL     1      -1.186  -2.483   1.336  0.00  0.00    +0.002 A 
ATOM     22  C   UNL     1      -1.759  -3.643   0.848  0.00  0.00    +0.004 A 
ATOM     23  C   UNL     1      -1.474  -4.072  -0.434  0.00  0.00    +0.047 A 
ATOM     24  C   UNL     1      -0.618  -3.337  -1.238  0.00  0.00    +0.138 A 
BRANCH  24  25
ATOM     25  O   UNL     1      -0.342  -3.754  -2.502  0.00  0.00    -0.505 OA
ATOM     26  H   UNL     1       0.421  -4.345  -2.563  0.00  0.00    +0.292 HD
ENDBRANCH  24  25
ENDBRANCH  16  19
BRANCH  16  28
ATOM     27  C   UNL     1       2.620  -2.654  -2.689  0.00  0.00    +0.025 C 
ATOM     28  C   UNL     1       2.274  -1.713  -1.533  0.00  0.00    +0.110 C 
ENDBRANCH  16  28
ENDBRANCH   1  17
BRANCH   3  29
ATOM     29  S   UNL     1      -2.506   3.443  -3.907  0.00  0.00    +0.150 S 
ATOM     30  O   UNL     1      -1.391   4.284  -3.647  0.00  0.00    -0.132 OA
ATOM     31  O   UNL     1      -3.103   3.345  -5.192  0.00  0.00    -0.132 OA
BRANCH  29  32
ATOM     32  O   UNL     1      -3.607   3.872  -2.947  0.00  0.00    -0.342 OA
BRANCH  32  33
ATOM     33  C   UNL     1      -4.809   3.285  -3.187  0.00  0.00    +0.157 A 
ATOM     34  C   UNL     1      -5.681   3.838  -4.113  0.00  0.00    +0.048 A 
ATOM     35  C   UNL     1      -6.902   3.239  -4.354  0.00  0.00    +0.004 A 
ATOM     36  C   UNL     1      -7.255   2.088  -3.674  0.00  0.00    +0.000 A 
ATOM     37  C   UNL     1      -6.388   1.535  -2.750  0.00  0.00    +0.004 A 
ATOM     38  C   UNL     1      -5.163   2.127  -2.509  0.00  0.00    +0.048 A 
ENDBRANCH  32  33
ENDBRANCH  29  32
ENDBRANCH   3  29
TORSDOF 7
