REMARK  Name = ZINC39859598
REMARK  6 active torsions:
REMARK  status: ('A' for Active; 'I' for Inactive)
REMARK    1  A    between atoms: C_3  and  N_28
REMARK    2  A    between atoms: C_6  and  C_7
REMARK    3  A    between atoms: C_7  and  N_8
REMARK    4  A    between atoms: C_7  and  N_18
REMARK    5  A    between atoms: C_9  and  C_11
REMARK    6  A    between atoms: C_19  and  C_21
REMARK                            x       y       z     vdW  Elec       q    Type
REMARK                         _______ _______ _______ _____ _____    ______ ____
ROOT
ATOM      1  C   UNL     1      -1.293  -0.775   0.010  0.00  0.00    +0.192 C 
ENDROOT
BRANCH   1   7
ATOM      2  C   UNL     1      -0.017   1.378   0.010  0.00  0.00    +0.009 A 
ATOM      3  C   UNL     1       1.171   2.086   0.002  0.00  0.00    +0.033 A 
ATOM      4  C   UNL     1       2.377   1.411  -0.013  0.00  0.00    +0.126 A 
ATOM      5  C   UNL     1       2.396   0.029  -0.020  0.00  0.00    +0.033 A 
ATOM      6  C   UNL     1       1.208  -0.679  -0.012  0.00  0.00    +0.009 A 
ATOM      7  C   UNL     1       0.002  -0.004   0.002  0.00  0.00    -0.009 A 
BRANCH   4   8
ATOM      8  N   UNL     1       3.649   2.168  -0.022  0.00  0.00    +0.056 N 
ATOM      9  O   UNL     1       3.633   3.377  -0.016  0.00  0.00    -0.126 OA
ATOM     10  O   UNL     1       4.704   1.578  -0.035  0.00  0.00    -0.126 OA
ENDBRANCH   4   8
ENDBRANCH   1   7
BRANCH   1  11
ATOM     11  N   UNL     1      -1.094  -2.057   0.692  0.00  0.00    -0.289 N 
ATOM     12  C   UNL     1      -1.589  -3.189   0.156  0.00  0.00    +0.246 C 
ATOM     13  O   UNL     1      -2.202  -3.148  -0.893  0.00  0.00    -0.270 OA
ATOM     14  H   UNL     1      -0.605  -2.090   1.529  0.00  0.00    +0.151 HD
BRANCH  12  15
ATOM     15  C   UNL     1      -1.389  -4.481   0.844  0.00  0.00    +0.037 A 
ATOM     16  C   UNL     1      -0.690  -4.531   2.052  0.00  0.00    +0.016 A 
ATOM     17  C   UNL     1      -0.506  -5.739   2.689  0.00  0.00    +0.039 A 
ATOM     18  C   UNL     1      -1.012  -6.904   2.132  0.00  0.00    +0.123 A 
ATOM     19  C   UNL     1      -1.706  -6.860   0.933  0.00  0.00    +0.039 A 
ATOM     20  C   UNL     1      -1.901  -5.657   0.290  0.00  0.00    +0.016 A 
ATOM     21  F   UNL     1      -0.827  -8.085   2.761  0.00  0.00    -0.205 F 
ENDBRANCH  12  15
ENDBRANCH   1  11
BRANCH   1  22
ATOM     22  N   UNL     1      -2.318  -0.001   0.715  0.00  0.00    -0.289 N 
ATOM     23  C   UNL     1      -3.555   0.111   0.192  0.00  0.00    +0.246 C 
ATOM     24  O   UNL     1      -3.821  -0.430  -0.863  0.00  0.00    -0.270 OA
ATOM     25  H   UNL     1      -2.106   0.430   1.557  0.00  0.00    +0.151 HD
BRANCH  23  26
ATOM     26  C   UNL     1      -4.589   0.892   0.903  0.00  0.00    +0.037 A 
ATOM     27  C   UNL     1      -4.285   1.519   2.113  0.00  0.00    +0.016 A 
ATOM     28  C   UNL     1      -5.253   2.246   2.772  0.00  0.00    +0.039 A 
ATOM     29  C   UNL     1      -6.527   2.355   2.235  0.00  0.00    +0.123 A 
ATOM     30  C   UNL     1      -6.834   1.734   1.034  0.00  0.00    +0.039 A 
ATOM     31  C   UNL     1      -5.872   1.010   0.364  0.00  0.00    +0.016 A 
ATOM     32  F   UNL     1      -7.472   3.068   2.885  0.00  0.00    -0.205 F 
ENDBRANCH  23  26
ENDBRANCH   1  22
TORSDOF 6
