REMARK  Name = ZINC25045424
REMARK  7 active torsions:
REMARK  status: ('A' for Active; 'I' for Inactive)
REMARK    1  A    between atoms: C_1  and  C_2
REMARK    2  A    between atoms: C_2  and  C_27
REMARK    3  A    between atoms: N_5  and  C_9
REMARK    4  A    between atoms: C_9  and  C_10
REMARK    5  A    between atoms: C_10  and  C_12
REMARK    6  A    between atoms: C_10  and  O_26
REMARK    7  A    between atoms: C_12  and  N_13
REMARK                            x       y       z     vdW  Elec       q    Type
REMARK                         _______ _______ _______ _____ _____    ______ ____
ROOT
ATOM      1  C   UNL     1      -1.657   2.413   1.466  0.00  0.00    +0.152 C 
ENDROOT
BRANCH   1   2
ATOM      2  O   UNL     1      -1.899   1.174   2.134  0.00  0.00    -0.388 OA
ATOM      3  H   UNL     1      -2.211   1.169   3.189  0.00  0.00    +0.210 HD
ENDBRANCH   1   2
BRANCH   1   4
ATOM      4  C   UNL     1      -1.239   2.140   0.020  0.00  0.00    +0.151 C 
BRANCH   4   9
ATOM      5  C   UNL     1       3.026   0.658  -1.280  0.00  0.00    +0.042 C 
ATOM      6  C   UNL     1       2.165   0.655  -0.015  0.00  0.00    +0.113 C 
ATOM      7  C   UNL     1       1.230   1.848   0.000  0.00  0.00    +0.247 C 
ATOM      8  O   UNL     1       1.538   3.020   0.003  0.00  0.00    -0.273 OA
ATOM      9  N   UNL     1      -0.016   1.334   0.009  0.00  0.00    -0.222 N 
ATOM     10  C   UNL     1       0.002  -0.004   0.002  0.00  0.00    +0.309 C 
ATOM     11  O   UNL     1      -0.999  -0.693   0.008  0.00  0.00    -0.252 OA
ATOM     12  N   UNL     1       1.252  -0.501  -0.013  0.00  0.00    -0.285 N 
ATOM     13  H   UNL     1       1.659  -1.523  -0.022  0.00  0.00    +0.151 HD
BRANCH   6  14
ATOM     14  C   UNL     1       3.047   0.647   1.235  0.00  0.00    +0.021 C 
ATOM     15  C   UNL     1       3.869   1.937   1.288  0.00  0.00    +0.006 C 
ATOM     16  C   UNL     1       4.751   1.929   2.538  0.00  0.00    +0.000 C 
ATOM     17  C   UNL     1       5.694   0.725   2.488  0.00  0.00    +0.000 C 
ATOM     18  C   UNL     1       4.873  -0.565   2.435  0.00  0.00    +0.000 C 
ATOM     19  C   UNL     1       3.991  -0.557   1.185  0.00  0.00    +0.006 C 
ENDBRANCH   6  14
ENDBRANCH   4   9
ENDBRANCH   1   4
BRANCH   1  20
ATOM     20  C   UNL     1      -2.935   3.256   1.477  0.00  0.00    +0.155 C 
BRANCH  20  21
ATOM     21  N   UNL     1      -3.269   3.618   2.856  0.00  0.00    -0.337 N 
ATOM     22  C   UNL     1      -4.077   2.872   3.696  0.00  0.00    +0.050 A 
ATOM     23  C   UNL     1      -4.745   1.664   3.524  0.00  0.00    +0.026 A 
ATOM     24  C   UNL     1      -5.489   1.133   4.555  0.00  0.00    +0.002 A 
ATOM     25  C   UNL     1      -5.576   1.791   5.773  0.00  0.00    +0.001 A 
ATOM     26  C   UNL     1      -4.916   2.986   5.965  0.00  0.00    +0.010 A 
ATOM     27  C   UNL     1      -4.161   3.533   4.931  0.00  0.00    +0.008 A 
ATOM     28  C   UNL     1      -3.353   4.760   4.804  0.00  0.00    +0.008 A 
ATOM     29  C   UNL     1      -2.828   4.758   3.503  0.00  0.00    +0.050 A 
ATOM     30  C   UNL     1      -2.013   5.811   3.096  0.00  0.00    +0.026 A 
ATOM     31  C   UNL     1      -1.731   6.841   3.967  0.00  0.00    +0.002 A 
ATOM     32  C   UNL     1      -2.251   6.841   5.253  0.00  0.00    +0.001 A 
ATOM     33  C   UNL     1      -3.059   5.807   5.674  0.00  0.00    +0.010 A 
ENDBRANCH  20  21
ENDBRANCH   1  20
TORSDOF 6
