REMARK  Name = ZINC23361486
REMARK  8 active torsions:
REMARK  status: ('A' for Active; 'I' for Inactive)
REMARK    1  A    between atoms: C_1  and  N_2
REMARK    2  A    between atoms: C_6  and  S_7
REMARK    3  A    between atoms: S_7  and  C_8
REMARK    4  A    between atoms: C_8  and  C_9
REMARK    5  A    between atoms: C_18  and  C_22
REMARK    6  A    between atoms: C_22  and  N_23
REMARK    7  A    between atoms: N_26  and  C_36
REMARK    8  A    between atoms: C_28  and  C_30
REMARK                            x       y       z     vdW  Elec       q    Type
REMARK                         _______ _______ _______ _____ _____    ______ ____
ROOT
ATOM      1  C   UNL     1       0.073  -1.639   5.169  0.00  0.00    +0.226 C 
ATOM      2  O   UNL     1       0.061  -0.496   5.572  0.00  0.00    -0.275 OA
ATOM      3  N   UNL     1       0.095  -2.663   6.046  0.00  0.00    -0.293 N 
ATOM      4  C   UNL     1       0.116  -4.041   5.554  0.00  0.00    +0.149 C 
ATOM      5  C   UNL     1       1.401  -4.750   5.955  0.00  0.00    +0.248 C 
ATOM      6  O   UNL     1       1.510  -4.807   7.381  0.00  0.00    -0.490 OA
ATOM      7  C   UNL     1       2.131  -3.755   7.970  0.00  0.00    +0.125 A 
ATOM      8  C   UNL     1       3.388  -3.911   8.537  0.00  0.00    +0.046 A 
ATOM      9  C   UNL     1       4.031  -2.823   9.094  0.00  0.00    +0.008 A 
ATOM     10  C   UNL     1       3.430  -1.578   9.088  0.00  0.00    -0.033 A 
ATOM     11  C   UNL     1       2.169  -1.421   8.539  0.00  0.00    +0.013 A 
ATOM     12  C   UNL     1       1.519  -2.510   8.002  0.00  0.00    +0.012 A 
ATOM     13  C   UNL     1       0.105  -2.388   7.486  0.00  0.00    +0.146 C 
ENDROOT
BRANCH   1  14
ATOM     14  C   UNL     1       0.063  -1.917   3.688  0.00  0.00    +0.173 C 
BRANCH  14  15
ATOM     15  S   UNL     1       0.033  -0.347   2.779  0.00  0.00    -0.077 S 
BRANCH  15  21
ATOM     16  C   UNL     1      -0.018   1.461   0.010  0.00  0.00    +0.152 C 
ATOM     17  N   UNL     1       0.002  -0.004   0.002  0.00  0.00    -0.312 N 
ATOM     18  C   UNL     1       0.009  -0.824  -1.093  0.00  0.00    +0.225 A 
ATOM     19  N   UNL     1       0.028  -2.052  -0.657  0.00  0.00    -0.137 NA
ATOM     20  N   UNL     1       0.034  -2.064   0.628  0.00  0.00    -0.123 NA
ATOM     21  C   UNL     1       0.024  -0.834   1.086  0.00  0.00    +0.192 A 
ENDBRANCH  15  21
ENDBRANCH  14  15
ENDBRANCH   1  14
BRANCH  10  22
ATOM     22  C   UNL     1       4.147  -0.392   9.680  0.00  0.00    +0.120 C 
BRANCH  22  23
ATOM     23  N   UNL     1       4.951   0.264   8.640  0.00  0.00    -0.295 NA
ATOM     24  C   UNL     1       4.091   0.860   7.608  0.00  0.00    +0.067 C 
ATOM     25  C   UNL     1       4.966   1.479   6.515  0.00  0.00    -0.064 C 
ATOM     26  N   UNL     1       5.835   2.505   7.106  0.00  0.00    +0.380 N 
ATOM     27  C   UNL     1       6.705   1.889   8.117  0.00  0.00    -0.055 C 
ATOM     28  C   UNL     1       5.844   1.274   9.223  0.00  0.00    +0.071 C 
ATOM     29  C   UNL     1       6.662   3.111   6.054  0.00  0.00    -0.096 C 
ATOM     30  H   UNL     1       5.267   3.218   7.540  0.00  0.00    -0.082 HD
BRANCH  28  31
ATOM     31  C   UNL     1       6.735   0.624  10.251  0.00  0.00    -0.032 A 
ATOM     32  C   UNL     1       7.271  -0.627  10.008  0.00  0.00    +0.005 A 
ATOM     33  C   UNL     1       8.088  -1.223  10.950  0.00  0.00    +0.000 A 
ATOM     34  C   UNL     1       8.370  -0.568  12.135  0.00  0.00    +0.000 A 
ATOM     35  C   UNL     1       7.835   0.684  12.376  0.00  0.00    +0.000 A 
ATOM     36  C   UNL     1       7.021   1.282  11.432  0.00  0.00    +0.005 A 
ENDBRANCH  28  31
ENDBRANCH  22  23
ENDBRANCH  10  22
TORSDOF 6
