REMARK  Name = ZINC64538741
REMARK  8 active torsions:
REMARK  status: ('A' for Active; 'I' for Inactive)
REMARK    1  A    between atoms: C_1  and  C_2
REMARK    2  A    between atoms: C_8  and  C_11
REMARK    3  A    between atoms: C_11  and  C_12
REMARK    4  A    between atoms: C_12  and  N_13
REMARK    5  A    between atoms: C_14  and  C_16
REMARK    6  A    between atoms: C_16  and  C_17
REMARK    7  A    between atoms: N_20  and  S_23
REMARK    8  A    between atoms: S_23  and  C_26
REMARK                            x       y       z     vdW  Elec       q    Type
REMARK                         _______ _______ _______ _____ _____    ______ ____
ROOT
ATOM      1  N   UNL     1      -1.377  -2.600   5.613  0.00  0.00    -0.315 N 
ATOM      2  C   UNL     1      -2.537  -2.599   6.299  0.00  0.00    +0.213 C 
ATOM      3  O   UNL     1      -3.583  -2.808   5.722  0.00  0.00    -0.276 OA
ATOM      4  H   UNL     1      -0.540  -2.433   6.075  0.00  0.00    +0.149 HD
ENDROOT
BRANCH   1   5
ATOM      5  C   UNL     1      -1.379  -2.854   4.170  0.00  0.00    +0.108 C 
BRANCH   5   6
ATOM      6  C   UNL     1       0.055  -2.799   3.641  0.00  0.00    +0.052 C 
BRANCH   6  14
ATOM      7  C   UNL     1      -0.018   1.503   0.010  0.00  0.00    +0.044 C 
ATOM      8  C   UNL     1       0.002  -0.004   0.002  0.00  0.00    -0.050 A 
ATOM      9  C   UNL     1       0.005  -0.680  -1.226  0.00  0.00    +0.005 A 
ATOM     10  C   UNL     1       0.023  -2.026  -1.317  0.00  0.00    +0.026 A 
ATOM     11  C   UNL     1       0.039  -2.826  -0.141  0.00  0.00    +0.043 A 
ATOM     12  N   UNL     1       0.057  -4.126   0.030  0.00  0.00    -0.380 N 
ATOM     13  C   UNL     1       0.067  -4.408   1.470  0.00  0.00    +0.144 C 
ATOM     14  C   UNL     1       0.052  -3.060   2.156  0.00  0.00    -0.040 C 
ATOM     15  C   UNL     1       0.036  -2.137   1.168  0.00  0.00    -0.001 A 
ATOM     16  C   UNL     1       0.022  -0.669   1.180  0.00  0.00    +0.013 A 
ATOM     17  H   UNL     1       0.062  -4.790  -0.677  0.00  0.00    +0.160 HD
ENDBRANCH   6  14
ENDBRANCH   5   6
ENDBRANCH   1   5
BRANCH   2  18
ATOM     18  C   UNL     1      -2.534  -2.338   7.783  0.00  0.00    +0.099 C 
BRANCH  18  19
ATOM     19  C   UNL     1      -3.969  -2.393   8.313  0.00  0.00    +0.000 C 
ATOM     20  C   UNL     1      -4.782  -1.250   7.701  0.00  0.00    +0.021 C 
ATOM     21  C   UNL     1      -6.226  -1.328   8.207  0.00  0.00    +0.110 C 
ATOM     22  N   UNL     1      -6.213  -1.339   9.676  0.00  0.00    -0.177 NA
ATOM     23  C   UNL     1      -5.390  -2.341  10.367  0.00  0.00    +0.110 C 
ATOM     24  C   UNL     1      -3.955  -2.252   9.837  0.00  0.00    +0.021 C 
BRANCH  22  25
ATOM     25  S   UNL     1      -7.107  -0.244  10.537  0.00  0.00    +0.061 S 
ATOM     26  O   UNL     1      -6.489  -0.125  11.810  0.00  0.00    -0.153 OA
ATOM     27  O   UNL     1      -7.312   0.874   9.682  0.00  0.00    -0.153 OA
BRANCH  25  28
ATOM     28  C   UNL     1      -8.691  -0.965  10.811  0.00  0.00    +0.105 A 
ATOM     29  C   UNL     1      -9.707  -0.773   9.893  0.00  0.00    +0.028 A 
ATOM     30  C   UNL     1     -10.949  -1.339  10.108  0.00  0.00    +0.002 A 
ATOM     31  C   UNL     1     -11.177  -2.098  11.241  0.00  0.00    +0.000 A 
ATOM     32  C   UNL     1     -10.161  -2.291  12.159  0.00  0.00    +0.002 A 
ATOM     33  C   UNL     1      -8.917  -1.728  11.941  0.00  0.00    +0.028 A 
ENDBRANCH  25  28
ENDBRANCH  22  25
ENDBRANCH  18  19
ENDBRANCH   2  18
TORSDOF 7
