REMARK  Name = ZINC10012178
REMARK  8 active torsions:
REMARK  status: ('A' for Active; 'I' for Inactive)
REMARK    1  A    between atoms: C_4  and  N_16
REMARK    2  A    between atoms: C_5  and  C_7
REMARK    3  A    between atoms: N_9  and  C_10
REMARK    4  A    between atoms: N_16  and  C_17
REMARK    5  A    between atoms: C_17  and  N_19
REMARK    6  A    between atoms: C_20  and  C_22
REMARK    7  A    between atoms: C_23  and  C_24
REMARK    8  A    between atoms: C_28  and  N_30
REMARK                            x       y       z     vdW  Elec       q    Type
REMARK                         _______ _______ _______ _____ _____    ______ ____
ROOT
ATOM      1  N   UNL     1      -3.639  10.104   0.067  0.00  0.00    -0.296 N 
ATOM      2  H   UNL     1      -4.216   9.635  -0.557  0.00  0.00    +0.154 HD
ENDROOT
BRANCH   1   6
ATOM      3  C   UNL     1      -3.854  14.255   0.392  0.00  0.00    +0.001 A 
ATOM      4  C   UNL     1      -2.625  13.626   0.271  0.00  0.00    +0.002 A 
ATOM      5  C   UNL     1      -2.550  12.252   0.169  0.00  0.00    +0.024 A 
ATOM      6  C   UNL     1      -3.711  11.489   0.176  0.00  0.00    +0.045 A 
ATOM      7  C   UNL     1      -4.957  12.123   0.298  0.00  0.00    +0.058 A 
ATOM      8  C   UNL     1      -5.016  13.515   0.406  0.00  0.00    +0.015 A 
BRANCH   7   9
ATOM      9  C   UNL     1      -6.197  11.325   0.313  0.00  0.00    +0.246 C 
ATOM     10  O   UNL     1      -6.138  10.110   0.320  0.00  0.00    -0.270 OA
ATOM     11  N   UNL     1      -7.396  11.941   0.318  0.00  0.00    -0.308 N 
ATOM     12  H   UNL     1      -7.443  12.910   0.312  0.00  0.00    +0.149 HD
BRANCH  11  13
ATOM     13  C   UNL     1      -8.627  11.148   0.333  0.00  0.00    +0.073 C 
ATOM     14  C   UNL     1      -8.999  10.758  -1.099  0.00  0.00    +0.022 C 
ATOM     15  C   UNL     1     -10.286   9.929  -1.083  0.00  0.00    +0.002 C 
ATOM     16  C   UNL     1     -11.418  10.757  -0.470  0.00  0.00    +0.000 C 
ATOM     17  C   UNL     1     -11.046  11.147   0.962  0.00  0.00    +0.002 C 
ATOM     18  C   UNL     1      -9.759  11.976   0.946  0.00  0.00    +0.022 C 
ENDBRANCH  11  13
ENDBRANCH   7   9
ENDBRANCH   1   6
BRANCH   1  19
ATOM     19  C   UNL     1      -2.768   9.413   0.829  0.00  0.00    +0.141 C 
ATOM     20  S   UNL     1      -1.666  10.246   1.839  0.00  0.00    -0.018 S 
BRANCH  19  21
ATOM     21  N   UNL     1      -2.764   8.065   0.794  0.00  0.00    -0.264 N 
ATOM     22  C   UNL     1      -1.892   7.374   1.555  0.00  0.00    +0.242 C 
ATOM     23  O   UNL     1      -1.109   7.967   2.274  0.00  0.00    -0.270 OA
ATOM     24  H   UNL     1      -3.388   7.593   0.221  0.00  0.00    +0.157 HD
BRANCH  22  25
ATOM     25  C   UNL     1      -1.888   5.912   1.518  0.00  0.00    +0.068 C 
ATOM     26  C   UNL     1      -1.016   5.220   2.280  0.00  0.00    +0.013 C 
BRANCH  26  27
ATOM     27  C   UNL     1      -1.012   3.749   2.242  0.00  0.00    -0.023 A 
ATOM     28  C   UNL     1      -1.911   3.064   1.418  0.00  0.00    +0.008 A 
ATOM     29  C   UNL     1      -1.897   1.686   1.385  0.00  0.00    +0.003 A 
ATOM     30  C   UNL     1      -1.004   0.980   2.172  0.00  0.00    +0.033 A 
ATOM     31  C   UNL     1      -0.112   1.650   2.990  0.00  0.00    +0.127 A 
ATOM     32  C   UNL     1      -0.109   3.028   3.031  0.00  0.00    +0.040 A 
BRANCH  31  33
ATOM     33  N   UNL     1       0.843   0.885   3.824  0.00  0.00    +0.056 N 
ATOM     34  O   UNL     1       0.842  -0.332   3.789  0.00  0.00    -0.126 OA
ATOM     35  O   UNL     1       1.629   1.473   4.545  0.00  0.00    -0.126 OA
ENDBRANCH  31  33
ENDBRANCH  26  27
ENDBRANCH  22  25
ENDBRANCH  19  21
ENDBRANCH   1  19
TORSDOF 8
