REMARK  Name = ZINC51060360
REMARK  8 active torsions:
REMARK  status: ('A' for Active; 'I' for Inactive)
REMARK    1  A    between atoms: C_1  and  C_2
REMARK    2  A    between atoms: C_2  and  C_3
REMARK    3  A    between atoms: C_3  and  C_4
REMARK    4  A    between atoms: C_4  and  N_5
REMARK    5  A    between atoms: C_6  and  C_8
REMARK    6  A    between atoms: N_13  and  C_15
REMARK    7  A    between atoms: C_15  and  C_16
REMARK    8  A    between atoms: C_24  and  N_26
REMARK                            x       y       z     vdW  Elec       q    Type
REMARK                         _______ _______ _______ _____ _____    ______ ____
ROOT
ATOM      1  C   UNL     1       2.343  -4.350   3.846  0.00  0.00    +0.058 C 
ATOM      2  C   UNL     1       3.781  -3.822   3.834  0.00  0.00    +0.009 C 
ATOM      3  C   UNL     1       4.535  -4.398   5.037  0.00  0.00    -0.018 C 
ATOM      4  C   UNL     1       4.478  -5.926   4.983  0.00  0.00    -0.078 C 
ATOM      5  N   UNL     1       3.079  -6.369   5.024  0.00  0.00    +0.385 N 
ATOM      6  C   UNL     1       2.366  -5.880   3.837  0.00  0.00    -0.066 C 
ATOM      7  H   UNL     1       2.636  -6.005   5.854  0.00  0.00    -0.081 HD
ENDROOT
BRANCH   1   9
ATOM      8  N   UNL     1       1.471  -2.526   2.420  0.00  0.00    -0.315 N 
ATOM      9  C   UNL     1       1.615  -3.850   2.625  0.00  0.00    +0.214 C 
ATOM     10  O   UNL     1       1.157  -4.641   1.827  0.00  0.00    -0.276 OA
ATOM     11  H   UNL     1       1.837  -1.894   3.058  0.00  0.00    +0.149 HD
BRANCH   8  12
ATOM     12  C   UNL     1       0.763  -2.041   1.233  0.00  0.00    +0.104 C 
BRANCH  12  13
ATOM     13  C   UNL     1       0.742  -0.511   1.242  0.00  0.00    +0.018 C 
BRANCH  13  15
ATOM     14  C   UNL     1      -0.019   1.526   0.010  0.00  0.00    +0.004 C 
ATOM     15  C   UNL     1       0.002  -0.004   0.002  0.00  0.00    -0.002 C 
ENDBRANCH  13  15
ENDBRANCH  12  13
ENDBRANCH   8  12
ENDBRANCH   1   9
BRANCH   5  16
ATOM     16  C   UNL     1       3.032  -7.837   5.051  0.00  0.00    -0.001 C 
BRANCH  16  17
ATOM     17  C   UNL     1       3.646  -8.335   6.333  0.00  0.00    +0.115 A 
ATOM     18  N   UNL     1       4.935  -8.580   6.357  0.00  0.00    -0.234 NA
ATOM     19  C   UNL     1       5.522  -9.024   7.478  0.00  0.00    +0.076 A 
ATOM     20  C   UNL     1       6.896  -9.295   7.540  0.00  0.00    +0.028 A 
ATOM     21  C   UNL     1       7.441  -9.745   8.706  0.00  0.00    +0.002 A 
ATOM     22  C   UNL     1       6.654  -9.941   9.838  0.00  0.00    +0.001 A 
ATOM     23  C   UNL     1       5.315  -9.687   9.812  0.00  0.00    +0.013 A 
ATOM     24  C   UNL     1       4.724  -9.223   8.631  0.00  0.00    +0.040 A 
ATOM     25  C   UNL     1       3.339  -8.942   8.543  0.00  0.00    +0.127 A 
ATOM     26  N   UNL     1       2.862  -8.501   7.386  0.00  0.00    -0.219 NA
BRANCH  25  27
ATOM     27  N   UNL     1       2.510  -9.116   9.630  0.00  0.00    -0.343 N 
ATOM     28  H   UNL     1       2.873  -9.435  10.471  0.00  0.00    +0.144 HD
ATOM     29  H   UNL     1       1.563  -8.919   9.555  0.00  0.00    +0.144 HD
ENDBRANCH  25  27
ENDBRANCH  16  17
ENDBRANCH   5  16
TORSDOF 7
