REMARK  Name = ZINC09754401
REMARK  10 active torsions:
REMARK  status: ('A' for Active; 'I' for Inactive)
REMARK    1  A    between atoms: C_1  and  C_2
REMARK    2  A    between atoms: C_2  and  C_3
REMARK    3  A    between atoms: C_3  and  N_4
REMARK    4  A    between atoms: C_5  and  C_7
REMARK    5  A    between atoms: C_7  and  C_9
REMARK    6  A    between atoms: C_7  and  N_10
REMARK    7  A    between atoms: C_11  and  C_13
REMARK    8  A    between atoms: N_16  and  S_19
REMARK    9  A    between atoms: S_19  and  C_22
REMARK   10  A    between atoms: C_27  and  C_28
REMARK                            x       y       z     vdW  Elec       q    Type
REMARK                         _______ _______ _______ _____ _____    ______ ____
ROOT
ATOM      1  C   UNL     1      -5.607   2.823   0.641  0.00  0.00    +0.077 C 
ATOM      2  C   UNL     1      -5.414   4.050   1.534  0.00  0.00    +0.030 C 
ATOM      3  C   UNL     1      -6.676   4.917   1.485  0.00  0.00    +0.110 C 
ATOM      4  N   UNL     1      -7.834   4.086   1.843  0.00  0.00    -0.177 NA
ATOM      5  C   UNL     1      -8.062   2.836   1.106  0.00  0.00    +0.110 C 
ATOM      6  C   UNL     1      -6.784   1.993   1.160  0.00  0.00    +0.030 C 
ENDROOT
BRANCH   1   8
ATOM      7  N   UNL     1      -3.186   2.512   0.243  0.00  0.00    -0.304 N 
ATOM      8  C   UNL     1      -4.355   1.985   0.660  0.00  0.00    +0.217 C 
ATOM      9  O   UNL     1      -4.398   0.838   1.050  0.00  0.00    -0.275 OA
ATOM     10  H   UNL     1      -3.151   3.430  -0.068  0.00  0.00    +0.149 HD
BRANCH   7  11
ATOM     11  C   UNL     1      -1.968   1.698   0.262  0.00  0.00    +0.156 C 
ATOM     12  C   UNL     1      -1.886   0.873  -1.024  0.00  0.00    +0.038 C 
BRANCH  11  14
ATOM     13  N   UNL     1       0.474   2.066   0.391  0.00  0.00    -0.314 N 
ATOM     14  C   UNL     1      -0.763   2.598   0.359  0.00  0.00    +0.233 C 
ATOM     15  O   UNL     1      -0.908   3.801   0.408  0.00  0.00    -0.274 OA
ATOM     16  H   UNL     1       0.590   1.104   0.352  0.00  0.00    +0.149 HD
BRANCH  13  17
ATOM     17  C   UNL     1       1.646   2.941   0.479  0.00  0.00    +0.104 C 
BRANCH  17  19
ATOM     18  C   UNL     1       4.141   3.006   0.585  0.00  0.00    +0.005 C 
ATOM     19  C   UNL     1       2.918   2.091   0.493  0.00  0.00    +0.015 C 
ENDBRANCH  17  19
ENDBRANCH  13  17
ENDBRANCH  11  14
ENDBRANCH   7  11
ENDBRANCH   1   8
BRANCH   4  20
ATOM     20  S   UNL     1      -8.863   4.551   3.055  0.00  0.00    +0.061 S 
ATOM     21  O   UNL     1      -8.642   5.939   3.266  0.00  0.00    -0.153 OA
ATOM     22  O   UNL     1     -10.142   4.025   2.725  0.00  0.00    -0.153 OA
BRANCH  20  23
ATOM     23  C   UNL     1      -8.344   3.729   4.524  0.00  0.00    +0.117 A 
ATOM     24  C   UNL     1      -7.107   3.113   4.571  0.00  0.00    +0.029 A 
ATOM     25  C   UNL     1      -6.698   2.472   5.725  0.00  0.00    +0.002 A 
ATOM     26  C   UNL     1      -7.530   2.437   6.829  0.00  0.00    +0.001 A 
ATOM     27  C   UNL     1      -8.769   3.049   6.780  0.00  0.00    +0.014 A 
ATOM     28  C   UNL     1      -9.176   3.694   5.627  0.00  0.00    +0.081 A 
BRANCH  28  29
ATOM     29  C   UNL     1     -10.527   4.360   5.574  0.00  0.00    +0.419 C 
ATOM     30  F   UNL     1     -11.122   4.309   6.839  0.00  0.00    -0.166 F 
ATOM     31  F   UNL     1     -10.373   5.695   5.184  0.00  0.00    -0.166 F 
ATOM     32  F   UNL     1     -11.338   3.694   4.649  0.00  0.00    -0.166 F 
ENDBRANCH  28  29
ENDBRANCH  20  23
ENDBRANCH   4  20
TORSDOF 8
