REMARK  Name = ZINC60221069
REMARK  9 active torsions:
REMARK  status: ('A' for Active; 'I' for Inactive)
REMARK    1  A    between atoms: C_1  and  C_2
REMARK    2  A    between atoms: C_7  and  C_9
REMARK    3  A    between atoms: C_7  and  C_10
REMARK    4  A    between atoms: N_13  and  C_17
REMARK    5  A    between atoms: C_17  and  C_18
REMARK    6  A    between atoms: N_20  and  C_21
REMARK    7  A    between atoms: C_24  and  C_27
REMARK    8  A    between atoms: C_27  and  C_28
REMARK    9  A    between atoms: C_28  and  N_29
REMARK                            x       y       z     vdW  Elec       q    Type
REMARK                         _______ _______ _______ _____ _____    ______ ____
ROOT
ATOM      1  C   UNL     1      -2.127  -3.153  -4.393  0.00  0.00    +0.235 C 
ATOM      2  O   UNL     1      -1.881  -1.974  -4.537  0.00  0.00    -0.274 OA
ATOM      3  N   UNL     1      -3.074  -3.741  -5.151  0.00  0.00    -0.284 N 
ATOM      4  H   UNL     1      -3.223  -4.697  -5.084  0.00  0.00    +0.155 HD
ENDROOT
BRANCH   3   5
ATOM      5  C   UNL     1      -3.840  -2.972  -6.033  0.00  0.00    +0.033 A 
ATOM      6  C   UNL     1      -5.177  -3.284  -6.247  0.00  0.00    +0.023 A 
ATOM      7  C   UNL     1      -5.931  -2.524  -7.119  0.00  0.00    +0.005 A 
ATOM      8  C   UNL     1      -5.357  -1.453  -7.779  0.00  0.00    -0.049 A 
ATOM      9  C   UNL     1      -4.027  -1.139  -7.568  0.00  0.00    +0.005 A 
ATOM     10  C   UNL     1      -3.269  -1.892  -6.693  0.00  0.00    +0.023 A 
BRANCH   8  11
ATOM     11  C   UNL     1      -6.183  -0.625  -8.729  0.00  0.00    +0.016 C 
BRANCH  11  12
ATOM     12  C   UNL     1      -6.840   0.526  -7.965  0.00  0.00    -0.074 C 
BRANCH  12  13
ATOM     13  N   UNL     1      -7.713   1.282  -8.873  0.00  0.00    +0.381 N 
ATOM     14  C   UNL     1      -8.179   2.492  -8.194  0.00  0.00    -0.068 C 
ATOM     15  C   UNL     1      -8.771   3.468  -9.217  0.00  0.00    +0.050 C 
ATOM     16  S   UNL     1     -10.207   2.671 -10.002  0.00  0.00    -0.164 S 
ATOM     17  C   UNL     1      -9.544   1.048 -10.490  0.00  0.00    +0.050 C 
ATOM     18  C   UNL     1      -8.836   0.433  -9.276  0.00  0.00    -0.068 C 
ATOM     19  H   UNL     1      -7.187   1.546  -9.693  0.00  0.00    -0.082 HD
ENDBRANCH  12  13
ENDBRANCH  11  12
ENDBRANCH   8  11
ENDBRANCH   3   5
BRANCH   1  20
ATOM     20  C   UNL     1      -1.374  -3.960  -3.367  0.00  0.00    +0.214 C 
BRANCH  20  32
ATOM     21  C   UNL     1      -0.463   1.580   0.370  0.00  0.00    +0.007 C 
ATOM     22  C   UNL     1      -0.303   0.060   0.265  0.00  0.00    -0.011 C 
ATOM     23  C   UNL     1       0.508  -0.277  -0.987  0.00  0.00    +0.038 C 
ATOM     24  C   UNL     1       0.632  -1.788  -1.128  0.00  0.00    +0.113 C 
ATOM     25  C   UNL     1       1.191  -2.453   0.114  0.00  0.00    +0.041 C 
ATOM     26  C   UNL     1       0.614  -1.970   1.433  0.00  0.00    -0.032 C 
ATOM     27  C   UNL     1       0.454  -0.455   1.487  0.00  0.00    +0.009 C 
ATOM     28  C   UNL     1       1.588  -2.380   2.559  0.00  0.00    +0.011 C 
ATOM     29  C   UNL     1      -0.728  -2.650   1.718  0.00  0.00    +0.011 C 
ATOM     30  C   UNL     1      -0.680  -2.397  -1.559  0.00  0.00    +0.247 C 
ATOM     31  O   UNL     1      -1.769  -2.280  -1.038  0.00  0.00    -0.273 OA
ATOM     32  N   UNL     1      -0.408  -3.098  -2.681  0.00  0.00    -0.215 N 
ATOM     33  C   UNL     1       0.853  -2.907  -3.085  0.00  0.00    +0.310 C 
ATOM     34  O   UNL     1       1.330  -3.420  -4.079  0.00  0.00    -0.252 OA
ATOM     35  N   UNL     1       1.532  -2.085  -2.266  0.00  0.00    -0.285 N 
ATOM     36  H   UNL     1       2.431  -1.746  -2.383  0.00  0.00    +0.151 HD
ENDBRANCH  20  32
ENDBRANCH   1  20
TORSDOF 6
