REMARK  Name = ZINC14271595
REMARK  12 active torsions:
REMARK  status: ('A' for Active; 'I' for Inactive)
REMARK    1  A    between atoms: C_1  and  C_2
REMARK    2  A    between atoms: C_6  and  C_10
REMARK    3  A    between atoms: C_7  and  O_8
REMARK    4  A    between atoms: O_8  and  C_9
REMARK    5  A    between atoms: N_12  and  C_13
REMARK    6  A    between atoms: C_13  and  N_15
REMARK    7  A    between atoms: N_15  and  C_16
REMARK    8  A    between atoms: C_17  and  C_30
REMARK    9  A    between atoms: C_22  and  C_26
REMARK   10  A    between atoms: C_26  and  C_27
REMARK   11  A    between atoms: C_26  and  C_28
REMARK   12  A    between atoms: C_26  and  C_29
REMARK                            x       y       z     vdW  Elec       q    Type
REMARK                         _______ _______ _______ _____ _____    ______ ____
ROOT
ATOM      1  C   UNL     1      -3.057   0.494   1.206  0.00  0.00    +0.084 A 
ATOM      2  C   UNL     1      -2.447   0.874   0.018  0.00  0.00    +0.068 A 
ATOM      3  C   UNL     1      -3.100   0.495  -1.223  0.00  0.00    -0.023 A 
ATOM      4  C   UNL     1      -4.253  -0.193  -1.079  0.00  0.00    -0.004 A 
ATOM      5  S   UNL     1      -4.477  -0.342   0.671  0.00  0.00    -0.077 S 
ATOM      6  C   UNL     1      -5.138  -0.711  -2.171  0.00  0.00    +0.046 C 
ATOM      7  C   UNL     1      -4.739  -0.023  -3.484  0.00  0.00    -0.000 C 
ATOM      8  C   UNL     1      -3.217  -0.088  -3.633  0.00  0.00    +0.009 C 
ATOM      9  C   UNL     1      -2.554   0.831  -2.605  0.00  0.00    +0.037 C 
ENDROOT
BRANCH   2  10
ATOM     10  C   UNL     1      -1.187   1.624   0.017  0.00  0.00    +0.244 C 
ATOM     11  O   UNL     1      -1.204   2.841   0.023  0.00  0.00    -0.270 OA
ATOM     12  N   UNL     1      -0.011   0.966   0.007  0.00  0.00    -0.325 N 
ATOM     13  H   UNL     1       0.002  -0.004   0.002  0.00  0.00    +0.145 HD
ATOM     14  H   UNL     1       0.822   1.462   0.002  0.00  0.00    +0.145 HD
ENDBRANCH   2  10
BRANCH   7  15
ATOM     15  C   UNL     1      -5.401  -0.742  -4.662  0.00  0.00    -0.035 C 
ATOM     16  C   UNL     1      -4.954  -2.205  -4.682  0.00  0.00    +0.011 C 
ATOM     17  C   UNL     1      -6.922  -0.675  -4.511  0.00  0.00    +0.011 C 
ATOM     18  C   UNL     1      -4.988  -0.065  -5.970  0.00  0.00    +0.011 C 
ENDBRANCH   7  15
BRANCH   1  19
ATOM     19  N   UNL     1      -2.634   0.728   2.505  0.00  0.00    -0.291 N 
ATOM     20  H   UNL     1      -1.811   1.216   2.666  0.00  0.00    +0.154 HD
BRANCH  19  21
ATOM     21  C   UNL     1      -3.365   0.278   3.543  0.00  0.00    +0.141 C 
ATOM     22  S   UNL     1      -4.817  -0.584   3.258  0.00  0.00    -0.018 S 
BRANCH  21  25
ATOM     23  C   UNL     1      -3.685   0.055   5.845  0.00  0.00    +0.253 C 
ATOM     24  O   UNL     1      -4.716  -0.556   5.642  0.00  0.00    -0.270 OA
ATOM     25  N   UNL     1      -2.953   0.506   4.806  0.00  0.00    -0.263 N 
ATOM     26  H   UNL     1      -2.131   0.994   4.968  0.00  0.00    +0.157 HD
BRANCH  23  32
ATOM     27  C   UNL     1      -4.369  -0.421  10.774  0.00  0.00    +0.047 C 
ATOM     28  C   UNL     1      -3.559   0.078   9.605  0.00  0.00    -0.008 A 
ATOM     29  C   UNL     1      -2.387   0.773   9.825  0.00  0.00    +0.007 A 
ATOM     30  C   UNL     1      -1.635   1.236   8.758  0.00  0.00    +0.001 A 
ATOM     31  C   UNL     1      -2.048   1.002   7.464  0.00  0.00    +0.017 A 
ATOM     32  C   UNL     1      -3.235   0.304   7.227  0.00  0.00    +0.079 A 
ATOM     33  C   UNL     1      -3.992  -0.162   8.310  0.00  0.00    +0.135 A 
BRANCH  33  34
ATOM     34  O   UNL     1      -5.144  -0.845   8.092  0.00  0.00    -0.494 OA
ATOM     35  C   UNL     1      -5.043  -2.266   7.973  0.00  0.00    +0.277 C 
ENDBRANCH  33  34
ENDBRANCH  23  32
ENDBRANCH  21  25
ENDBRANCH  19  21
ENDBRANCH   1  19
TORSDOF 7
