REMARK  Name = ZINC67064650
REMARK  5 active torsions:
REMARK  status: ('A' for Active; 'I' for Inactive)
REMARK    1  A    between atoms: C_1  and  C_2
REMARK    2  A    between atoms: C_2  and  C_4
REMARK    3  A    between atoms: C_2  and  N_12
REMARK    4  A    between atoms: C_4  and  C_5
REMARK    5  A    between atoms: C_19  and  C_22
REMARK                            x       y       z     vdW  Elec       q    Type
REMARK                         _______ _______ _______ _____ _____    ______ ____
ROOT
ATOM      1  N   UNL     1       0.709  -0.493   1.188  0.00  0.00    -0.296 N 
ATOM      2  C   UNL     1       0.051  -0.633   2.355  0.00  0.00    +0.303 C 
ATOM      3  O   UNL     1      -1.106  -0.272   2.448  0.00  0.00    -0.253 OA
ATOM      4  N   UNL     1       0.676  -1.174   3.420  0.00  0.00    -0.281 N 
ATOM      5  C   UNL     1       2.108  -1.508   3.369  0.00  0.00    +0.137 C 
ATOM      6  C   UNL     1       2.791  -0.896   4.597  0.00  0.00    +0.179 C 
ATOM      7  O   UNL     1       2.088  -1.296   5.776  0.00  0.00    -0.369 OA
ATOM      8  C   UNL     1       0.735  -0.838   5.833  0.00  0.00    +0.168 C 
ATOM      9  C   UNL     1      -0.053  -1.442   4.670  0.00  0.00    +0.145 C 
ATOM     10  H   UNL     1       1.652  -0.715   1.133  0.00  0.00    +0.151 HD
ENDROOT
BRANCH   8  11
ATOM     11  C   UNL     1       0.115  -1.263   7.139  0.00  0.00    +0.018 A 
ATOM     12  C   UNL     1       0.610  -2.362   7.814  0.00  0.00    +0.009 A 
ATOM     13  C   UNL     1       0.041  -2.752   9.012  0.00  0.00    +0.001 A 
ATOM     14  C   UNL     1      -1.023  -2.043   9.537  0.00  0.00    +0.003 A 
ATOM     15  C   UNL     1      -1.520  -0.943   8.864  0.00  0.00    +0.039 A 
ATOM     16  C   UNL     1      -0.948  -0.548   7.666  0.00  0.00    +0.129 A 
ATOM     17  F   UNL     1      -1.429   0.530   7.010  0.00  0.00    -0.205 F 
ENDBRANCH   8  11
BRANCH   1  19
ATOM     18  C   UNL     1      -0.015   1.522   0.007  0.00  0.00    +0.028 C 
ATOM     19  C   UNL     1       0.001  -0.007   0.001  0.00  0.00    +0.076 C 
BRANCH  19  20
ATOM     20  C   UNL     1       0.713  -0.505  -1.258  0.00  0.00    +0.060 C 
BRANCH  20  21
ATOM     21  C   UNL     1       0.621  -2.008  -1.326  0.00  0.00    -0.010 A 
ATOM     22  C   UNL     1       1.649  -2.787  -0.830  0.00  0.00    +0.006 A 
ATOM     23  C   UNL     1       1.565  -4.165  -0.892  0.00  0.00    +0.000 A 
ATOM     24  C   UNL     1       0.452  -4.766  -1.452  0.00  0.00    +0.003 A 
ATOM     25  C   UNL     1      -0.577  -3.990  -1.948  0.00  0.00    +0.038 A 
ATOM     26  C   UNL     1      -0.496  -2.609  -1.881  0.00  0.00    +0.127 A 
ATOM     27  F   UNL     1      -1.504  -1.849  -2.362  0.00  0.00    -0.205 F 
ENDBRANCH  20  21
ENDBRANCH  19  20
ENDBRANCH   1  19
TORSDOF 4
