REMARK  Name = ZINC59410089
REMARK  6 active torsions:
REMARK  status: ('A' for Active; 'I' for Inactive)
REMARK    1  A    between atoms: C_1  and  C_2
REMARK    2  A    between atoms: C_6  and  N_9
REMARK    3  A    between atoms: C_7  and  C_8
REMARK    4  A    between atoms: N_12  and  C_15
REMARK    5  A    between atoms: C_15  and  C_16
REMARK    6  A    between atoms: C_23  and  C_36
REMARK                            x       y       z     vdW  Elec       q    Type
REMARK                         _______ _______ _______ _____ _____    ______ ____
ROOT
ATOM      1  C   UNL     1       1.214  -3.746   7.240  0.00  0.00    +0.118 C 
ATOM      2  C   UNL     1       1.343  -3.500   8.744  0.00  0.00    +0.045 C 
ATOM      3  C   UNL     1       0.557  -2.366   9.324  0.00  0.00    +0.015 C 
ATOM      4  C   UNL     1      -0.919  -2.652   9.582  0.00  0.00    +0.030 C 
ATOM      5  C   UNL     1      -1.066  -3.946  10.386  0.00  0.00    -0.023 C 
ATOM      6  C   UNL     1      -0.416  -3.806  11.756  0.00  0.00    +0.007 C 
ATOM      7  C   UNL     1      -1.072  -2.689  12.565  0.00  0.00    +0.003 C 
ATOM      8  C   UNL     1      -0.945  -1.356  11.828  0.00  0.00    +0.037 C 
ATOM      9  C   UNL     1      -1.491  -1.489  10.408  0.00  0.00    +0.096 C 
ATOM     10  C   UNL     1      -2.914  -1.027  10.119  0.00  0.00    +0.196 C 
ATOM     11  O   UNL     1      -1.772  -0.277   9.700  0.00  0.00    -0.368 OA
ATOM     12  C   UNL     1      -0.435  -5.093   9.602  0.00  0.00    +0.052 C 
ATOM     13  C   UNL     1       1.057  -4.876   9.369  0.00  0.00    +0.181 C 
ATOM     14  O   UNL     1       1.435  -5.792   8.304  0.00  0.00    -0.461 OA
ATOM     15  C   UNL     1       0.999  -5.251   7.145  0.00  0.00    +0.312 C 
ATOM     16  O   UNL     1       0.528  -5.846   6.210  0.00  0.00    -0.250 OA
ATOM     17  C   UNL     1      -2.557  -4.269  10.556  0.00  0.00    +0.011 C 
ENDROOT
BRANCH   1  18
ATOM     18  C   UNL     1       0.065  -2.992   6.583  0.00  0.00    +0.099 C 
BRANCH  18  22
ATOM     19  N   UNL     1       0.051  -2.796   2.390  0.00  0.00    -0.327 N 
ATOM     20  C   UNL     1      -1.203  -3.201   3.044  0.00  0.00    +0.120 C 
ATOM     21  C   UNL     1      -1.157  -2.746   4.507  0.00  0.00    +0.103 C 
ATOM     22  N   UNL     1       0.066  -3.259   5.138  0.00  0.00    -0.299 NA
ATOM     23  C   UNL     1       1.268  -2.704   4.501  0.00  0.00    +0.103 C 
ATOM     24  C   UNL     1       1.322  -3.162   3.035  0.00  0.00    +0.120 C 
BRANCH  19  30
ATOM     25  C   UNL     1      -0.018   1.503   0.010  0.00  0.00    +0.044 C 
ATOM     26  C   UNL     1       0.002  -0.004   0.002  0.00  0.00    -0.046 A 
ATOM     27  C   UNL     1       0.006  -0.688  -1.200  0.00  0.00    +0.004 A 
ATOM     28  C   UNL     1       0.024  -2.071  -1.212  0.00  0.00    +0.002 A 
ATOM     29  C   UNL     1       0.039  -2.773  -0.023  0.00  0.00    +0.023 A 
ATOM     30  C   UNL     1       0.036  -2.089   1.186  0.00  0.00    +0.033 A 
ATOM     31  C   UNL     1       0.023  -0.700   1.194  0.00  0.00    -0.027 A 
ATOM     32  C   UNL     1       0.025   0.046   2.504  0.00  0.00    +0.046 C 
ENDBRANCH  19  30
ENDBRANCH  18  22
ENDBRANCH   1  18
TORSDOF 3
