REMARK  Name = ZINC36570247
REMARK  17 active torsions:
REMARK  status: ('A' for Active; 'I' for Inactive)
REMARK    1  A    between atoms: C_1  and  C_2
REMARK    2  A    between atoms: C_2  and  C_3
REMARK    3  A    between atoms: C_3  and  N_4
REMARK    4  A    between atoms: N_4  and  C_5
REMARK    5  A    between atoms: C_5  and  C_7
REMARK    6  A    between atoms: C_5  and  C_16
REMARK    7  A    between atoms: C_10  and  N_13
REMARK    8  A    between atoms: N_18  and  C_19
REMARK    9  A    between atoms: C_19  and  C_20
REMARK   10  A    between atoms: C_19  and  C_21
REMARK   11  A    between atoms: C_19  and  C_22
REMARK   12  A    between atoms: C_22  and  C_23
REMARK   13  A    between atoms: C_23  and  C_24
REMARK   14  A    between atoms: C_23  and  C_25
REMARK   15  A    between atoms: C_23  and  C_26
REMARK   16  A    between atoms: C_27  and  C_29
REMARK   17  A    between atoms: C_31  and  N_36
REMARK                            x       y       z     vdW  Elec       q    Type
REMARK                         _______ _______ _______ _____ _____    ______ ____
ROOT
ATOM      1  C   UNL     1       1.044   0.727   1.863  0.00  0.00    +0.192 C 
ENDROOT
BRANCH   1   2
ATOM      2  C   UNL     1      -0.371   1.067   2.253  0.00  0.00    -0.018 A 
ATOM      3  C   UNL     1      -0.668   2.321   2.754  0.00  0.00    +0.008 A 
ATOM      4  C   UNL     1      -1.966   2.633   3.112  0.00  0.00    +0.033 A 
ATOM      5  C   UNL     1      -2.968   1.691   2.970  0.00  0.00    +0.126 A 
ATOM      6  C   UNL     1      -2.672   0.438   2.469  0.00  0.00    +0.033 A 
ATOM      7  C   UNL     1      -1.374   0.127   2.106  0.00  0.00    +0.008 A 
BRANCH   5   8
ATOM      8  N   UNL     1      -4.358   2.025   3.354  0.00  0.00    +0.056 N 
ATOM      9  O   UNL     1      -4.617   3.122   3.793  0.00  0.00    -0.126 OA
ATOM     10  O   UNL     1      -5.234   1.202   3.230  0.00  0.00    -0.126 OA
ENDBRANCH   5   8
ENDBRANCH   1   2
BRANCH   1  11
ATOM     11  C   UNL     1       1.912   0.699   3.094  0.00  0.00    +0.239 C 
ATOM     12  O   UNL     1       2.862   1.446   3.183  0.00  0.00    -0.273 OA
ATOM     13  N   UNL     1       1.631  -0.158   4.097  0.00  0.00    -0.308 N 
ATOM     14  H   UNL     1       0.871  -0.755   4.026  0.00  0.00    +0.149 HD
BRANCH  13  15
ATOM     15  C   UNL     1       2.475  -0.185   5.294  0.00  0.00    +0.030 C 
ATOM     16  C   UNL     1       3.869  -0.697   4.924  0.00  0.00    +0.031 C 
ATOM     17  C   UNL     1       2.587   1.227   5.872  0.00  0.00    +0.031 C 
BRANCH  15  18
ATOM     18  C   UNL     1       1.851  -1.114   6.337  0.00  0.00    +0.031 C 
BRANCH  18  19
ATOM     19  C   UNL     1       0.390  -1.382   5.972  0.00  0.00    -0.036 C 
ATOM     20  C   UNL     1       0.325  -2.428   4.857  0.00  0.00    +0.010 C 
ATOM     21  C   UNL     1      -0.357  -1.901   7.203  0.00  0.00    +0.010 C 
ATOM     22  C   UNL     1      -0.262  -0.084   5.491  0.00  0.00    +0.010 C 
ENDBRANCH  18  19
ENDBRANCH  15  18
ENDBRANCH  13  15
ENDBRANCH   1  11
BRANCH   1  23
ATOM     23  N   UNL     1       1.550   1.738   0.932  0.00  0.00    -0.282 N 
ATOM     24  C   UNL     1       2.756   1.577   0.353  0.00  0.00    +0.251 C 
ATOM     25  O   UNL     1       3.182   2.423  -0.410  0.00  0.00    -0.270 OA
BRANCH  24  26
ATOM     26  C   UNL     1       3.561   0.376   0.645  0.00  0.00    +0.086 A 
ATOM     27  C   UNL     1       3.078  -0.595   1.526  0.00  0.00    +0.049 A 
ATOM     28  C   UNL     1       3.834  -1.716   1.795  0.00  0.00    +0.127 A 
ATOM     29  C   UNL     1       5.072  -1.884   1.195  0.00  0.00    +0.036 A 
ATOM     30  C   UNL     1       5.561  -0.932   0.323  0.00  0.00    +0.054 A 
ATOM     31  C   UNL     1       4.810   0.199   0.036  0.00  0.00    +0.191 A 
ATOM     32  O   UNL     1       5.287   1.132  -0.825  0.00  0.00    -0.287 OA
BRANCH  28  33
ATOM     33  N   UNL     1       3.322  -2.743   2.729  0.00  0.00    +0.056 N 
ATOM     34  O   UNL     1       2.243  -2.599   3.254  0.00  0.00    -0.126 OA
ATOM     35  O   UNL     1       3.983  -3.727   2.966  0.00  0.00    -0.126 OA
ENDBRANCH  28  33
ENDBRANCH  24  26
BRANCH  23  36
ATOM     36  C   UNL     1       0.745   2.924   0.630  0.00  0.00    +0.109 C 
BRANCH  36  38
ATOM     37  C   UNL     1      -0.594   4.080  -1.136  0.00  0.00    +0.005 C 
ATOM     38  C   UNL     1       0.350   2.910  -0.849  0.00  0.00    +0.016 C 
ENDBRANCH  36  38
ENDBRANCH  23  36
ENDBRANCH   1  23
TORSDOF 11
