REMARK  Name = ZINC00677607
REMARK  4 active torsions:
REMARK  status: ('A' for Active; 'I' for Inactive)
REMARK    1  A    between atoms: C_1  and  C_2
REMARK    2  A    between atoms: C_2  and  O_3
REMARK    3  A    between atoms: O_3  and  C_4
REMARK    4  A    between atoms: C_7  and  C_10
REMARK                            x       y       z     vdW  Elec       q    Type
REMARK                         _______ _______ _______ _____ _____    ______ ____
ROOT
ATOM      1  C   UNL     1       3.667  -1.967  -0.467  0.00  0.00    +0.128 C 
ATOM      2  C   UNL     1       2.497  -2.766   0.066  0.00  0.00    -0.034 C 
ATOM      3  C   UNL     1       1.349  -2.129   0.377  0.00  0.00    +0.028 C 
ATOM      4  C   UNL     1       1.232  -0.674   0.141  0.00  0.00    +0.014 A 
ATOM      5  C   UNL     1       0.002  -0.004   0.002  0.00  0.00    -0.008 A 
ATOM      6  C   UNL     1      -1.208  -0.688  -0.186  0.00  0.00    +0.009 A 
ATOM      7  C   UNL     1      -2.385  -0.004  -0.197  0.00  0.00    +0.001 A 
ATOM      8  C   UNL     1      -2.408   1.384  -0.083  0.00  0.00    +0.001 A 
ATOM      9  C   UNL     1      -1.250   2.091   0.017  0.00  0.00    +0.008 A 
ATOM     10  C   UNL     1      -0.017   1.415   0.010  0.00  0.00    -0.017 A 
ATOM     11  C   UNL     1       1.194   2.131   0.002  0.00  0.00    +0.010 A 
ATOM     12  C   UNL     1       2.380   1.463   0.017  0.00  0.00    +0.024 A 
ATOM     13  C   UNL     1       2.413   0.072   0.080  0.00  0.00    +0.036 A 
ATOM     14  N   UNL     1       3.627  -0.619   0.114  0.00  0.00    -0.333 N 
ATOM     15  C   UNL     1       0.256  -2.872   1.028  0.00  0.00    +0.164 C 
ATOM     16  O   UNL     1      -0.645  -2.300   1.606  0.00  0.00    -0.292 OA
ATOM     17  C   UNL     1       0.302  -4.386   1.001  0.00  0.00    +0.080 C 
ATOM     18  C   UNL     1       1.745  -4.798   1.323  0.00  0.00    +0.012 C 
ATOM     19  C   UNL     1       2.664  -4.252   0.233  0.00  0.00    +0.034 C 
ATOM     20  H   UNL     1       4.417  -0.223   0.507  0.00  0.00    +0.147 HD
ENDROOT
BRANCH   1  24
ATOM     21  C   UNL     1       3.419  -1.706  -4.726  0.00  0.00    +0.121 A 
ATOM     22  C   UNL     1       4.269  -2.629  -4.134  0.00  0.00    +0.046 A 
ATOM     23  C   UNL     1       4.347  -2.712  -2.758  0.00  0.00    +0.009 A 
ATOM     24  C   UNL     1       3.580  -1.875  -1.969  0.00  0.00    -0.023 A 
ATOM     25  C   UNL     1       2.728  -0.957  -2.555  0.00  0.00    +0.009 A 
ATOM     26  C   UNL     1       2.650  -0.867  -3.932  0.00  0.00    +0.046 A 
BRANCH  21  27
ATOM     27  O   UNL     1       3.339  -1.623  -6.080  0.00  0.00    -0.492 OA
BRANCH  27  29
ATOM     28  C   UNL     1       2.490  -0.704  -8.147  0.00  0.00    +0.048 C 
ATOM     29  C   UNL     1       2.443  -0.649  -6.619  0.00  0.00    +0.225 C 
ENDBRANCH  27  29
ENDBRANCH  21  27
ENDBRANCH   1  24
TORSDOF 3
