REMARK  Name = ZINC41951746
REMARK  5 active torsions:
REMARK  status: ('A' for Active; 'I' for Inactive)
REMARK    1  A    between atoms: C_4  and  N_20
REMARK    2  A    between atoms: C_5  and  N_7
REMARK    3  A    between atoms: C_8  and  C_10
REMARK    4  A    between atoms: N_12  and  C_13
REMARK    5  A    between atoms: C_13  and  C_14
REMARK                            x       y       z     vdW  Elec       q    Type
REMARK                         _______ _______ _______ _____ _____    ______ ____
ROOT
ATOM      1  N   UNL     1       1.235  -2.080  -0.021  0.00  0.00    -0.276 N 
ATOM      2  C   UNL     1       0.295  -2.772   0.653  0.00  0.00    +0.303 C 
ATOM      3  O   UNL     1      -0.621  -2.186   1.192  0.00  0.00    -0.265 OA
ATOM      4  H   UNL     1       1.930  -2.551  -0.506  0.00  0.00    +0.155 HD
ENDROOT
BRANCH   1   9
ATOM      5  C   UNL     1      -0.033   1.372  -0.012  0.00  0.00    +0.002 A 
ATOM      6  C   UNL     1       1.150   2.090  -0.025  0.00  0.00    +0.002 A 
ATOM      7  C   UNL     1       2.364   1.429  -0.037  0.00  0.00    +0.025 A 
ATOM      8  C   UNL     1       2.399   0.043  -0.036  0.00  0.00    +0.051 A 
ATOM      9  C   UNL     1       1.206  -0.681  -0.022  0.00  0.00    +0.055 A 
ATOM     10  C   UNL     1      -0.007  -0.010  -0.010  0.00  0.00    +0.025 A 
BRANCH   8  11
ATOM     11  N   UNL     1       3.627  -0.628  -0.048  0.00  0.00    -0.328 N 
ATOM     12  C   UNL     1       4.273  -0.983  -1.319  0.00  0.00    +0.105 C 
ATOM     13  C   UNL     1       5.703  -0.434  -1.315  0.00  0.00    +0.019 C 
ATOM     14  C   UNL     1       6.437  -0.943  -0.073  0.00  0.00    +0.003 C 
ATOM     15  C   UNL     1       5.724  -0.441   1.185  0.00  0.00    +0.019 C 
ATOM     16  C   UNL     1       4.297  -0.985   1.209  0.00  0.00    +0.105 C 
ENDBRANCH   8  11
ENDBRANCH   1   9
BRANCH   2  17
ATOM     17  C   UNL     1       0.382  -4.261   0.738  0.00  0.00    +0.300 C 
ATOM     18  O   UNL     1       1.298  -4.847   0.199  0.00  0.00    -0.265 OA
ATOM     19  N   UNL     1      -0.558  -4.953   1.412  0.00  0.00    -0.303 N 
ATOM     20  H   UNL     1      -1.290  -4.485   1.842  0.00  0.00    +0.149 HD
BRANCH  19  21
ATOM     21  C   UNL     1      -0.473  -6.413   1.495  0.00  0.00    +0.147 C 
BRANCH  21  22
ATOM     22  C   UNL     1      -1.635  -6.939   2.298  0.00  0.00    +0.008 A 
ATOM     23  C   UNL     1      -2.861  -7.325   1.871  0.00  0.00    +0.014 A 
ATOM     24  C   UNL     1      -3.781  -7.780   2.797  0.00  0.00    +0.028 A 
ATOM     25  C   UNL     1      -3.428  -7.827   4.106  0.00  0.00    +0.078 A 
ATOM     26  S   UNL     1      -1.749  -7.223   4.057  0.00  0.00    -0.080 S 
ATOM     27 CL   UNL     1      -4.363  -8.345   5.473  0.00  0.00    -0.076 Cl
ENDBRANCH  21  22
ENDBRANCH  19  21
ENDBRANCH   2  17
TORSDOF 5
