REMARK  Name = ZINC32542341
REMARK  9 active torsions:
REMARK  status: ('A' for Active; 'I' for Inactive)
REMARK    1  A    between atoms: C_1  and  C_2
REMARK    2  A    between atoms: C_9  and  C_14
REMARK    3  A    between atoms: C_14  and  N_15
REMARK    4  A    between atoms: N_15  and  C_16
REMARK    5  A    between atoms: N_15  and  C_17
REMARK    6  A    between atoms: C_17  and  C_19
REMARK    7  A    between atoms: C_17  and  C_20
REMARK    8  A    between atoms: C_23  and  S_26
REMARK    9  A    between atoms: S_26  and  N_29
REMARK                            x       y       z     vdW  Elec       q    Type
REMARK                         _______ _______ _______ _____ _____    ______ ____
ROOT
ATOM      1  N   UNL     1      -3.614   4.462   4.736  0.00  0.00    +0.385 N 
ATOM      2  C   UNL     1      -4.461   4.592   3.542  0.00  0.00    -0.095 C 
ATOM      3  H   UNL     1      -2.732   5.104   4.596  0.00  0.00    -0.081 HD
ENDROOT
BRANCH   1   4
ATOM      4  C   UNL     1      -3.144   3.080   4.900  0.00  0.00    -0.041 C 
ATOM      5  C   UNL     1      -2.189   3.005   6.093  0.00  0.00    -0.008 C 
BRANCH   4   6
ATOM      6  C   UNL     1      -2.423   2.642   3.651  0.00  0.00    -0.061 A 
ATOM      7  C   UNL     1      -2.600   1.361   3.165  0.00  0.00    +0.004 A 
ATOM      8  C   UNL     1      -1.939   0.959   2.019  0.00  0.00    +0.029 A 
ATOM      9  C   UNL     1      -1.102   1.840   1.359  0.00  0.00    +0.105 A 
ATOM     10  C   UNL     1      -0.922   3.120   1.849  0.00  0.00    +0.029 A 
ATOM     11  C   UNL     1      -1.586   3.523   2.992  0.00  0.00    +0.004 A 
BRANCH   9  12
ATOM     12  S   UNL     1      -0.259   1.329  -0.101  0.00  0.00    +0.056 S 
ATOM     13  O   UNL     1      -0.168  -0.088  -0.042  0.00  0.00    -0.153 OA
ATOM     14  O   UNL     1       0.885   2.162  -0.223  0.00  0.00    -0.153 OA
BRANCH  12  15
ATOM     15  N   UNL     1      -1.243   1.686  -1.385  0.00  0.00    -0.204 NA
ATOM     16  H   UNL     1      -0.751   1.381  -2.320  0.00  0.00    +0.144 HD
ATOM     17  H   UNL     1      -1.436   2.769  -1.408  0.00  0.00    +0.144 HD
ENDBRANCH  12  15
ENDBRANCH   9  12
ENDBRANCH   4   6
ENDBRANCH   1   4
BRANCH   1  18
ATOM     18  C   UNL     1      -4.323   4.923   5.937  0.00  0.00    -0.042 C 
BRANCH  18  27
ATOM     19  C   UNL     1      -0.492  10.343   6.461  0.00  0.00    +0.045 C 
ATOM     20  C   UNL     1      -1.573   9.307   6.292  0.00  0.00    -0.029 A 
ATOM     21  C   UNL     1      -2.862   9.705   6.005  0.00  0.00    +0.051 A 
ATOM     22  C   UNL     1      -3.864   8.755   5.852  0.00  0.00    +0.140 A 
ATOM     23  C   UNL     1      -3.550   7.391   5.982  0.00  0.00    +0.020 A 
ATOM     24  C   UNL     1      -2.237   7.001   6.262  0.00  0.00    +0.032 A 
ATOM     25  C   UNL     1      -1.259   7.960   6.415  0.00  0.00    +0.045 A 
ATOM     26 CL   UNL     1       0.373   7.482   6.762  0.00  0.00    -0.083 Cl
ATOM     27  C   UNL     1      -4.614   6.397   5.814  0.00  0.00    -0.046 A 
ATOM     28  C   UNL     1      -5.869   6.840   5.549  0.00  0.00    +0.094 A 
ATOM     29  C   UNL     1      -6.115   8.226   5.438  0.00  0.00    +0.337 A 
ATOM     30  O   UNL     1      -7.245   8.611   5.201  0.00  0.00    -0.245 OA
ATOM     31  O   UNL     1      -5.134   9.130   5.588  0.00  0.00    -0.422 OA
ENDBRANCH  18  27
ENDBRANCH   1  18
TORSDOF 6
