REMARK  Name = ZINC15234818
REMARK  13 active torsions:
REMARK  status: ('A' for Active; 'I' for Inactive)
REMARK    1  A    between atoms: C_1  and  C_2
REMARK    2  A    between atoms: C_5  and  C_35
REMARK    3  A    between atoms: C_6  and  O_9
REMARK    4  A    between atoms: C_7  and  C_8
REMARK    5  A    between atoms: O_9  and  C_10
REMARK    6  A    between atoms: C_10  and  C_11
REMARK    7  A    between atoms: C_11  and  C_13
REMARK    8  A    between atoms: C_11  and  O_34
REMARK    9  A    between atoms: C_13  and  N_14
REMARK   10  A    between atoms: C_17  and  C_21
REMARK   11  A    between atoms: C_17  and  C_22
REMARK   12  A    between atoms: C_27  and  O_32
REMARK   13  A    between atoms: O_32  and  C_33
REMARK                            x       y       z     vdW  Elec       q    Type
REMARK                         _______ _______ _______ _____ _____    ______ ____
ROOT
ATOM      1  N   UNL     1       1.213   1.869   0.001  0.00  0.00    -0.221 N 
ATOM      2  C   UNL     1       2.164   0.914  -0.014  0.00  0.00    +0.251 C 
ATOM      3  O   UNL     1       3.365   1.077  -0.025  0.00  0.00    -0.272 OA
ATOM      4  C   UNL     1       1.419  -0.406  -0.014  0.00  0.00    +0.135 C 
ATOM      5  N   UNL     1       0.002  -0.004   0.002  0.00  0.00    -0.281 N 
ATOM      6  C   UNL     1      -0.016   1.341   0.009  0.00  0.00    +0.310 C 
ATOM      7  O   UNL     1      -1.036   2.003   0.018  0.00  0.00    -0.252 OA
ATOM      8  C   UNL     1       1.738  -1.204  -1.279  0.00  0.00    +0.047 C 
ATOM      9  H   UNL     1      -0.768  -0.594   0.006  0.00  0.00    +0.152 HD
ENDROOT
BRANCH   4  10
ATOM     10  C   UNL     1       1.757  -1.206   1.218  0.00  0.00    -0.015 A 
ATOM     11  C   UNL     1       3.042  -1.132   1.753  0.00  0.00    +0.007 A 
ATOM     12  C   UNL     1       3.380  -1.841   2.865  0.00  0.00    +0.009 A 
ATOM     13  C   UNL     1       2.421  -2.660   3.485  0.00  0.00    -0.014 A 
ATOM     14  C   UNL     1       2.733  -3.406   4.634  0.00  0.00    +0.054 A 
ATOM     15  C   UNL     1       1.776  -4.191   5.210  0.00  0.00    +0.121 A 
ATOM     16  C   UNL     1       0.488  -4.264   4.671  0.00  0.00    +0.046 A 
ATOM     17  C   UNL     1       0.154  -3.555   3.559  0.00  0.00    +0.012 A 
ATOM     18  C   UNL     1       1.114  -2.736   2.940  0.00  0.00    -0.017 A 
ATOM     19  C   UNL     1       0.801  -1.985   1.795  0.00  0.00    +0.014 A 
BRANCH  15  20
ATOM     20  O   UNL     1       2.080  -4.912   6.321  0.00  0.00    -0.495 OA
ATOM     21  C   UNL     1       1.038  -5.715   6.878  0.00  0.00    +0.277 C 
ENDBRANCH  15  20
ENDBRANCH   4  10
BRANCH   1  22
ATOM     22  C   UNL     1       1.491   3.307   0.005  0.00  0.00    +0.152 C 
BRANCH  22  23
ATOM     23  C   UNL     1       1.602   3.801   1.448  0.00  0.00    +0.170 C 
BRANCH  23  24
ATOM     24  O   UNL     1       0.373   3.552   2.133  0.00  0.00    -0.387 OA
ATOM     25  H   UNL     1      -0.393   3.992   1.739  0.00  0.00    +0.210 HD
ENDBRANCH  23  24
BRANCH  23  26
ATOM     26  C   UNL     1       1.892   5.303   1.453  0.00  0.00    +0.262 C 
BRANCH  26  27
ATOM     27  O   UNL     1       2.111   5.742   2.795  0.00  0.00    -0.489 OA
BRANCH  27  33
ATOM     28  C   UNL     1       5.397   9.338   3.110  0.00  0.00    +0.044 C 
ATOM     29  C   UNL     1       3.971   8.850   3.136  0.00  0.00    -0.044 A 
ATOM     30  C   UNL     1       2.939   9.746   3.344  0.00  0.00    +0.004 A 
ATOM     31  C   UNL     1       1.630   9.303   3.369  0.00  0.00    +0.007 A 
ATOM     32  C   UNL     1       1.350   7.962   3.185  0.00  0.00    -0.009 A 
ATOM     33  C   UNL     1       2.384   7.061   2.976  0.00  0.00    +0.127 A 
ATOM     34  C   UNL     1       3.697   7.508   2.957  0.00  0.00    -0.006 A 
ATOM     35  C   UNL     1       4.823   6.532   2.736  0.00  0.00    +0.048 C 
ATOM     36  C   UNL     1      -0.077   7.479   3.213  0.00  0.00    +0.047 C 
ENDBRANCH  27  33
ENDBRANCH  26  27
ENDBRANCH  23  26
ENDBRANCH  22  23
ENDBRANCH   1  22
TORSDOF 8
