REMARK  Name = ZINC34756130
REMARK  9 active torsions:
REMARK  status: ('A' for Active; 'I' for Inactive)
REMARK    1  A    between atoms: C_1  and  C_2
REMARK    2  A    between atoms: C_2  and  C_3
REMARK    3  A    between atoms: C_3  and  C_4
REMARK    4  A    between atoms: C_4  and  S_5
REMARK    5  A    between atoms: S_5  and  C_6
REMARK    6  A    between atoms: N_22  and  C_25
REMARK    7  A    between atoms: C_25  and  C_26
REMARK    8  A    between atoms: C_29  and  C_33
REMARK    9  A    between atoms: C_31  and  C_32
REMARK                            x       y       z     vdW  Elec       q    Type
REMARK                         _______ _______ _______ _____ _____    ______ ____
ROOT
ATOM      1  C   UNL     1       0.201  -5.365  -2.657  0.00  0.00    +0.191 A 
ATOM      2  N   UNL     1       0.797  -6.077  -3.607  0.00  0.00    -0.206 NA
ATOM      3  C   UNL     1       2.067  -6.436  -3.523  0.00  0.00    +0.134 A 
ATOM      4  C   UNL     1       2.826  -6.050  -2.383  0.00  0.00    +0.051 A 
ATOM      5  C   UNL     1       4.231  -6.332  -2.079  0.00  0.00    -0.025 A 
ATOM      6  C   UNL     1       4.715  -5.847  -0.919  0.00  0.00    -0.004 A 
ATOM      7  S   UNL     1       3.353  -4.997  -0.168  0.00  0.00    -0.073 S 
ATOM      8  C   UNL     1       2.130  -5.296  -1.417  0.00  0.00    +0.115 A 
ATOM      9  N   UNL     1       0.860  -4.973  -1.575  0.00  0.00    -0.215 NA
ATOM     10  C   UNL     1       6.106  -5.998  -0.382  0.00  0.00    +0.043 C 
ATOM     11  C   UNL     1       6.813  -7.108  -1.174  0.00  0.00    +0.005 C 
ATOM     12  C   UNL     1       6.585  -6.866  -2.669  0.00  0.00    +0.005 C 
ATOM     13  C   UNL     1       5.122  -7.137  -3.021  0.00  0.00    +0.037 C 
ATOM     14  N   UNL     1       2.652  -7.178  -4.534  0.00  0.00    -0.318 N 
ATOM     15  C   UNL     1       2.736  -8.644  -4.443  0.00  0.00    +0.088 C 
ATOM     16  C   UNL     1       2.195  -9.242  -5.746  0.00  0.00    -0.059 C 
ATOM     17  N   UNL     1       2.915  -8.663  -6.886  0.00  0.00    +0.384 N 
ATOM     18  C   UNL     1       2.643  -7.222  -6.971  0.00  0.00    -0.059 C 
ATOM     19  C   UNL     1       3.202  -6.524  -5.731  0.00  0.00    +0.088 C 
ATOM     20  H   UNL     1       3.906  -8.810  -6.766  0.00  0.00    -0.081 HD
ENDROOT
BRANCH   1  21
ATOM     21  S   UNL     1      -1.496  -4.927  -2.842  0.00  0.00    -0.086 S 
BRANCH  21  22
ATOM     22  C   UNL     1      -1.868  -3.974  -1.344  0.00  0.00    +0.077 C 
BRANCH  22  23
ATOM     23  C   UNL     1      -3.331  -3.525  -1.375  0.00  0.00    +0.011 C 
BRANCH  23  25
ATOM     24  C   UNL     1      -5.107  -2.273  -0.144  0.00  0.00    +0.004 C 
ATOM     25  C   UNL     1      -3.645  -2.722  -0.112  0.00  0.00    -0.003 C 
ENDBRANCH  23  25
ENDBRANCH  22  23
ENDBRANCH  21  22
ENDBRANCH   1  21
BRANCH  17  26
ATOM     26  C   UNL     1       2.474  -9.316  -8.126  0.00  0.00    -0.043 C 
BRANCH  26  27
ATOM     27  C   UNL     1       3.298  -8.810  -9.281  0.00  0.00    -0.061 A 
ATOM     28  C   UNL     1       2.792  -7.831 -10.116  0.00  0.00    +0.002 A 
ATOM     29  C   UNL     1       3.548  -7.368 -11.176  0.00  0.00    +0.003 A 
ATOM     30  C   UNL     1       4.811  -7.883 -11.402  0.00  0.00    -0.050 A 
ATOM     31  C   UNL     1       5.318  -8.861 -10.567  0.00  0.00    +0.007 A 
ATOM     32  C   UNL     1       4.563  -9.322  -9.504  0.00  0.00    -0.049 A 
ATOM     33  C   UNL     1       5.117 -10.384  -8.591  0.00  0.00    +0.044 C 
ATOM     34  C   UNL     1       5.635  -7.378 -12.558  0.00  0.00    +0.044 C 
ENDBRANCH  26  27
ENDBRANCH  17  26
TORSDOF 6
