REMARK  Name = ZINC39491746
REMARK  15 active torsions:
REMARK  status: ('A' for Active; 'I' for Inactive)
REMARK    1  A    between atoms: C_1  and  C_2
REMARK    2  A    between atoms: C_2  and  C_3
REMARK    3  A    between atoms: C_2  and  C_4
REMARK    4  A    between atoms: C_4  and  N_5
REMARK    5  A    between atoms: N_5  and  C_6
REMARK    6  A    between atoms: C_6  and  C_7
REMARK    7  A    between atoms: N_9  and  C_20
REMARK    8  A    between atoms: C_13  and  C_16
REMARK    9  A    between atoms: C_16  and  O_18
REMARK   10  A    between atoms: O_18  and  C_19
REMARK   11  A    between atoms: C_20  and  C_21
REMARK   12  A    between atoms: C_21  and  C_23
REMARK   13  A    between atoms: C_21  and  S_30
REMARK   14  A    between atoms: C_28  and  O_29
REMARK   15  A    between atoms: S_30  and  C_33
REMARK                            x       y       z     vdW  Elec       q    Type
REMARK                         _______ _______ _______ _____ _____    ______ ____
ROOT
ATOM      1  C   UNL     1      -2.732  -3.694  -1.183  0.00  0.00    -0.039 A 
ATOM      2  C   UNL     1      -3.157  -4.556  -2.119  0.00  0.00    +0.088 A 
ATOM      3  N   UNL     1      -2.867  -5.838  -1.741  0.00  0.00    -0.344 N 
ATOM      4  C   UNL     1      -2.233  -5.836  -0.522  0.00  0.00    +0.049 A 
ATOM      5  C   UNL     1      -2.114  -4.491  -0.119  0.00  0.00    +0.002 A 
ATOM      6  C   UNL     1      -1.499  -4.178   1.090  0.00  0.00    +0.025 A 
ATOM      7  C   UNL     1      -1.003  -5.204   1.890  0.00  0.00    +0.060 A 
ATOM      8  C   UNL     1      -1.124  -6.538   1.476  0.00  0.00    +0.017 A 
ATOM      9  C   UNL     1      -1.733  -6.848   0.296  0.00  0.00    +0.027 A 
ENDROOT
BRANCH   7  10
ATOM     10  C   UNL     1      -0.349  -4.887   3.174  0.00  0.00    +0.339 C 
ATOM     11  O   UNL     1      -0.243  -3.732   3.533  0.00  0.00    -0.245 OA
BRANCH  10  12
ATOM     12  O   UNL     1       0.132  -5.880   3.948  0.00  0.00    -0.464 OA
ATOM     13  C   UNL     1       0.753  -5.501   5.178  0.00  0.00    +0.280 C 
ENDBRANCH  10  12
ENDBRANCH   7  10
BRANCH   1  14
ATOM     14  C   UNL     1      -2.861  -2.193  -1.219  0.00  0.00    -0.045 C 
BRANCH  14  15
ATOM     15  N   UNL     1      -1.588  -1.603  -1.654  0.00  0.00    +0.382 N 
ATOM     16  H   UNL     1      -1.356  -1.943  -2.575  0.00  0.00    -0.085 HD
ATOM     17  H   UNL     1      -0.859  -1.862  -1.006  0.00  0.00    -0.085 HD
BRANCH  15  18
ATOM     18  C   UNL     1      -1.713  -0.140  -1.690  0.00  0.00    -0.079 C 
BRANCH  18  20
ATOM     19  C   UNL     1      -0.553   1.988  -2.300  0.00  0.00    +0.005 C 
ATOM     20  C   UNL     1      -0.387   0.475  -2.142  0.00  0.00    -0.034 C 
ATOM     21  C   UNL     1       0.692   0.187  -1.096  0.00  0.00    +0.005 C 
ENDBRANCH  18  20
ENDBRANCH  15  18
ENDBRANCH  14  15
ENDBRANCH   1  14
BRANCH   3  22
ATOM     22  C   UNL     1      -3.186  -7.037  -2.520  0.00  0.00    +0.153 C 
BRANCH  22  23
ATOM     23  C   UNL     1      -4.517  -7.618  -2.040  0.00  0.00    +0.189 C 
BRANCH  23  24
ATOM     24  C   UNL     1      -4.786  -8.917  -2.755  0.00  0.00    +0.020 A 
ATOM     25  C   UNL     1      -5.482  -8.918  -3.948  0.00  0.00    +0.009 A 
ATOM     26  C   UNL     1      -5.729 -10.110  -4.605  0.00  0.00    +0.001 A 
ATOM     27  C   UNL     1      -5.280 -11.303  -4.069  0.00  0.00    +0.004 A 
ATOM     28  C   UNL     1      -4.583 -11.307  -2.877  0.00  0.00    +0.046 A 
ATOM     29  C   UNL     1      -4.329 -10.112  -2.219  0.00  0.00    +0.122 A 
BRANCH  29  30
ATOM     30  O   UNL     1      -3.639 -10.113  -1.048  0.00  0.00    -0.506 OA
ATOM     31  H   UNL     1      -4.196 -10.203  -0.263  0.00  0.00    +0.292 HD
ENDBRANCH  29  30
ENDBRANCH  23  24
BRANCH  23  32
ATOM     32  S   UNL     1      -5.853  -6.444  -2.396  0.00  0.00    +0.006 S 
ATOM     33  O   UNL     1      -5.795  -5.347  -1.495  0.00  0.00    -0.169 OA
ATOM     34  O   UNL     1      -5.953  -6.227  -3.797  0.00  0.00    -0.169 OA
BRANCH  32  35
ATOM     35  C   UNL     1      -7.333  -7.299  -1.968  0.00  0.00    +0.089 A 
ATOM     36  C   UNL     1      -7.988  -8.065  -2.915  0.00  0.00    +0.027 A 
ATOM     37  C   UNL     1      -9.149  -8.736  -2.579  0.00  0.00    +0.002 A 
ATOM     38  C   UNL     1      -9.655  -8.641  -1.296  0.00  0.00    +0.000 A 
ATOM     39  C   UNL     1      -9.001  -7.875  -0.349  0.00  0.00    +0.002 A 
ATOM     40  C   UNL     1      -7.837  -7.208  -0.684  0.00  0.00    +0.027 A 
ENDBRANCH  32  35
ENDBRANCH  23  32
ENDBRANCH  22  23
ENDBRANCH   3  22
TORSDOF 12
