REMARK  Name = ZINC38588852
REMARK  5 active torsions:
REMARK  status: ('A' for Active; 'I' for Inactive)
REMARK    1  A    between atoms: C_1  and  C_2
REMARK    2  A    between atoms: C_2  and  C_3
REMARK    3  A    between atoms: C_4  and  C_26
REMARK    4  A    between atoms: C_21  and  S_24
REMARK    5  A    between atoms: S_24  and  C_25
REMARK                            x       y       z     vdW  Elec       q    Type
REMARK                         _______ _______ _______ _____ _____    ______ ____
ROOT
ATOM      1  C   UNL     1       0.731  -0.503   1.223  0.00  0.00    +0.033 C 
ATOM      2  C   UNL     1       0.143  -0.879   2.399  0.00  0.00    +0.042 C 
ATOM      3  C   UNL     1       1.210  -1.294   3.293  0.00  0.00    +0.147 C 
ATOM      4  N   UNL     1       1.177  -1.826   4.505  0.00  0.00    -0.238 NA
ATOM      5  C   UNL     1       2.312  -2.275   5.050  0.00  0.00    +0.124 C 
ATOM      6  C   UNL     1       3.526  -2.088   4.471  0.00  0.00    +0.059 C 
ATOM      7  C   UNL     1       3.682  -1.123   3.317  0.00  0.00    +0.156 C 
ATOM      8  N   UNL     1       2.400  -1.025   2.630  0.00  0.00    -0.225 N 
ATOM      9  N   UNL     1       2.083  -0.658   1.329  0.00  0.00    -0.265 N 
ATOM     10  C   UNL     1       4.777  -1.577   2.407  0.00  0.00    +0.018 C 
ATOM     11  C   UNL     1       5.710  -2.406   2.822  0.00  0.00    +0.085 C 
ATOM     12  N   UNL     1       5.729  -2.905   4.118  0.00  0.00    -0.211 N 
ATOM     13  C   UNL     1       4.672  -2.747   4.949  0.00  0.00    +0.257 C 
ATOM     14  O   UNL     1       4.698  -3.194   6.082  0.00  0.00    -0.269 OA
ATOM     15  C   UNL     1       6.870  -3.568   4.581  0.00  0.00    +0.248 A 
ATOM     16  H   UNL     1       8.707  -5.107   6.577  0.00  0.00    +0.191 HD
ATOM     17  N   UNL     1       7.986  -3.779   3.876  0.00  0.00    -0.187 NA
ATOM     18  C   UNL     1       8.860  -4.431   4.614  0.00  0.00    +0.186 A 
ATOM     19  N   UNL     1       8.301  -4.649   5.824  0.00  0.00    -0.252 N 
ATOM     20  N   UNL     1       7.019  -4.079   5.779  0.00  0.00    -0.135 NA
ATOM     21  H   UNL     1       2.721  -0.531   0.610  0.00  0.00    +0.170 HD
ENDROOT
BRANCH   2  22
ATOM     22  C   UNL     1      -1.308  -0.864   2.704  0.00  0.00    -0.013 A 
ATOM     23  C   UNL     1      -2.002   0.344   2.746  0.00  0.00    +0.008 A 
ATOM     24  C   UNL     1      -3.352   0.351   3.030  0.00  0.00    +0.001 A 
ATOM     25  C   UNL     1      -4.017  -0.838   3.273  0.00  0.00    +0.000 A 
ATOM     26  C   UNL     1      -3.333  -2.039   3.233  0.00  0.00    +0.001 A 
ATOM     27  C   UNL     1      -1.984  -2.059   2.945  0.00  0.00    +0.008 A 
ENDBRANCH   2  22
BRANCH   1  29
ATOM     28  C   UNL     1      -0.019   1.526   0.010  0.00  0.00    +0.010 C 
ATOM     29  C   UNL     1       0.002  -0.004   0.002  0.00  0.00    +0.049 C 
ENDBRANCH   1  29
BRANCH  18  30
ATOM     30  S   UNL     1      10.473  -4.931   4.111  0.00  0.00    -0.090 S 
ATOM     31  C   UNL     1      10.602  -4.341   2.401  0.00  0.00    +0.093 C 
ENDBRANCH  18  30
TORSDOF 3
