REMARK  Name = ZINC14460871
REMARK  7 active torsions:
REMARK  status: ('A' for Active; 'I' for Inactive)
REMARK    1  A    between atoms: C_1  and  C_2
REMARK    2  A    between atoms: C_2  and  C_3
REMARK    3  A    between atoms: C_3  and  O_4
REMARK    4  A    between atoms: O_4  and  C_5
REMARK    5  A    between atoms: C_5  and  C_7
REMARK    6  A    between atoms: C_20  and  C_23
REMARK    7  A    between atoms: C_28  and  O_29
REMARK                            x       y       z     vdW  Elec       q    Type
REMARK                         _______ _______ _______ _____ _____    ______ ____
ROOT
ATOM      1  C   UNL     1      -0.123   0.132   0.025  0.00  0.00    +0.059 A 
ATOM      2  C   UNL     1       1.072  -0.594   0.013  0.00  0.00    +0.017 A 
ATOM      3  C   UNL     1       2.265   0.069  -0.001  0.00  0.00    +0.024 A 
ATOM      4  C   UNL     1       2.297   1.462  -0.003  0.00  0.00    +0.031 A 
ATOM      5  C   UNL     1       1.120   2.196   0.012  0.00  0.00    -0.019 A 
ATOM      6  C   UNL     1      -0.091   1.528   0.024  0.00  0.00    +0.021 A 
ATOM      7  C   UNL     1       1.094   3.710   0.007  0.00  0.00    +0.049 C 
ATOM      8  C   UNL     1       0.362   4.142   1.270  0.00  0.00    -0.023 C 
ATOM      9  C   UNL     1       1.217   4.408   2.226  0.00  0.00    -0.030 C 
ATOM     10  C   UNL     1       2.649   4.209   1.739  0.00  0.00    +0.033 C 
ATOM     11  C   UNL     1       2.499   4.308   0.203  0.00  0.00    +0.029 C 
ATOM     12  C   UNL     1       3.569   3.495  -0.502  0.00  0.00    +0.108 C 
ATOM     13  N   UNL     1       3.530   2.110  -0.022  0.00  0.00    -0.336 N 
ATOM     14  H   UNL     1       4.337   1.660   0.273  0.00  0.00    +0.147 HD
ENDROOT
BRANCH  12  15
ATOM     15  C   UNL     1       3.318   3.519  -1.988  0.00  0.00    +0.015 A 
ATOM     16  C   UNL     1       2.744   2.426  -2.610  0.00  0.00    +0.024 A 
ATOM     17  C   UNL     1       2.514   2.447  -3.973  0.00  0.00    +0.018 A 
ATOM     18  C   UNL     1       2.858   3.561  -4.718  0.00  0.00    +0.019 A 
ATOM     19  C   UNL     1       3.432   4.656  -4.101  0.00  0.00    +0.047 A 
ATOM     20  C   UNL     1       3.659   4.639  -2.732  0.00  0.00    +0.122 A 
ATOM     21 BR   UNL     1       1.728   0.951  -4.821  0.00  0.00    -0.050 Br
BRANCH  20  22
ATOM     22  O   UNL     1       4.218   5.717  -2.121  0.00  0.00    -0.506 OA
ATOM     23  H   UNL     1       5.184   5.691  -2.085  0.00  0.00    +0.292 HD
ENDBRANCH  20  22
ENDBRANCH  12  15
BRANCH   1  24
ATOM     24  C   UNL     1      -1.416  -0.575   0.039  0.00  0.00    +0.339 C 
ATOM     25  O   UNL     1      -2.454   0.056   0.049  0.00  0.00    -0.245 OA
BRANCH  24  26
ATOM     26  O   UNL     1      -1.447  -1.923   0.040  0.00  0.00    -0.461 OA
BRANCH  26  27
ATOM     27  C   UNL     1      -2.755  -2.552   0.053  0.00  0.00    +0.232 C 
BRANCH  27  29
ATOM     28  C   UNL     1      -3.968  -4.737   0.066  0.00  0.00    +0.007 C 
ATOM     29  C   UNL     1      -2.589  -4.073   0.052  0.00  0.00    +0.038 C 
ENDBRANCH  27  29
ENDBRANCH  26  27
ENDBRANCH  24  26
ENDBRANCH   1  24
TORSDOF 6
