REMARK  Name = ZINC49500205
REMARK  8 active torsions:
REMARK  status: ('A' for Active; 'I' for Inactive)
REMARK    1  A    between atoms: C_1  and  C_2
REMARK    2  A    between atoms: C_2  and  C_3
REMARK    3  A    between atoms: C_2  and  C_4
REMARK    4  A    between atoms: C_2  and  C_5
REMARK    5  A    between atoms: N_10  and  S_11
REMARK    6  A    between atoms: S_11  and  C_14
REMARK    7  A    between atoms: C_17  and  C_19
REMARK    8  A    between atoms: C_19  and  N_20
REMARK                            x       y       z     vdW  Elec       q    Type
REMARK                         _______ _______ _______ _____ _____    ______ ____
ROOT
ATOM      1  S   UNL     1       2.550  -3.689  -4.454  0.00  0.00    +0.107 S 
ATOM      2  O   UNL     1       1.702  -3.206  -5.487  0.00  0.00    -0.146 OA
ATOM      3  O   UNL     1       3.868  -3.194  -4.257  0.00  0.00    -0.146 OA
ENDROOT
BRANCH   1   9
ATOM      4  C   UNL     1       0.707  -0.490  -1.238  0.00  0.00    +0.030 A 
ATOM      5  C   UNL     1       1.198   0.390  -2.111  0.00  0.00    +0.070 A 
ATOM      6  S   UNL     1       1.910  -0.674  -3.356  0.00  0.00    -0.057 S 
ATOM      7  C   UNL     1       1.493  -2.241  -2.606  0.00  0.00    +0.192 A 
ATOM      8  N   UNL     1       0.847  -1.829  -1.460  0.00  0.00    -0.336 N 
ATOM      9  N   UNL     1       1.740  -3.456  -3.029  0.00  0.00    -0.103 NA
ATOM     10  H   UNL     1       0.497  -2.476  -0.828  0.00  0.00    +0.168 HD
BRANCH   4  12
ATOM     11  C   UNL     1      -0.019   1.526   0.010  0.00  0.00    +0.017 C 
ATOM     12  C   UNL     1       0.002  -0.004   0.002  0.00  0.00    +0.003 C 
ATOM     13  C   UNL     1       0.742  -0.511   1.242  0.00  0.00    +0.017 C 
ATOM     14  C   UNL     1      -1.433  -0.534   0.013  0.00  0.00    +0.017 C 
ENDBRANCH   4  12
ENDBRANCH   1   9
BRANCH   1  15
ATOM     15  C   UNL     1       2.695  -5.428  -4.693  0.00  0.00    +0.150 A 
ATOM     16  C   UNL     1       1.853  -6.275  -5.334  0.00  0.00    +0.037 A 
ATOM     17  C   UNL     1       2.174  -7.618  -5.399  0.00  0.00    +0.011 A 
ATOM     18  C   UNL     1       3.322  -8.048  -4.821  0.00  0.00    -0.026 A 
ATOM     19  S   UNL     1       3.994  -6.532  -4.162  0.00  0.00    -0.075 S 
BRANCH  18  20
ATOM     20  C   UNL     1       3.886  -9.444  -4.757  0.00  0.00    -0.043 C 
BRANCH  20  21
ATOM     21  N   UNL     1       4.750  -9.677  -5.922  0.00  0.00    +0.381 N 
ATOM     22  H   UNL     1       5.128 -10.611  -5.879  0.00  0.00    -0.090 HD
ATOM     23  H   UNL     1       4.210  -9.571  -6.768  0.00  0.00    -0.090 HD
ATOM     24  H   UNL     1       5.505  -9.008  -5.920  0.00  0.00    -0.090 HD
ENDBRANCH  20  21
ENDBRANCH  18  20
ENDBRANCH   1  15
TORSDOF 5
