REMARK  Name = ZINC20560336
REMARK  11 active torsions:
REMARK  status: ('A' for Active; 'I' for Inactive)
REMARK    1  A    between atoms: C_1  and  C_2
REMARK    2  A    between atoms: C_2  and  O_3
REMARK    3  A    between atoms: O_3  and  C_4
REMARK    4  A    between atoms: C_4  and  C_6
REMARK    5  A    between atoms: C_7  and  C_21
REMARK    6  A    between atoms: C_12  and  C_14
REMARK    7  A    between atoms: C_17  and  C_20
REMARK    8  A    between atoms: C_21  and  N_22
REMARK    9  A    between atoms: N_22  and  C_23
REMARK   10  A    between atoms: N_22  and  C_29
REMARK   11  A    between atoms: C_23  and  C_24
REMARK                            x       y       z     vdW  Elec       q    Type
REMARK                         _______ _______ _______ _____ _____    ______ ____
ROOT
ATOM      1  C   UNL     1      -5.538   2.146   3.256  0.00  0.00    +0.076 C 
ATOM      2  C   UNL     1      -4.610   1.222   2.924  0.00  0.00    +0.008 C 
ATOM      3  N   UNL     1      -4.035   0.429   3.875  0.00  0.00    -0.274 N 
ATOM      4  C   UNL     1      -4.336   0.494   5.178  0.00  0.00    +0.304 C 
ATOM      5  O   UNL     1      -3.770  -0.255   5.950  0.00  0.00    -0.252 OA
ATOM      6  N   UNL     1      -5.247   1.361   5.661  0.00  0.00    -0.288 N 
ATOM      7  C   UNL     1      -5.926   2.264   4.716  0.00  0.00    +0.143 C 
ATOM      8  H   UNL     1      -3.278  -0.315   3.586  0.00  0.00    +0.156 HD
ATOM      9  H   UNL     1      -5.488   1.406   6.734  0.00  0.00    +0.151 HD
ENDROOT
BRANCH   7  10
ATOM     10  C   UNL     1      -7.410   2.022   4.827  0.00  0.00    -0.022 A 
ATOM     11  C   UNL     1      -7.892   0.734   4.966  0.00  0.00    +0.006 A 
ATOM     12  C   UNL     1      -9.252   0.513   5.074  0.00  0.00    +0.004 A 
ATOM     13  C   UNL     1     -10.131   1.579   5.031  0.00  0.00    -0.050 A 
ATOM     14  C   UNL     1      -9.649   2.866   4.887  0.00  0.00    +0.004 A 
ATOM     15  C   UNL     1      -8.289   3.088   4.785  0.00  0.00    +0.006 A 
ATOM     16  C   UNL     1     -11.614   1.337   5.142  0.00  0.00    +0.044 C 
ENDBRANCH   7  10
BRANCH   1  17
ATOM     17  C   UNL     1      -6.131   2.973   2.273  0.00  0.00    +0.339 C 
ATOM     18  O   UNL     1      -5.891   2.785   1.095  0.00  0.00    -0.245 OA
BRANCH  17  19
ATOM     19  O   UNL     1      -6.962   3.970   2.641  0.00  0.00    -0.462 OA
BRANCH  19  21
ATOM     20  C   UNL     1      -8.433   5.837   2.203  0.00  0.00    +0.048 C 
ATOM     21  C   UNL     1      -7.524   4.766   1.596  0.00  0.00    +0.229 C 
ENDBRANCH  19  21
ENDBRANCH  17  19
ENDBRANCH   1  17
BRANCH   2  22
ATOM     22  C   UNL     1      -4.199   1.069   1.483  0.00  0.00    -0.025 C 
BRANCH  22  23
ATOM     23  N   UNL     1      -3.593   2.321   1.010  0.00  0.00    +0.390 N 
ATOM     24  H   UNL     1      -4.321   3.130   1.171  0.00  0.00    -0.080 HD
BRANCH  23  25
ATOM     25  C   UNL     1      -2.383   2.643   1.778  0.00  0.00    -0.067 C 
ATOM     26  C   UNL     1      -1.704   1.345   2.262  0.00  0.00    -0.015 C 
ATOM     27  C   UNL     1      -1.168   1.699   3.671  0.00  0.00    -0.002 C 
ATOM     28  C   UNL     1      -2.289   2.600   4.246  0.00  0.00    -0.002 C 
ATOM     29  C   UNL     1      -2.755   3.441   3.039  0.00  0.00    -0.015 C 
ENDBRANCH  23  25
BRANCH  23  30
ATOM     30  C   UNL     1      -3.303   2.255  -0.428  0.00  0.00    -0.002 C 
BRANCH  30  31
ATOM     31  C   UNL     1      -2.904   3.622  -0.923  0.00  0.00    +0.089 A 
ATOM     32  C   UNL     1      -1.656   4.124  -0.926  0.00  0.00    +0.042 A 
ATOM     33  C   UNL     1      -1.739   5.423  -1.478  0.00  0.00    +0.041 A 
ATOM     34  C   UNL     1      -3.033   5.639  -1.774  0.00  0.00    +0.195 A 
ATOM     35  O   UNL     1      -3.735   4.546  -1.433  0.00  0.00    -0.470 OA
ENDBRANCH  30  31
ENDBRANCH  23  30
ENDBRANCH  22  23
ENDBRANCH   2  22
TORSDOF 9
