REMARK  Name = ZINC50249866
REMARK  4 active torsions:
REMARK  status: ('A' for Active; 'I' for Inactive)
REMARK    1  A    between atoms: C_8  and  N_15
REMARK    2  A    between atoms: C_9  and  N_12
REMARK    3  A    between atoms: C_18  and  C_21
REMARK    4  A    between atoms: C_21  and  N_22
REMARK                            x       y       z     vdW  Elec       q    Type
REMARK                         _______ _______ _______ _____ _____    ______ ____
ROOT
ATOM      1  C   UNL     1      -0.017   1.389   0.010  0.00  0.00    +0.017 A 
ATOM      2  C   UNL     1       1.140   2.106   0.003  0.00  0.00    +0.029 A 
ATOM      3  C   UNL     1       2.376   1.438  -0.013  0.00  0.00    +0.073 A 
ATOM      4  C   UNL     1       2.392   0.022  -0.021  0.00  0.00    +0.025 A 
ATOM      5  C   UNL     1       1.183  -0.686  -0.012  0.00  0.00    +0.027 A 
ATOM      6  C   UNL     1       0.002  -0.004   0.002  0.00  0.00    +0.019 A 
ATOM      7 BR   UNL     1      -1.629  -0.961   0.013  0.00  0.00    -0.050 Br
ATOM      8  C   UNL     1       3.639  -0.648  -0.036  0.00  0.00    +0.071 A 
ATOM      9  C   UNL     1       4.790   0.123  -0.043  0.00  0.00    +0.166 A 
ATOM     10  C   UNL     1       4.690   1.508  -0.034  0.00  0.00    +0.146 A 
ATOM     11  N   UNL     1       3.528   2.119  -0.020  0.00  0.00    -0.253 NA
ENDROOT
BRANCH   8  12
ATOM     12  N   UNL     1       3.705  -2.034  -0.043  0.00  0.00    -0.327 N 
ATOM     13  C   UNL     1       3.752  -2.898   1.150  0.00  0.00    +0.105 C 
ATOM     14  C   UNL     1       3.203  -4.265   0.671  0.00  0.00    +0.022 C 
ATOM     15  C   UNL     1       3.786  -4.350  -0.764  0.00  0.00    -0.010 C 
ATOM     16  C   UNL     1       3.735  -2.883  -1.243  0.00  0.00    +0.107 C 
BRANCH  15  17
ATOM     17  C   UNL     1       2.913  -5.240  -1.652  0.00  0.00    -0.081 C 
BRANCH  17  18
ATOM     18  N   UNL     1       2.980  -6.626  -1.171  0.00  0.00    +0.378 N 
ATOM     19  H   UNL     1       3.935  -6.949  -1.206  0.00  0.00    -0.090 HD
ATOM     20  H   UNL     1       2.646  -6.668  -0.220  0.00  0.00    -0.090 HD
ATOM     21  H   UNL     1       2.404  -7.213  -1.756  0.00  0.00    -0.090 HD
ENDBRANCH  17  18
ENDBRANCH  15  17
ENDBRANCH   8  12
BRANCH   9  22
ATOM     22  N   UNL     1       6.120  -0.526  -0.058  0.00  0.00    +0.060 N 
ATOM     23  O   UNL     1       7.122   0.149  -0.064  0.00  0.00    -0.126 OA
ATOM     24  O   UNL     1       6.204  -1.732  -0.065  0.00  0.00    -0.126 OA
ENDBRANCH   9  22
TORSDOF 4
