REMARK  Name = ZINC55806672
REMARK  5 active torsions:
REMARK  status: ('A' for Active; 'I' for Inactive)
REMARK    1  A    between atoms: C_4  and  N_9
REMARK    2  A    between atoms: C_5  and  C_7
REMARK    3  A    between atoms: C_13  and  C_14
REMARK    4  A    between atoms: C_24  and  C_25
REMARK    5  A    between atoms: C_24  and  C_27
REMARK                            x       y       z     vdW  Elec       q    Type
REMARK                         _______ _______ _______ _____ _____    ______ ____
ROOT
ATOM      1  N   UNL     1       3.244  -1.584  -0.152  0.00  0.00    -0.267 N 
ATOM      2  C   UNL     1       3.944  -1.571  -1.274  0.00  0.00    +0.271 A 
ATOM      3  O   UNL     1       3.443  -1.239  -2.333  0.00  0.00    -0.266 OA
ATOM      4  C   UNL     1       5.359  -1.977  -1.184  0.00  0.00    +0.079 A 
ATOM      5  C   UNL     1       6.298  -2.056  -2.162  0.00  0.00    +0.028 C 
ATOM      6  S   UNL     1       5.506  -2.337   0.560  0.00  0.00    -0.064 S 
ATOM      7  C   UNL     1       3.828  -1.956   1.035  0.00  0.00    +0.116 A 
ATOM      8  C   UNL     1       3.248  -2.023   2.304  0.00  0.00    +0.159 C 
ENDROOT
BRANCH   5   9
ATOM      9  C   UNL     1       7.612  -2.646  -1.874  0.00  0.00    -0.021 A 
ATOM     10  C   UNL     1       7.793  -3.435  -0.731  0.00  0.00    +0.011 A 
ATOM     11  C   UNL     1       9.027  -3.986  -0.466  0.00  0.00    +0.042 A 
ATOM     12  C   UNL     1      10.090  -3.762  -1.328  0.00  0.00    +0.158 A 
ATOM     13  C   UNL     1       9.919  -2.981  -2.463  0.00  0.00    +0.159 A 
ATOM     14  C   UNL     1       8.687  -2.428  -2.744  0.00  0.00    +0.049 A 
ATOM     15  F   UNL     1      10.960  -2.767  -3.298  0.00  0.00    -0.202 F 
ATOM     16  F   UNL     1      11.298  -4.306  -1.061  0.00  0.00    -0.202 F 
ENDBRANCH   5   9
BRANCH   1  20
ATOM     17  C   UNL     1      -0.775  -0.463  -0.216  0.00  0.00    +0.001 A 
ATOM     18  C   UNL     1       0.211   0.486  -0.002  0.00  0.00    +0.002 A 
ATOM     19  C   UNL     1       1.542   0.117   0.020  0.00  0.00    +0.027 A 
ATOM     20  C   UNL     1       1.899  -1.210  -0.173  0.00  0.00    +0.068 A 
ATOM     21  C   UNL     1       0.903  -2.173  -0.389  0.00  0.00    +0.076 A 
ATOM     22  C   UNL     1      -0.439  -1.786  -0.409  0.00  0.00    +0.021 A 
BRANCH  21  23
ATOM     23  C   UNL     1       1.260  -3.545  -0.590  0.00  0.00    +0.101 C 
ATOM     24  N   UNL     1       1.542  -4.634  -0.749  0.00  0.00    -0.191 NA
ENDBRANCH  21  23
ENDBRANCH   1  20
BRANCH   8  25
ATOM     25  C   UNL     1       4.032  -2.439   3.428  0.00  0.00    +0.113 C 
ATOM     26  N   UNL     1       4.653  -2.769   4.320  0.00  0.00    -0.190 NA
ENDBRANCH   8  25
BRANCH   8  27
ATOM     27  C   UNL     1       1.871  -1.675   2.481  0.00  0.00    +0.113 C 
ATOM     28  N   UNL     1       0.778  -1.398   2.621  0.00  0.00    -0.190 NA
ENDBRANCH   8  27
TORSDOF 5
