REMARK  Name = ZINC03339318
REMARK  5 active torsions:
REMARK  status: ('A' for Active; 'I' for Inactive)
REMARK    1  A    between atoms: N_9  and  S_11
REMARK    2  A    between atoms: S_11  and  C_14
REMARK    3  A    between atoms: C_18  and  C_20
REMARK    4  A    between atoms: C_20  and  O_22
REMARK    5  A    between atoms: O_22  and  C_23
REMARK                            x       y       z     vdW  Elec       q    Type
REMARK                         _______ _______ _______ _____ _____    ______ ____
ROOT
ATOM      1  C   UNL     1      -1.209   1.742  -0.073  0.00  0.00    +0.106 A 
ATOM      2  C   UNL     1       0.002   1.073  -0.037  0.00  0.00    +0.028 A 
ATOM      3  C   UNL     1       1.190   1.781   0.000  0.00  0.00    +0.003 A 
ATOM      4  C   UNL     1       1.175   3.160   0.008  0.00  0.00    +0.015 A 
ATOM      5  C   UNL     1      -0.044   3.842  -0.022  0.00  0.00    +0.061 A 
ATOM      6  C   UNL     1      -1.239   3.121  -0.060  0.00  0.00    +0.043 A 
ENDROOT
BRANCH   1   7
ATOM      7  S   UNL     1      -2.716   0.831  -0.127  0.00  0.00    +0.061 S 
ATOM      8  O   UNL     1      -3.689   1.690  -0.705  0.00  0.00    -0.153 OA
ATOM      9  O   UNL     1      -2.401  -0.442  -0.676  0.00  0.00    -0.153 OA
BRANCH   7  18
ATOM     10  C   UNL     1      -2.648   2.246   6.120  0.00  0.00    +0.000 A 
ATOM     11  C   UNL     1      -3.637   3.037   5.564  0.00  0.00    +0.000 A 
ATOM     12  C   UNL     1      -4.072   2.785   4.279  0.00  0.00    +0.005 A 
ATOM     13  C   UNL     1      -3.523   1.745   3.540  0.00  0.00    -0.028 A 
ATOM     14  C   UNL     1      -2.534   0.962   4.090  0.00  0.00    -0.042 A 
ATOM     15  C   UNL     1      -2.101   1.215   5.386  0.00  0.00    +0.004 A 
ATOM     16  C   UNL     1      -1.880  -0.172   3.345  0.00  0.00    +0.052 C 
ATOM     17  C   UNL     1      -2.758  -0.633   2.176  0.00  0.00    +0.114 C 
ATOM     18  N   UNL     1      -3.186   0.568   1.439  0.00  0.00    -0.172 NA
ATOM     19  C   UNL     1      -4.051   1.519   2.146  0.00  0.00    +0.144 C 
ENDBRANCH   7  18
ENDBRANCH   1   7
BRANCH   5  20
ATOM     20  C   UNL     1      -0.068   5.319  -0.015  0.00  0.00    +0.344 C 
ATOM     21  O   UNL     1      -1.129   5.909  -0.041  0.00  0.00    -0.245 OA
BRANCH  20  22
ATOM     22  O   UNL     1       1.087   6.011   0.022  0.00  0.00    -0.422 OA
BRANCH  22  23
ATOM     23  C   UNL     1       0.999   7.365  -0.076  0.00  0.00    +0.133 A 
ATOM     24  C   UNL     1       1.312   7.996  -1.277  0.00  0.00    +0.050 A 
ATOM     25  C   UNL     1       1.223   9.365  -1.393  0.00  0.00    +0.050 A 
ATOM     26  C   UNL     1       0.828  10.132  -0.304  0.00  0.00    +0.136 A 
ATOM     27  C   UNL     1       0.516   9.498   0.912  0.00  0.00    +0.027 A 
ATOM     28  C   UNL     1       0.604   8.110   1.018  0.00  0.00    +0.058 A 
ATOM     29  C   UNL     1       0.146  10.578   1.825  0.00  0.00    +0.001 A 
ATOM     30  C   UNL     1       0.256  11.724   1.132  0.00  0.00    +0.109 A 
ATOM     31  O   UNL     1       0.659  11.459  -0.121  0.00  0.00    -0.459 OA
ATOM     32  C   UNL     1      -0.043  13.085   1.718  0.00  0.00    +0.075 C 
ATOM     33  C   UNL     1      -0.861  12.895   3.000  0.00  0.00    +0.008 C 
ATOM     34  C   UNL     1      -0.168  11.869   3.902  0.00  0.00    +0.005 C 
ATOM     35  C   UNL     1      -0.279  10.478   3.265  0.00  0.00    +0.039 C 
ENDBRANCH  22  23
ENDBRANCH  20  22
ENDBRANCH   5  20
TORSDOF 5
