REMARK  Name = ZINC09259181
REMARK  6 active torsions:
REMARK  status: ('A' for Active; 'I' for Inactive)
REMARK    1  A    between atoms: C_1  and  O_2
REMARK    2  A    between atoms: O_2  and  C_3
REMARK    3  A    between atoms: C_9  and  O_30
REMARK    4  A    between atoms: C_10  and  C_13
REMARK    5  A    between atoms: N_20  and  C_23
REMARK    6  A    between atoms: O_30  and  C_31
REMARK                            x       y       z     vdW  Elec       q    Type
REMARK                         _______ _______ _______ _____ _____    ______ ____
ROOT
ATOM      1  C   UNL     1      -2.495  -0.142   0.024  0.00  0.00    +0.030 C 
ATOM      2  C   UNL     1      -3.457  -0.520   0.952  0.00  0.00    +0.100 C 
ATOM      3  C   UNL     1      -3.165  -1.515   2.000  0.00  0.00    +0.255 C 
ATOM      4  O   UNL     1      -2.068  -2.035   2.080  0.00  0.00    -0.270 OA
ATOM      5  N   UNL     1      -4.147  -1.830   2.870  0.00  0.00    -0.263 N 
ATOM      6  C   UNL     1      -5.361  -1.269   2.789  0.00  0.00    +0.151 C 
ATOM      7  S   UNL     1      -6.547  -1.735   3.933  0.00  0.00    -0.018 S 
ATOM      8  N   UNL     1      -5.697  -0.362   1.861  0.00  0.00    -0.215 N 
ATOM      9  C   UNL     1      -4.815   0.052   0.928  0.00  0.00    +0.262 C 
ATOM     10  O   UNL     1      -5.131   0.876   0.091  0.00  0.00    -0.269 OA
ATOM     11  H   UNL     1      -3.970  -2.480   3.568  0.00  0.00    +0.157 HD
ENDROOT
BRANCH   1  19
ATOM     12  C   UNL     1       1.210   1.891   0.786  0.00  0.00    +0.121 A 
ATOM     13  C   UNL     1       2.412   1.180   0.730  0.00  0.00    +0.046 A 
ATOM     14  C   UNL     1       2.424  -0.149   0.434  0.00  0.00    +0.012 A 
ATOM     15  C   UNL     1       1.215  -0.821   0.182  0.00  0.00    -0.017 A 
ATOM     16  C   UNL     1       1.199  -2.194  -0.126  0.00  0.00    +0.012 A 
ATOM     17  C   UNL     1       0.030  -2.843  -0.369  0.00  0.00    +0.047 A 
ATOM     18  C   UNL     1      -1.198  -2.188  -0.325  0.00  0.00    +0.128 A 
ATOM     19  C   UNL     1      -1.259  -0.817  -0.023  0.00  0.00    +0.025 A 
ATOM     20  C   UNL     1      -0.004  -0.104   0.241  0.00  0.00    -0.004 A 
ATOM     21  C   UNL     1       0.007   1.258   0.545  0.00  0.00    +0.054 A 
BRANCH  12  23
ATOM     22  C   UNL     1       2.503   3.813   1.321  0.00  0.00    +0.277 C 
ATOM     23  O   UNL     1       1.226   3.216   1.082  0.00  0.00    -0.495 OA
ENDBRANCH  12  23
BRANCH  18  24
ATOM     24  O   UNL     1      -2.339  -2.874  -0.574  0.00  0.00    -0.495 OA
ATOM     25  C   UNL     1      -2.207  -4.265  -0.874  0.00  0.00    +0.277 C 
ENDBRANCH  18  24
ENDBRANCH   1  19
BRANCH   8  26
ATOM     26  C   UNL     1      -6.995   0.167   1.858  0.00  0.00    +0.078 A 
ATOM     27  C   UNL     1      -7.998  -0.452   1.126  0.00  0.00    +0.027 A 
ATOM     28  C   UNL     1      -9.276   0.071   1.125  0.00  0.00    +0.002 A 
ATOM     29  C   UNL     1      -9.558   1.212   1.854  0.00  0.00    +0.003 A 
ATOM     30  C   UNL     1      -8.563   1.833   2.586  0.00  0.00    +0.040 A 
ATOM     31  C   UNL     1      -7.282   1.311   2.595  0.00  0.00    +0.145 A 
ATOM     32  F   UNL     1      -6.310   1.914   3.314  0.00  0.00    -0.204 F 
ENDBRANCH   8  26
TORSDOF 4
