REMARK  Name = ZINC34740752
REMARK  13 active torsions:
REMARK  status: ('A' for Active; 'I' for Inactive)
REMARK    1  A    between atoms: C_1  and  C_2
REMARK    2  A    between atoms: C_5  and  C_8
REMARK    3  A    between atoms: N_11  and  C_28
REMARK    4  A    between atoms: C_13  and  C_15
REMARK    5  A    between atoms: C_15  and  N_16
REMARK    6  A    between atoms: N_16  and  C_17
REMARK    7  A    between atoms: C_23  and  C_25
REMARK    8  A    between atoms: C_25  and  C_26
REMARK    9  A    between atoms: C_25  and  C_27
REMARK   10  A    between atoms: C_28  and  C_29
REMARK   11  A    between atoms: C_32  and  O_37
REMARK   12  A    between atoms: C_33  and  O_35
REMARK   13  A    between atoms: O_35  and  C_36
REMARK                            x       y       z     vdW  Elec       q    Type
REMARK                         _______ _______ _______ _____ _____    ______ ____
ROOT
ATOM      1  C   UNL     1      -0.387  -5.879   0.303  0.00  0.00    +0.005 C 
ATOM      2  C   UNL     1      -1.085  -6.838   1.291  0.00  0.00    -0.070 C 
ATOM      3  N   UNL     1      -0.020  -7.788   1.705  0.00  0.00    +0.383 N 
ATOM      4  C   UNL     1       1.191  -6.939   1.847  0.00  0.00    -0.073 C 
ATOM      5  C   UNL     1       1.111  -5.945   0.666  0.00  0.00    -0.005 C 
ATOM      6  H   UNL     1       0.122  -8.490   0.995  0.00  0.00    -0.081 HD
ENDROOT
BRANCH   1  11
ATOM      7  C   UNL     1      -2.385  -0.499   0.983  0.00  0.00    +0.044 C 
ATOM      8  C   UNL     1      -1.864  -1.902   0.805  0.00  0.00    -0.050 A 
ATOM      9  C   UNL     1      -1.760  -2.446  -0.461  0.00  0.00    +0.003 A 
ATOM     10  C   UNL     1      -1.282  -3.733  -0.624  0.00  0.00    +0.004 A 
ATOM     11  C   UNL     1      -0.907  -4.476   0.480  0.00  0.00    -0.046 A 
ATOM     12  C   UNL     1      -1.011  -3.931   1.747  0.00  0.00    +0.004 A 
ATOM     13  C   UNL     1      -1.485  -2.643   1.909  0.00  0.00    +0.003 A 
ENDBRANCH   1  11
BRANCH   5  14
ATOM     14  C   UNL     1       1.614  -4.566   1.097  0.00  0.00    +0.110 C 
BRANCH  14  15
ATOM     15  N   UNL     1       3.068  -4.610   1.275  0.00  0.00    -0.298 N 
ATOM     16  C   UNL     1       3.594  -4.642   2.515  0.00  0.00    +0.218 C 
ATOM     17  O   UNL     1       4.789  -4.784   2.663  0.00  0.00    -0.275 OA
BRANCH  15  18
ATOM     18  C   UNL     1       3.949  -4.621   0.105  0.00  0.00    +0.076 C 
ATOM     19  C   UNL     1       4.795  -5.895   0.115  0.00  0.00    +0.022 C 
ATOM     20  C   UNL     1       5.716  -5.906  -1.107  0.00  0.00    +0.002 C 
ATOM     21  C   UNL     1       6.635  -4.684  -1.065  0.00  0.00    +0.000 C 
ATOM     22  C   UNL     1       5.788  -3.409  -1.075  0.00  0.00    +0.002 C 
ATOM     23  C   UNL     1       4.868  -3.398   0.147  0.00  0.00    +0.022 C 
ENDBRANCH  15  18
BRANCH  16  24
ATOM     24  C   UNL     1       2.697  -4.500   3.718  0.00  0.00    +0.069 C 
ATOM     25  C   UNL     1       3.466  -4.903   4.978  0.00  0.00    +0.017 C 
ATOM     26  C   UNL     1       2.238  -3.046   3.843  0.00  0.00    +0.017 C 
ENDBRANCH  16  24
ENDBRANCH  14  15
ENDBRANCH   5  14
BRANCH   3  27
ATOM     27  C   UNL     1      -0.362  -8.414   2.989  0.00  0.00    -0.043 C 
BRANCH  27  28
ATOM     28  C   UNL     1      -1.575  -9.292   2.813  0.00  0.00    -0.060 A 
ATOM     29  C   UNL     1      -2.840  -8.764   2.991  0.00  0.00    +0.005 A 
ATOM     30  C   UNL     1      -3.955  -9.565   2.830  0.00  0.00    +0.049 A 
ATOM     31  C   UNL     1      -3.806 -10.900   2.490  0.00  0.00    +0.158 A 
ATOM     32  C   UNL     1      -2.533 -11.431   2.311  0.00  0.00    +0.161 A 
ATOM     33  C   UNL     1      -1.419 -10.622   2.469  0.00  0.00    +0.051 A 
BRANCH  32  34
ATOM     34  O   UNL     1      -2.381 -12.741   1.977  0.00  0.00    -0.491 OA
ATOM     35  C   UNL     1      -1.044 -13.217   1.809  0.00  0.00    +0.277 C 
ENDBRANCH  32  34
BRANCH  31  36
ATOM     36  O   UNL     1      -4.902 -11.689   2.332  0.00  0.00    -0.503 OA
ATOM     37  H   UNL     1      -5.250 -11.703   1.430  0.00  0.00    +0.292 HD
ENDBRANCH  31  36
ENDBRANCH  27  28
ENDBRANCH   3  27
TORSDOF 9
