REMARK  Name = ZINC03340217
REMARK  7 active torsions:
REMARK  status: ('A' for Active; 'I' for Inactive)
REMARK    1  A    between atoms: C_1  and  C_2
REMARK    2  A    between atoms: C_7  and  C_8
REMARK    3  A    between atoms: C_7  and  N_58
REMARK    4  A    between atoms: C_10  and  O_20
REMARK    5  A    between atoms: O_20  and  C_21
REMARK    6  A    between atoms: C_23  and  C_31
REMARK    7  A    between atoms: C_25  and  C_27
REMARK                            x       y       z     vdW  Elec       q    Type
REMARK                         _______ _______ _______ _____ _____    ______ ____
ROOT
ATOM      1  C   UNL     1       0.244   5.982  -2.759  0.00  0.00    +0.118 A 
ATOM      2  N   UNL     1       1.081   6.015  -3.781  0.00  0.00    -0.199 NA
ATOM      3  C   UNL     1       0.683   6.305  -5.008  0.00  0.00    +0.232 A 
ATOM      4  C   UNL     1      -0.687   6.603  -5.235  0.00  0.00    +0.073 A 
ATOM      5  C   UNL     1      -1.349   6.957  -6.502  0.00  0.00    -0.023 A 
ATOM      6  C   UNL     1      -2.669   7.192  -6.451  0.00  0.00    -0.004 A 
ATOM      7  S   UNL     1      -3.116   6.965  -4.745  0.00  0.00    -0.073 S 
ATOM      8  C   UNL     1      -1.518   6.552  -4.100  0.00  0.00    +0.116 A 
ATOM      9  N   UNL     1      -1.039   6.249  -2.909  0.00  0.00    -0.227 NA
ATOM     10  C   UNL     1      -3.237   7.539  -7.802  0.00  0.00    +0.043 C 
ATOM     11  C   UNL     1      -2.162   7.069  -8.806  0.00  0.00    +0.010 C 
ATOM     12  C   UNL     1      -0.882   7.137  -7.949  0.00  0.00    +0.037 C 
ENDROOT
BRANCH   1  13
ATOM     13  C   UNL     1       0.769   5.639  -1.389  0.00  0.00    -0.001 C 
BRANCH  13  20
ATOM     14  C   UNL     1       0.001   0.207   0.215  0.00  0.00    +0.007 C 
ATOM     15  C   UNL     1      -0.013   1.736   0.173  0.00  0.00    -0.018 C 
ATOM     16  C   UNL     1      -0.750   2.207  -1.084  0.00  0.00    -0.016 C 
ATOM     17  C   UNL     1      -0.707   3.735  -1.152  0.00  0.00    -0.078 C 
ATOM     18  C   UNL     1       1.405   3.787   0.035  0.00  0.00    -0.078 C 
ATOM     19  C   UNL     1       1.425   2.260   0.138  0.00  0.00    -0.016 C 
ATOM     20  N   UNL     1       0.703   4.174  -1.208  0.00  0.00    +0.384 N 
ATOM     21  H   UNL     1       1.162   3.718  -2.005  0.00  0.00    -0.081 HD
ENDBRANCH  13  20
ENDBRANCH   1  13
BRANCH   3  22
ATOM     22  O   UNL     1       1.569   6.324  -6.032  0.00  0.00    -0.437 OA
BRANCH  22  23
ATOM     23  C   UNL     1       2.883   6.130  -5.742  0.00  0.00    +0.131 A 
ATOM     24  C   UNL     1       3.757   7.207  -5.724  0.00  0.00    +0.058 A 
ATOM     25  C   UNL     1       5.090   7.008  -5.423  0.00  0.00    +0.059 A 
ATOM     26  C   UNL     1       5.557   5.735  -5.152  0.00  0.00    +0.025 A 
ATOM     27  C   UNL     1       4.689   4.659  -5.176  0.00  0.00    +0.059 A 
ATOM     28  C   UNL     1       3.353   4.853  -5.471  0.00  0.00    +0.058 A 
BRANCH  27  29
ATOM     29  C   UNL     1       5.201   3.273  -4.881  0.00  0.00    +0.418 C 
ATOM     30  F   UNL     1       4.145   2.358  -4.964  0.00  0.00    -0.166 F 
ATOM     31  F   UNL     1       6.188   2.932  -5.812  0.00  0.00    -0.166 F 
ATOM     32  F   UNL     1       5.744   3.241  -3.592  0.00  0.00    -0.166 F 
ENDBRANCH  27  29
BRANCH  25  33
ATOM     33  C   UNL     1       6.039   8.179  -5.396  0.00  0.00    +0.418 C 
ATOM     34  F   UNL     1       6.589   8.363  -6.669  0.00  0.00    -0.166 F 
ATOM     35  F   UNL     1       5.344   9.333  -5.017  0.00  0.00    -0.166 F 
ATOM     36  F   UNL     1       7.063   7.928  -4.477  0.00  0.00    -0.166 F 
ENDBRANCH  25  33
ENDBRANCH  22  23
ENDBRANCH   3  22
TORSDOF 6
