REMARK  Name = ZINC20135262
REMARK  5 active torsions:
REMARK  status: ('A' for Active; 'I' for Inactive)
REMARK    1  A    between atoms: C_1  and  C_2
REMARK    2  A    between atoms: C_2  and  C_34
REMARK    3  A    between atoms: C_6  and  C_24
REMARK    4  A    between atoms: C_9  and  C_15
REMARK    5  A    between atoms: C_18  and  N_21
REMARK                            x       y       z     vdW  Elec       q    Type
REMARK                         _______ _______ _______ _____ _____    ______ ____
ROOT
ATOM      1  C   UNL     1      -0.015   1.034   2.509  0.00  0.00    +0.011 C 
ATOM      2  C   UNL     1      -0.726   1.578   1.268  0.00  0.00    -0.023 C 
ATOM      3  C   UNL     1      -0.013   1.086   0.008  0.00  0.00    +0.058 C 
ATOM      4  C   UNL     1      -0.742   1.585  -1.218  0.00  0.00    +0.017 C 
ATOM      5  C   UNL     1      -2.077   1.786  -1.196  0.00  0.00    +0.024 C 
ATOM      6  C   UNL     1      -2.843   2.282  -2.404  0.00  0.00    +0.089 C 
ATOM      7  C   UNL     1      -1.981   2.175  -3.629  0.00  0.00    +0.032 A 
ATOM      8  C   UNL     1      -2.331   2.265  -4.979  0.00  0.00    +0.098 A 
ATOM      9  N   UNL     1      -1.234   2.112  -5.697  0.00  0.00    -0.172 NA
ATOM     10  N   UNL     1      -0.154   1.919  -4.820  0.00  0.00    -0.263 N 
ATOM     11  H   UNL     1       0.860   1.772  -5.220  0.00  0.00    +0.190 HD
ATOM     12  C   UNL     1      -0.632   1.958  -3.561  0.00  0.00    +0.123 A 
ATOM     13  N   UNL     1       0.017   1.815  -2.339  0.00  0.00    -0.303 N 
ATOM     14  C   UNL     1      -2.824   1.542  -0.030  0.00  0.00    +0.162 C 
ATOM     15  O   UNL     1      -4.026   1.719  -0.047  0.00  0.00    -0.292 OA
ATOM     16  C   UNL     1      -2.169   1.066   1.236  0.00  0.00    +0.086 C 
ATOM     17  C   UNL     1      -0.722   3.108   1.299  0.00  0.00    +0.011 C 
ATOM     18  H   UNL     1       1.112   1.881  -2.258  0.00  0.00    +0.153 HD
ENDROOT
BRANCH   6  19
ATOM     19  C   UNL     1      -3.236   3.721  -2.192  0.00  0.00    -0.034 A 
ATOM     20  C   UNL     1      -2.261   4.681  -1.991  0.00  0.00    +0.004 A 
ATOM     21  C   UNL     1      -2.620   6.002  -1.802  0.00  0.00    +0.001 A 
ATOM     22  C   UNL     1      -3.955   6.363  -1.803  0.00  0.00    +0.015 A 
ATOM     23  C   UNL     1      -4.930   5.402  -1.999  0.00  0.00    +0.018 A 
ATOM     24  C   UNL     1      -4.570   4.081  -2.193  0.00  0.00    +0.019 A 
ATOM     25 BR   UNL     1      -6.756   5.895  -2.000  0.00  0.00    -0.050 Br
ENDBRANCH   6  19
BRANCH   8  26
ATOM     26  C   UNL     1      -3.697   2.493  -5.513  0.00  0.00    +0.003 A 
ATOM     27  C   UNL     1      -4.801   1.944  -4.864  0.00  0.00    +0.012 A 
ATOM     28  C   UNL     1      -6.070   2.165  -5.361  0.00  0.00    +0.033 A 
ATOM     29  C   UNL     1      -6.245   2.918  -6.508  0.00  0.00    +0.126 A 
ATOM     30  C   UNL     1      -5.152   3.461  -7.159  0.00  0.00    +0.033 A 
ATOM     31  C   UNL     1      -3.879   3.252  -6.667  0.00  0.00    +0.012 A 
BRANCH  29  32
ATOM     32  N   UNL     1      -7.608   3.146  -7.040  0.00  0.00    +0.056 N 
ATOM     33  O   UNL     1      -7.764   3.809  -8.049  0.00  0.00    -0.126 OA
ATOM     34  O   UNL     1      -8.572   2.670  -6.468  0.00  0.00    -0.126 OA
ENDBRANCH  29  32
ENDBRANCH   8  26
TORSDOF 3
