REMARK  Name = ZINC08431313
REMARK  10 active torsions:
REMARK  status: ('A' for Active; 'I' for Inactive)
REMARK    1  A    between atoms: C_2  and  C_3
REMARK    2  A    between atoms: C_3  and  C_4
REMARK    3  A    between atoms: C_8  and  C_11
REMARK    4  A    between atoms: C_9  and  O_10
REMARK    5  A    between atoms: N_12  and  N_13
REMARK    6  A    between atoms: C_14  and  C_16
REMARK    7  A    between atoms: C_16  and  S_17
REMARK    8  A    between atoms: S_17  and  C_18
REMARK    9  A    between atoms: N_26  and  C_27
REMARK   10  A    between atoms: C_27  and  C_28
REMARK                            x       y       z     vdW  Elec       q    Type
REMARK                         _______ _______ _______ _____ _____    ______ ____
ROOT
ATOM      1  C   UNL     1       4.703   5.313  -0.350  0.00  0.00    +0.174 C 
ENDROOT
BRANCH   1   3
ATOM      2  N   UNL     1       3.575   3.121  -0.141  0.00  0.00    -0.206 N 
ATOM      3  C   UNL     1       4.715   3.806  -0.359  0.00  0.00    +0.242 C 
ATOM      4  O   UNL     1       5.751   3.209  -0.563  0.00  0.00    -0.273 OA
ATOM      5  H   UNL     1       2.746   3.599   0.022  0.00  0.00    +0.177 HD
BRANCH   2   7
ATOM      6  C   UNL     1       2.471   1.062  -0.061  0.00  0.00    +0.142 C 
ATOM      7  N   UNL     1       3.586   1.720  -0.149  0.00  0.00    -0.188 NA
BRANCH   6  12
ATOM      8  C   UNL     1      -1.198   1.866  -0.245  0.00  0.00    -0.002 A 
ATOM      9  C   UNL     1      -1.190   2.936  -1.121  0.00  0.00    +0.007 A 
ATOM     10  C   UNL     1       0.003   3.401  -1.648  0.00  0.00    +0.001 A 
ATOM     11  C   UNL     1       1.195   2.793  -1.312  0.00  0.00    +0.013 A 
ATOM     12  C   UNL     1       1.200   1.712  -0.429  0.00  0.00    +0.036 A 
ATOM     13  C   UNL     1      -0.009   1.248   0.107  0.00  0.00    +0.129 A 
BRANCH  13  14
ATOM     14  O   UNL     1      -0.016   0.197   0.967  0.00  0.00    -0.506 OA
ATOM     15  H   UNL     1       0.138   0.443   1.889  0.00  0.00    +0.292 HD
ENDBRANCH  13  14
BRANCH   8  16
ATOM     16  C   UNL     1      -2.501   1.372   0.327  0.00  0.00    +0.065 C 
BRANCH  16  18
ATOM     17  C   UNL     1      -3.844   2.669   1.901  0.00  0.00    +0.004 C 
ATOM     18  C   UNL     1      -2.734   2.012   1.672  0.00  0.00    -0.030 C 
ENDBRANCH  16  18
ENDBRANCH   8  16
ENDBRANCH   6  12
ENDBRANCH   2   7
ENDBRANCH   1   3
BRANCH   1  19
ATOM     19  S   UNL     1       6.373   5.932  -0.672  0.00  0.00    -0.078 S 
BRANCH  19  20
ATOM     20  C   UNL     1       6.074   7.667  -0.606  0.00  0.00    +0.171 A 
ATOM     21  N   UNL     1       4.910   8.223  -0.377  0.00  0.00    -0.222 NA
ATOM     22  C   UNL     1       5.038   9.575  -0.397  0.00  0.00    +0.090 A 
ATOM     23  C   UNL     1       4.136  10.627  -0.217  0.00  0.00    +0.030 A 
ATOM     24  C   UNL     1       4.578  11.928  -0.297  0.00  0.00    +0.002 A 
ATOM     25  C   UNL     1       5.913  12.203  -0.556  0.00  0.00    +0.002 A 
ATOM     26  C   UNL     1       6.816  11.176  -0.736  0.00  0.00    +0.028 A 
ATOM     27  C   UNL     1       6.388   9.859  -0.658  0.00  0.00    +0.070 A 
ATOM     28  N   UNL     1       7.023   8.634  -0.781  0.00  0.00    -0.314 N 
BRANCH  28  29
ATOM     29  C   UNL     1       8.447   8.416  -1.051  0.00  0.00    +0.159 C 
BRANCH  29  30
ATOM     30  C   UNL     1       8.671   8.349  -2.540  0.00  0.00    -0.028 A 
ATOM     31  C   UNL     1       8.604   7.133  -3.194  0.00  0.00    +0.007 A 
ATOM     32  C   UNL     1       8.804   7.072  -4.560  0.00  0.00    +0.020 A 
ATOM     33  C   UNL     1       9.083   8.226  -5.271  0.00  0.00    +0.041 A 
ATOM     34  C   UNL     1       9.156   9.441  -4.614  0.00  0.00    +0.020 A 
ATOM     35  C   UNL     1       8.950   9.502  -3.249  0.00  0.00    +0.007 A 
ATOM     36 CL   UNL     1       9.341   8.148  -6.986  0.00  0.00    -0.084 Cl
ENDBRANCH  29  30
ENDBRANCH  28  29
ENDBRANCH  19  20
ENDBRANCH   1  19
TORSDOF 10
