REMARK  Name = ZINC36914271
REMARK  4 active torsions:
REMARK  status: ('A' for Active; 'I' for Inactive)
REMARK    1  A    between atoms: C_1  and  C_2
REMARK    2  A    between atoms: C_7  and  O_10
REMARK    3  A    between atoms: O_10  and  C_11
REMARK    4  A    between atoms: C_20  and  C_21
REMARK                            x       y       z     vdW  Elec       q    Type
REMARK                         _______ _______ _______ _____ _____    ______ ____
ROOT
ATOM      1  C   UNL     1       2.041  -3.736   2.389  0.00  0.00    +0.142 A 
ATOM      2  C   UNL     1       1.285  -4.903   2.643  0.00  0.00    +0.043 A 
ATOM      3  C   UNL     1      -0.050  -4.827   3.067  0.00  0.00    +0.013 A 
ATOM      4  C   UNL     1      -0.748  -5.973   3.302  0.00  0.00    +0.001 A 
ATOM      5  C   UNL     1      -0.153  -7.219   3.126  0.00  0.00    +0.002 A 
ATOM      6  C   UNL     1       1.141  -7.328   2.715  0.00  0.00    +0.028 A 
ATOM      7  C   UNL     1       1.893  -6.168   2.462  0.00  0.00    +0.074 A 
ATOM      8  N   UNL     1       3.167  -6.253   2.056  0.00  0.00    -0.254 NA
ATOM      9  C   UNL     1       3.888  -5.188   1.814  0.00  0.00    +0.126 A 
ATOM     10  C   UNL     1       3.363  -3.894   1.962  0.00  0.00    +0.072 A 
ENDROOT
BRANCH  10  11
ATOM     11  C   UNL     1       4.200  -2.713   1.676  0.00  0.00    +0.099 C 
ATOM     12  N   UNL     1       4.376  -1.779   2.611  0.00  0.00    -0.387 N 
ATOM     13  N   UNL     1       4.780  -2.581   0.483  0.00  0.00    -0.344 N 
ATOM     14  H   UNL     1       3.898  -1.839   3.453  0.00  0.00    +0.157 HD
ATOM     15  H   UNL     1       4.651  -3.260  -0.197  0.00  0.00    +0.144 HD
ATOM     16  H   UNL     1       5.330  -1.804   0.295  0.00  0.00    +0.144 HD
ATOM     17  H   UNL     1       4.983  -1.039   2.449  0.00  0.00    +0.157 HD
ENDBRANCH  10  11
BRANCH   1  18
ATOM     18  O   UNL     1       1.501  -2.506   2.549  0.00  0.00    -0.487 OA
BRANCH  18  24
ATOM     19  C   UNL     1       0.509   1.848   0.494  0.00  0.00    +0.007 C 
ATOM     20  C   UNL     1       0.464   0.329   0.312  0.00  0.00    -0.011 C 
ATOM     21  C   UNL     1      -0.983  -0.116   0.093  0.00  0.00    +0.003 C 
ATOM     22  C   UNL     1      -1.028  -1.634  -0.090  0.00  0.00    +0.004 C 
ATOM     23  C   UNL     1      -0.469  -2.315   1.161  0.00  0.00    +0.044 C 
ATOM     24  C   UNL     1       0.978  -1.870   1.380  0.00  0.00    +0.174 C 
ATOM     25  C   UNL     1       1.023  -0.351   1.563  0.00  0.00    +0.047 C 
ENDBRANCH  18  24
ENDBRANCH   1  18
TORSDOF 3
