REMARK  Name = ZINC06560014
REMARK  7 active torsions:
REMARK  status: ('A' for Active; 'I' for Inactive)
REMARK    1  A    between atoms: C_1  and  C_2
REMARK    2  A    between atoms: C_2  and  C_4
REMARK    3  A    between atoms: C_2  and  S_15
REMARK    4  A    between atoms: N_6  and  C_7
REMARK    5  A    between atoms: C_7  and  C_13
REMARK    6  A    between atoms: S_15  and  C_16
REMARK    7  A    between atoms: N_21  and  C_22
REMARK                            x       y       z     vdW  Elec       q    Type
REMARK                         _______ _______ _______ _____ _____    ______ ____
ROOT
ATOM      1  C   UNL     1       0.210   0.814  -0.154  0.00  0.00    +0.029 C 
ATOM      2  C   UNL     1       0.251  -0.693  -0.420  0.00  0.00    +0.136 C 
ENDROOT
BRANCH   2   3
ATOM      3  C   UNL     1       1.048  -1.373   0.663  0.00  0.00    +0.227 C 
ATOM      4  O   UNL     1       0.478  -1.930   1.577  0.00  0.00    -0.275 OA
ATOM      5  N   UNL     1       2.395  -1.362   0.616  0.00  0.00    -0.296 N 
ATOM      6  H   UNL     1       2.851  -0.917  -0.115  0.00  0.00    +0.150 HD
BRANCH   5   7
ATOM      7  C   UNL     1       3.170  -2.023   1.669  0.00  0.00    +0.121 C 
ATOM      8  C   UNL     1       2.813  -3.510   1.707  0.00  0.00    +0.041 C 
ATOM      9  C   UNL     1       3.622  -4.201   2.807  0.00  0.00    +0.003 C 
ATOM     10  C   UNL     1       5.116  -4.042   2.517  0.00  0.00    +0.000 C 
ATOM     11  C   UNL     1       5.473  -2.555   2.479  0.00  0.00    +0.003 C 
ATOM     12  C   UNL     1       4.664  -1.864   1.379  0.00  0.00    +0.041 C 
BRANCH   7  13
ATOM     13  C   UNL     1       2.855  -1.409   2.969  0.00  0.00    +0.088 C 
ATOM     14  N   UNL     1       2.611  -0.936   3.973  0.00  0.00    -0.194 NA
ENDBRANCH   7  13
ENDBRANCH   5   7
ENDBRANCH   2   3
BRANCH   2  15
ATOM     15  S   UNL     1      -1.439  -1.351  -0.430  0.00  0.00    -0.084 S 
BRANCH  15  16
ATOM     16  C   UNL     1      -2.189  -0.577  -1.825  0.00  0.00    +0.161 A 
ATOM     17  N   UNL     1      -1.671   0.279  -2.685  0.00  0.00    -0.133 NA
ATOM     18  N   UNL     1      -2.443   0.765  -3.715  0.00  0.00    -0.125 NA
ATOM     19  C   UNL     1      -3.696   0.374  -3.837  0.00  0.00    +0.187 A 
ATOM     20  S   UNL     1      -3.852  -0.748  -2.456  0.00  0.00    -0.024 S 
ATOM     21  N   UNL     1      -4.643   0.735  -4.790  0.00  0.00    -0.292 N 
ATOM     22  H   UNL     1      -5.559   0.429  -4.703  0.00  0.00    +0.154 HD
BRANCH  21  23
ATOM     23  C   UNL     1      -4.274   1.537  -5.873  0.00  0.00    +0.033 A 
ATOM     24  C   UNL     1      -5.219   2.338  -6.500  0.00  0.00    +0.023 A 
ATOM     25  C   UNL     1      -4.851   3.130  -7.569  0.00  0.00    +0.002 A 
ATOM     26  C   UNL     1      -3.542   3.126  -8.017  0.00  0.00    +0.000 A 
ATOM     27  C   UNL     1      -2.599   2.329  -7.395  0.00  0.00    +0.002 A 
ATOM     28  C   UNL     1      -2.959   1.538  -6.321  0.00  0.00    +0.023 A 
ENDBRANCH  21  23
ENDBRANCH  15  16
ENDBRANCH   2  15
TORSDOF 6
