REMARK  Name = ZINC27574169
REMARK  10 active torsions:
REMARK  status: ('A' for Active; 'I' for Inactive)
REMARK    1  A    between atoms: C_1  and  C_2
REMARK    2  A    between atoms: C_5  and  C_8
REMARK    3  A    between atoms: N_14  and  C_15
REMARK    4  A    between atoms: C_15  and  C_16
REMARK    5  A    between atoms: C_16  and  C_17
REMARK    6  A    between atoms: N_19  and  C_20
REMARK    7  A    between atoms: C_20  and  C_21
REMARK    8  A    between atoms: C_21  and  C_23
REMARK    9  A    between atoms: C_21  and  N_28
REMARK   10  A    between atoms: C_31  and  C_34
REMARK                            x       y       z     vdW  Elec       q    Type
REMARK                         _______ _______ _______ _____ _____    ______ ____
ROOT
ATOM      1  C   UNL     1      -0.205   1.143   1.002  0.00  0.00    +0.215 C 
ATOM      2  O   UNL     1      -0.620   0.341   1.812  0.00  0.00    -0.276 OA
ATOM      3  N   UNL     1      -0.409   2.461   1.195  0.00  0.00    -0.316 N 
ATOM      4  H   UNL     1      -0.034   3.189   0.461  0.00  0.00    +0.149 HD
ENDROOT
BRANCH   1   5
ATOM      5  C   UNL     1       0.537   0.666  -0.219  0.00  0.00    +0.117 C 
BRANCH   5   6
ATOM      6  C   UNL     1       0.630  -0.861  -0.196  0.00  0.00    +0.135 C 
BRANCH   6  13
ATOM      7  C   UNL     1       0.778  -1.730  -2.572  0.00  0.00    +0.163 A 
ATOM      8  N   UNL     1       1.729  -2.068  -3.397  0.00  0.00    -0.153 NA
ATOM      9  N   UNL     1       2.955  -1.894  -2.741  0.00  0.00    -0.254 N 
ATOM     10  H   UNL     1       3.896  -2.128  -3.261  0.00  0.00    +0.191 HD
ATOM     11  C   UNL     1       2.691  -1.434  -1.501  0.00  0.00    +0.176 A 
ATOM     12  S   UNL     1       3.846  -1.058  -0.294  0.00  0.00    -0.011 S 
ATOM     13  N   UNL     1       1.352  -1.325  -1.383  0.00  0.00    -0.303 N 
BRANCH   7  18
ATOM     14  C   UNL     1      -4.864  -1.886  -3.699  0.00  0.00    +0.044 C 
ATOM     15  C   UNL     1      -3.386  -1.845  -3.404  0.00  0.00    -0.050 A 
ATOM     16  C   UNL     1      -2.514  -2.623  -4.145  0.00  0.00    +0.004 A 
ATOM     17  C   UNL     1      -1.161  -2.590  -3.880  0.00  0.00    +0.012 A 
ATOM     18  C   UNL     1      -0.672  -1.770  -2.862  0.00  0.00    +0.019 A 
ATOM     19  C   UNL     1      -1.557  -0.993  -2.115  0.00  0.00    +0.012 A 
ATOM     20  C   UNL     1      -2.908  -1.030  -2.394  0.00  0.00    +0.004 A 
ENDBRANCH   7  18
ENDBRANCH   6  13
ENDBRANCH   5   6
ENDBRANCH   1   5
BRANCH   3  21
ATOM     21  C   UNL     1      -1.131   2.925   2.382  0.00  0.00    +0.094 C 
BRANCH  21  22
ATOM     22  C   UNL     1      -1.329   4.440   2.300  0.00  0.00    -0.013 C 
BRANCH  22  23
ATOM     23  N   UNL     1      -1.978   4.780   1.026  0.00  0.00    +0.386 N 
ATOM     24  C   UNL     1      -3.228   4.028   0.855  0.00  0.00    -0.078 C 
ATOM     25  C   UNL     1      -3.800   4.296  -0.539  0.00  0.00    -0.015 C 
ATOM     26  C   UNL     1      -4.059   5.797  -0.699  0.00  0.00    -0.018 C 
ATOM     27  C   UNL     1      -2.751   6.560  -0.468  0.00  0.00    -0.015 C 
ATOM     28  C   UNL     1      -2.210   6.226   0.924  0.00  0.00    -0.078 C 
ATOM     29  C   UNL     1      -4.573   6.079  -2.112  0.00  0.00    +0.007 C 
ATOM     30  H   UNL     1      -1.299   4.491   0.211  0.00  0.00    -0.081 HD
ENDBRANCH  22  23
BRANCH  22  31
ATOM     31  C   UNL     1       0.009   5.127   2.380  0.00  0.00    -0.022 A 
ATOM     32  C   UNL     1       0.600   5.724   3.444  0.00  0.00    +0.009 A 
ATOM     33  C   UNL     1       1.848   6.296   3.285  0.00  0.00    +0.008 A 
ATOM     34  C   UNL     1       2.445   6.243   2.069  0.00  0.00    +0.045 A 
ATOM     35  S   UNL     1       1.233   5.359   1.101  0.00  0.00    -0.103 S 
ENDBRANCH  22  31
ENDBRANCH  21  22
ENDBRANCH   3  21
TORSDOF 8
