REMARK  Name = ZINC34954944
REMARK  7 active torsions:
REMARK  status: ('A' for Active; 'I' for Inactive)
REMARK    1  A    between atoms: C_1  and  C_2
REMARK    2  A    between atoms: C_5  and  C_35
REMARK    3  A    between atoms: C_6  and  C_8
REMARK    4  A    between atoms: C_8  and  C_9
REMARK    5  A    between atoms: C_10  and  C_27
REMARK    6  A    between atoms: C_22  and  C_26
REMARK    7  A    between atoms: C_30  and  O_33
REMARK                            x       y       z     vdW  Elec       q    Type
REMARK                         _______ _______ _______ _____ _____    ______ ____
ROOT
ATOM      1  C   UNL     1      -0.089  -2.407   3.688  0.00  0.00    +0.077 C 
ATOM      2  C   UNL     1      -0.053  -0.917   3.935  0.00  0.00    +0.152 C 
ATOM      3  N   UNL     1      -0.174  -0.740   5.387  0.00  0.00    -0.232 N 
ATOM      4  C   UNL     1      -0.270  -1.960   5.946  0.00  0.00    +0.293 C 
ATOM      5  O   UNL     1      -0.384  -2.174   7.136  0.00  0.00    -0.266 OA
ATOM      6  C   UNL     1      -0.224  -3.000   4.898  0.00  0.00    +0.250 C 
ATOM      7  O   UNL     1      -0.301  -4.333   5.113  0.00  0.00    -0.282 OA
ATOM      8  C   UNL     1      -0.186   0.468   6.061  0.00  0.00    +0.169 A 
ATOM      9  N   UNL     1      -0.102   1.685   5.574  0.00  0.00    -0.224 NA
ATOM     10  C   UNL     1      -0.127   2.784   6.358  0.00  0.00    +0.080 A 
ATOM     11  C   UNL     1      -0.045   4.139   5.963  0.00  0.00    +0.029 A 
ATOM     12  C   UNL     1      -0.086   5.143   6.895  0.00  0.00    +0.005 A 
ATOM     13  C   UNL     1      -0.209   4.870   8.250  0.00  0.00    -0.049 A 
ATOM     14  C   UNL     1      -0.292   3.556   8.671  0.00  0.00    +0.020 A 
ATOM     15  C   UNL     1      -0.252   2.544   7.745  0.00  0.00    +0.041 A 
ATOM     16  S   UNL     1      -0.329   0.770   7.817  0.00  0.00    -0.052 S 
ATOM     17  C   UNL     1      -0.251   5.995   9.252  0.00  0.00    +0.044 C 
ENDROOT
BRANCH   2  18
ATOM     18  C   UNL     1       1.253  -0.342   3.450  0.00  0.00    -0.022 A 
ATOM     19  C   UNL     1       2.417  -0.584   4.155  0.00  0.00    +0.009 A 
ATOM     20  C   UNL     1       3.616  -0.058   3.712  0.00  0.00    +0.046 A 
ATOM     21  C   UNL     1       3.650   0.713   2.559  0.00  0.00    +0.117 A 
ATOM     22  C   UNL     1       2.480   0.954   1.854  0.00  0.00    +0.046 A 
ATOM     23  C   UNL     1       1.285   0.421   2.297  0.00  0.00    +0.009 A 
BRANCH  21  24
ATOM     24  O   UNL     1       4.828   1.232   2.123  0.00  0.00    -0.507 OA
ATOM     25  H   UNL     1       5.310   0.655   1.514  0.00  0.00    +0.292 HD
ENDBRANCH  21  24
ENDBRANCH   2  18
BRANCH   1  26
ATOM     26  C   UNL     1      -0.001  -3.080   2.389  0.00  0.00    +0.195 C 
ATOM     27  O   UNL     1       0.049  -4.295   2.336  0.00  0.00    -0.287 OA
BRANCH  26  33
ATOM     28  C   UNL     1       2.536  -1.179  -1.464  0.00  0.00    +0.044 C 
ATOM     29  C   UNL     1       1.244  -1.366  -0.712  0.00  0.00    -0.050 A 
ATOM     30  C   UNL     1       0.079  -0.791  -1.188  0.00  0.00    +0.003 A 
ATOM     31  C   UNL     1      -1.113  -0.958  -0.504  0.00  0.00    +0.004 A 
ATOM     32  C   UNL     1      -1.145  -1.701   0.658  0.00  0.00    -0.040 A 
ATOM     33  C   UNL     1       0.027  -2.284   1.144  0.00  0.00    +0.025 A 
ATOM     34  C   UNL     1       1.224  -2.116   0.445  0.00  0.00    +0.015 A 
ATOM     35  C   UNL     1      -2.443  -1.881   1.403  0.00  0.00    +0.044 C 
ENDBRANCH  26  33
ENDBRANCH   1  26
TORSDOF 4
