REMARK  Name = ZINC27149537
REMARK  6 active torsions:
REMARK  status: ('A' for Active; 'I' for Inactive)
REMARK    1  A    between atoms: C_1  and  C_2
REMARK    2  A    between atoms: C_5  and  C_8
REMARK    3  A    between atoms: C_10  and  C_18
REMARK    4  A    between atoms: C_18  and  O_20
REMARK    5  A    between atoms: O_20  and  C_21
REMARK    6  A    between atoms: C_24  and  C_27
REMARK                            x       y       z     vdW  Elec       q    Type
REMARK                         _______ _______ _______ _____ _____    ______ ____
ROOT
ATOM      1  C   UNL     1       0.054  -4.257  -0.022  0.00  0.00    +0.072 A 
ATOM      2  C   UNL     1       0.061  -4.940   1.203  0.00  0.00    +0.044 A 
ATOM      3  C   UNL     1       0.085  -6.328   1.210  0.00  0.00    +0.071 A 
ATOM      4  C   UNL     1       0.103  -7.005  -0.088  0.00  0.00    +0.014 A 
ATOM      5  C   UNL     1       0.127  -8.400  -0.184  0.00  0.00    +0.011 A 
ATOM      6  C   UNL     1       0.142  -8.991  -1.413  0.00  0.00    +0.001 A 
ATOM      7  C   UNL     1       0.134  -8.221  -2.575  0.00  0.00    +0.002 A 
ATOM      8  C   UNL     1       0.111  -6.862  -2.517  0.00  0.00    +0.028 A 
ATOM      9  C   UNL     1       0.094  -6.217  -1.266  0.00  0.00    +0.072 A 
ATOM     10  N   UNL     1       0.065  -4.886  -1.178  0.00  0.00    -0.247 NA
ENDROOT
BRANCH   1  15
ATOM     11  C   UNL     1      -0.048   1.501   0.006  0.00  0.00    +0.044 C 
ATOM     12  C   UNL     1      -0.021  -0.006  -0.002  0.00  0.00    -0.050 A 
ATOM     13  C   UNL     1      -0.009  -0.689  -1.204  0.00  0.00    +0.004 A 
ATOM     14  C   UNL     1       0.016  -2.068  -1.217  0.00  0.00    +0.010 A 
ATOM     15  C   UNL     1       0.029  -2.774  -0.015  0.00  0.00    +0.000 A 
ATOM     16  C   UNL     1       0.016  -2.080   1.194  0.00  0.00    +0.010 A 
ATOM     17  C   UNL     1      -0.004  -0.701   1.195  0.00  0.00    +0.004 A 
ENDBRANCH   1  15
BRANCH   3  18
ATOM     18  C   UNL     1       0.093  -7.091   2.475  0.00  0.00    +0.345 C 
ATOM     19  O   UNL     1       0.010  -8.302   2.454  0.00  0.00    -0.245 OA
BRANCH  18  20
ATOM     20  O   UNL     1       0.193  -6.442   3.652  0.00  0.00    -0.422 OA
BRANCH  20  21
ATOM     21  C   UNL     1       0.304  -7.186   4.782  0.00  0.00    +0.132 A 
ATOM     22  C   UNL     1       1.511  -7.805   5.089  0.00  0.00    +0.047 A 
ATOM     23  C   UNL     1       1.627  -8.561   6.234  0.00  0.00    +0.016 A 
ATOM     24  C   UNL     1       0.531  -8.705   7.088  0.00  0.00    +0.037 A 
ATOM     25  C   UNL     1      -0.680  -8.081   6.777  0.00  0.00    +0.016 A 
ATOM     26  C   UNL     1      -0.787  -7.323   5.632  0.00  0.00    +0.047 A 
BRANCH  24  27
ATOM     27  C   UNL     1       0.652  -9.515   8.317  0.00  0.00    +0.242 C 
ATOM     28  O   UNL     1       1.706 -10.057   8.586  0.00  0.00    -0.270 OA
ATOM     29  N   UNL     1      -0.407  -9.653   9.139  0.00  0.00    -0.325 N 
ATOM     30  H   UNL     1      -1.248  -9.220   8.924  0.00  0.00    +0.145 HD
ATOM     31  H   UNL     1      -0.328 -10.185   9.947  0.00  0.00    +0.145 HD
ENDBRANCH  24  27
ENDBRANCH  20  21
ENDBRANCH  18  20
ENDBRANCH   3  18
TORSDOF 5
