REMARK  Name = ZINC35908777
REMARK  6 active torsions:
REMARK  status: ('A' for Active; 'I' for Inactive)
REMARK    1  A    between atoms: C_1  and  C_2
REMARK    2  A    between atoms: C_7  and  N_8
REMARK    3  A    between atoms: C_9  and  C_15
REMARK    4  A    between atoms: C_20  and  N_21
REMARK    5  A    between atoms: C_22  and  C_24
REMARK    6  A    between atoms: C_24  and  C_26
REMARK                            x       y       z     vdW  Elec       q    Type
REMARK                         _______ _______ _______ _____ _____    ______ ____
ROOT
ATOM      1  C   UNL     1      -2.520   1.166   2.415  0.00  0.00    +0.005 A 
ATOM      2  C   UNL     1      -2.443   1.131   1.036  0.00  0.00    +0.008 A 
ATOM      3  C   UNL     1      -3.426   1.732   0.272  0.00  0.00    +0.000 A 
ATOM      4  C   UNL     1      -4.490   2.369   0.885  0.00  0.00    +0.002 A 
ATOM      5  C   UNL     1      -4.573   2.406   2.263  0.00  0.00    +0.023 A 
ATOM      6  C   UNL     1      -3.589   1.800   3.033  0.00  0.00    +0.039 A 
ENDROOT
BRANCH   1   8
ATOM      7  N   UNL     1      -1.583  -0.957   3.227  0.00  0.00    -0.254 N 
ATOM      8  C   UNL     1      -1.447   0.511   3.247  0.00  0.00    +0.172 C 
ATOM      9  S   UNL     1       0.215   0.731   2.479  0.00  0.00    -0.124 S 
ATOM     10  C   UNL     1       0.812  -0.989   2.781  0.00  0.00    +0.167 C 
ATOM     11  C   UNL     1      -0.509  -1.705   3.012  0.00  0.00    +0.231 C 
ATOM     12  O   UNL     1      -0.578  -2.916   2.998  0.00  0.00    -0.274 OA
BRANCH   7  19
ATOM     13  C   UNL     1      -2.418  -1.420   5.907  0.00  0.00    +0.045 C 
ATOM     14  C   UNL     1      -3.277  -1.799   4.729  0.00  0.00    -0.029 A 
ATOM     15  C   UNL     1      -4.511  -2.384   4.933  0.00  0.00    +0.005 A 
ATOM     16  C   UNL     1      -5.300  -2.732   3.852  0.00  0.00    +0.000 A 
ATOM     17  C   UNL     1      -4.857  -2.496   2.564  0.00  0.00    +0.002 A 
ATOM     18  C   UNL     1      -3.624  -1.911   2.353  0.00  0.00    +0.024 A 
ATOM     19  C   UNL     1      -2.831  -1.555   3.437  0.00  0.00    +0.041 A 
ENDBRANCH   7  19
ENDBRANCH   1   8
BRANCH   6  20
ATOM     20  N   UNL     1      -3.673   1.832   4.429  0.00  0.00    -0.284 N 
ATOM     21  C   UNL     1      -4.192   2.911   5.049  0.00  0.00    +0.239 C 
ATOM     22  O   UNL     1      -4.658   3.820   4.395  0.00  0.00    -0.273 OA
ATOM     23  H   UNL     1      -3.358   1.078   4.952  0.00  0.00    +0.155 HD
BRANCH  21  24
ATOM     24  C   UNL     1      -4.192   2.988   6.554  0.00  0.00    +0.196 C 
ATOM     25 CL   UNL     1      -2.917   4.140   7.097  0.00  0.00    -0.107 Cl
BRANCH  24  26
ATOM     26  C   UNL     1      -5.539   3.467   7.032  0.00  0.00    -0.021 A 
ATOM     27  C   UNL     1      -5.972   4.741   6.715  0.00  0.00    +0.005 A 
ATOM     28  C   UNL     1      -7.207   5.180   7.153  0.00  0.00    +0.000 A 
ATOM     29  C   UNL     1      -8.009   4.346   7.908  0.00  0.00    +0.000 A 
ATOM     30  C   UNL     1      -7.577   3.071   8.225  0.00  0.00    +0.000 A 
ATOM     31  C   UNL     1      -6.343   2.630   7.782  0.00  0.00    +0.005 A 
ENDBRANCH  24  26
ENDBRANCH  21  24
ENDBRANCH   6  20
TORSDOF 5
