REMARK  Name = ZINC09251134
REMARK  4 active torsions:
REMARK  status: ('A' for Active; 'I' for Inactive)
REMARK    1  A    between atoms: N_4  and  C_6
REMARK    2  A    between atoms: C_7  and  C_15
REMARK    3  A    between atoms: C_15  and  N_16
REMARK    4  A    between atoms: N_19  and  C_20
REMARK                            x       y       z     vdW  Elec       q    Type
REMARK                         _______ _______ _______ _____ _____    ______ ____
ROOT
ATOM      1  C   UNL     1      -1.433   5.290  -2.269  0.00  0.00    +0.089 A 
ATOM      2  C   UNL     1      -1.081   3.978  -2.243  0.00  0.00    +0.004 A 
ATOM      3  C   UNL     1      -0.727   3.377  -1.034  0.00  0.00    -0.030 A 
ATOM      4  C   UNL     1      -0.760   4.168   0.071  0.00  0.00    -0.005 A 
ATOM      5  S   UNL     1      -1.277   5.747  -0.549  0.00  0.00    -0.075 S 
ATOM      6  C   UNL     1      -0.433   3.782   1.478  0.00  0.00    +0.043 C 
ATOM      7  C   UNL     1      -0.402   2.248   1.561  0.00  0.00    +0.005 C 
ATOM      8  C   UNL     1       0.433   1.710   0.396  0.00  0.00    +0.005 C 
ATOM      9  C   UNL     1      -0.319   1.911  -0.920  0.00  0.00    +0.036 C 
ENDROOT
BRANCH   1  13
ATOM     10  C   UNL     1      -1.949   7.759  -4.771  0.00  0.00    +0.019 A 
ATOM     11  C   UNL     1      -2.830   6.744  -5.194  0.00  0.00    +0.019 A 
ATOM     12  C   UNL     1      -2.730   5.728  -4.313  0.00  0.00    +0.092 A 
ATOM     13  N   UNL     1      -1.817   6.079  -3.360  0.00  0.00    -0.317 N 
ATOM     14  C   UNL     1      -1.347   7.328  -3.644  0.00  0.00    +0.092 A 
ENDBRANCH   1  13
BRANCH   2  15
ATOM     15  C   UNL     1      -1.072   3.173  -3.517  0.00  0.00    +0.144 C 
BRANCH  15  16
ATOM     16  N   UNL     1      -2.342   2.454  -3.649  0.00  0.00    -0.295 N 
ATOM     17  C   UNL     1      -2.561   1.664  -4.719  0.00  0.00    +0.304 C 
ATOM     18  O   UNL     1      -1.705   1.549  -5.575  0.00  0.00    -0.252 OA
ATOM     19  N   UNL     1      -3.729   1.003  -4.840  0.00  0.00    -0.269 N 
ATOM     20  H   UNL     1      -3.025   2.546  -2.966  0.00  0.00    +0.151 HD
ATOM     21  H   UNL     1      -4.440   1.152  -4.198  0.00  0.00    +0.156 HD
BRANCH  19  22
ATOM     22  C   UNL     1      -3.916   0.100  -5.893  0.00  0.00    +0.036 A 
ATOM     23  C   UNL     1      -5.178  -0.074  -6.445  0.00  0.00    +0.023 A 
ATOM     24  C   UNL     1      -5.359  -0.962  -7.487  0.00  0.00    +0.003 A 
ATOM     25  C   UNL     1      -4.286  -1.685  -7.976  0.00  0.00    +0.015 A 
ATOM     26  C   UNL     1      -3.028  -1.518  -7.426  0.00  0.00    +0.020 A 
ATOM     27  C   UNL     1      -2.840  -0.627  -6.385  0.00  0.00    +0.038 A 
ATOM     28 BR   UNL     1      -1.564  -2.508  -8.097  0.00  0.00    -0.050 Br
ENDBRANCH  19  22
ENDBRANCH  15  16
ENDBRANCH   2  15
TORSDOF 4
