REMARK  Name = ZINC40070799
REMARK  11 active torsions:
REMARK  status: ('A' for Active; 'I' for Inactive)
REMARK    1  A    between atoms: C_1  and  C_2
REMARK    2  A    between atoms: C_3  and  C_33
REMARK    3  A    between atoms: C_4  and  C_32
REMARK    4  A    between atoms: C_7  and  C_8
REMARK    5  A    between atoms: C_8  and  C_10
REMARK    6  A    between atoms: C_10  and  C_12
REMARK    7  A    between atoms: C_10  and  S_13
REMARK    8  A    between atoms: S_13  and  C_14
REMARK    9  A    between atoms: C_18  and  C_23
REMARK   10  A    between atoms: N_19  and  C_20
REMARK   11  A    between atoms: C_33  and  C_35
REMARK                            x       y       z     vdW  Elec       q    Type
REMARK                         _______ _______ _______ _____ _____    ______ ____
ROOT
ATOM      1  C   UNL     1       0.505  -1.502   6.104  0.00  0.00    +0.237 C 
ATOM      2  N   UNL     1       1.309  -2.733   6.027  0.00  0.00    -0.237 N 
ATOM      3  N   UNL     1       0.441  -3.793   6.312  0.00  0.00    -0.169 NA
ATOM      4  C   UNL     1      -0.771  -3.364   6.549  0.00  0.00    +0.147 C 
ATOM      5  N   UNL     1      -0.848  -1.970   6.450  0.00  0.00    -0.282 N 
ATOM      6  H   UNL     1       2.254  -2.797   5.820  0.00  0.00    +0.171 HD
ENDROOT
BRANCH   4   7
ATOM      7  C   UNL     1      -1.857  -4.196   6.863  0.00  0.00    +0.022 C 
ATOM      8  C   UNL     1      -1.829  -5.572   7.089  0.00  0.00    +0.006 A 
ATOM      9  C   UNL     1      -0.781  -6.518   7.080  0.00  0.00    +0.010 A 
ATOM     10  C   UNL     1      -1.050  -7.823   7.343  0.00  0.00    +0.001 A 
ATOM     11  C   UNL     1      -2.346  -8.260   7.624  0.00  0.00    +0.002 A 
ATOM     12  C   UNL     1      -3.399  -7.407   7.650  0.00  0.00    +0.026 A 
ATOM     13  C   UNL     1      -3.196  -6.028   7.385  0.00  0.00    +0.043 A 
ATOM     14  N   UNL     1      -4.038  -5.013   7.350  0.00  0.00    -0.380 N 
ATOM     15  C   UNL     1      -3.303  -3.785   7.033  0.00  0.00    +0.152 C 
ATOM     16  H   UNL     1      -4.993  -5.070   7.513  0.00  0.00    +0.160 HD
ENDBRANCH   4   7
BRANCH   5  17
ATOM     17  C   UNL     1      -2.038  -1.139   6.649  0.00  0.00    +0.078 C 
ATOM     18  C   UNL     1      -1.894   0.367   6.418  0.00  0.00    +0.024 C 
ATOM     19  C   UNL     1      -2.037  -0.179   7.841  0.00  0.00    +0.024 C 
ENDBRANCH   5  17
BRANCH   1  20
ATOM     20  S   UNL     1       0.492  -0.651   4.502  0.00  0.00    -0.107 S 
BRANCH  20  21
ATOM     21  C   UNL     1       0.069  -1.957   3.316  0.00  0.00    +0.119 C 
ATOM     22  C   UNL     1      -1.405  -2.335   3.477  0.00  0.00    +0.027 C 
BRANCH  21  23
ATOM     23  C   UNL     1       0.309  -1.459   1.914  0.00  0.00    +0.192 C 
ATOM     24  O   UNL     1       0.278  -0.268   1.679  0.00  0.00    -0.289 OA
BRANCH  23  31
ATOM     25  C   UNL     1       0.834  -0.678  -1.048  0.00  0.00    +0.047 C 
ATOM     26  C   UNL     1       0.807  -2.061  -0.449  0.00  0.00    -0.012 A 
ATOM     27  C   UNL     1       1.025  -3.280  -1.131  0.00  0.00    +0.041 A 
ATOM     28  C   UNL     1       0.907  -4.297  -0.195  0.00  0.00    +0.024 A 
ATOM     29  N   UNL     1       0.632  -3.753   0.998  0.00  0.00    -0.355 N 
ATOM     30  H   UNL     1       0.501  -4.246   1.823  0.00  0.00    +0.166 HD
ATOM     31  C   UNL     1       0.571  -2.380   0.870  0.00  0.00    +0.087 A 
ATOM     32  C   UNL     1       1.062  -5.770  -0.474  0.00  0.00    +0.064 C 
BRANCH  27  33
ATOM     33  C   UNL     1       1.320  -3.438  -2.558  0.00  0.00    +0.162 C 
ATOM     34  O   UNL     1       0.420  -3.646  -3.345  0.00  0.00    -0.292 OA
ATOM     35  C   UNL     1       2.742  -3.344  -3.049  0.00  0.00    +0.091 C 
ENDBRANCH  27  33
ENDBRANCH  23  31
ENDBRANCH  21  23
ENDBRANCH  20  21
ENDBRANCH   1  20
TORSDOF 7
