REMARK  Name = ZINC62553091
REMARK  8 active torsions:
REMARK  status: ('A' for Active; 'I' for Inactive)
REMARK    1  A    between atoms: C_1  and  C_2
REMARK    2  A    between atoms: N_8  and  S_14
REMARK    3  A    between atoms: C_11  and  O_13
REMARK    4  A    between atoms: S_14  and  C_17
REMARK    5  A    between atoms: C_20  and  C_23
REMARK    6  A    between atoms: C_23  and  C_24
REMARK    7  A    between atoms: C_23  and  C_25
REMARK    8  A    between atoms: C_23  and  C_26
REMARK                            x       y       z     vdW  Elec       q    Type
REMARK                         _______ _______ _______ _____ _____    ______ ____
ROOT
ATOM      1  C   UNL     1      -1.178  -0.055   2.074  0.00  0.00    +0.046 C 
ATOM      2  C   UNL     1      -0.709  -0.873   3.250  0.00  0.00    -0.027 A 
ATOM      3  C   UNL     1      -1.250  -2.122   3.482  0.00  0.00    +0.005 A 
ATOM      4  C   UNL     1      -0.819  -2.870   4.562  0.00  0.00    +0.001 A 
ATOM      5  C   UNL     1       0.151  -2.371   5.410  0.00  0.00    +0.008 A 
ATOM      6  C   UNL     1       0.698  -1.119   5.186  0.00  0.00    +0.004 A 
ATOM      7  C   UNL     1       0.273  -0.371   4.098  0.00  0.00    +0.060 A 
ATOM      8  N   UNL     1       0.818   0.890   3.837  0.00  0.00    -0.202 N 
ATOM      9  C   UNL     1       1.624   1.544   4.877  0.00  0.00    +0.134 C 
ATOM     10  C   UNL     1       2.581   0.495   5.458  0.00  0.00    +0.057 C 
ATOM     11  C   UNL     1       1.748  -0.602   6.133  0.00  0.00    +0.148 C 
ENDROOT
BRANCH   8  12
ATOM     12  S   UNL     1       0.560   1.634   2.380  0.00  0.00    +0.075 S 
ATOM     13  O   UNL     1       1.556   2.641   2.256  0.00  0.00    -0.150 OA
ATOM     14  O   UNL     1       0.398   0.600   1.419  0.00  0.00    -0.150 OA
BRANCH  12  15
ATOM     15  C   UNL     1      -0.988   2.469   2.489  0.00  0.00    +0.109 A 
ATOM     16  C   UNL     1      -1.728   2.704   1.345  0.00  0.00    +0.029 A 
ATOM     17  C   UNL     1      -2.943   3.358   1.430  0.00  0.00    +0.006 A 
ATOM     18  C   UNL     1      -3.418   3.777   2.659  0.00  0.00    -0.042 A 
ATOM     19  C   UNL     1      -2.679   3.541   3.803  0.00  0.00    +0.006 A 
ATOM     20  C   UNL     1      -1.466   2.883   3.718  0.00  0.00    +0.029 A 
BRANCH  18  21
ATOM     21  C   UNL     1      -4.742   4.491   2.751  0.00  0.00    -0.013 C 
ATOM     22  C   UNL     1      -5.850   3.582   2.217  0.00  0.00    +0.015 C 
ATOM     23  C   UNL     1      -5.030   4.843   4.212  0.00  0.00    +0.015 C 
ATOM     24  C   UNL     1      -4.688   5.774   1.919  0.00  0.00    +0.015 C 
ENDBRANCH  18  21
ENDBRANCH  12  15
ENDBRANCH   8  12
BRANCH  11  25
ATOM     25  O   UNL     1       2.616  -1.674   6.506  0.00  0.00    -0.387 OA
ATOM     26  H   UNL     1       3.320  -1.416   7.116  0.00  0.00    +0.210 HD
ENDBRANCH  11  25
TORSDOF 4
