REMARK  Name = ZINC40797219
REMARK  11 active torsions:
REMARK  status: ('A' for Active; 'I' for Inactive)
REMARK    1  A    between atoms: C_1  and  C_2
REMARK    2  A    between atoms: C_2  and  N_3
REMARK    3  A    between atoms: C_11  and  C_14
REMARK    4  A    between atoms: C_11  and  C_15
REMARK    5  A    between atoms: N_17  and  C_18
REMARK    6  A    between atoms: C_19  and  C_30
REMARK    7  A    between atoms: C_20  and  C_23
REMARK    8  A    between atoms: C_26  and  C_29
REMARK    9  A    between atoms: C_30  and  O_32
REMARK   10  A    between atoms: O_32  and  C_33
REMARK   11  A    between atoms: C_33  and  C_34
REMARK                            x       y       z     vdW  Elec       q    Type
REMARK                         _______ _______ _______ _____ _____    ______ ____
ROOT
ATOM      1  C   UNL     1       3.131   0.217  -3.190  0.00  0.00    +0.270 C 
ATOM      2  O   UNL     1       3.289   1.245  -2.566  0.00  0.00    -0.271 OA
ATOM      3  N   UNL     1       3.314   0.205  -4.526  0.00  0.00    -0.276 N 
ATOM      4  H   UNL     1       3.188  -0.618  -5.024  0.00  0.00    +0.155 HD
ENDROOT
BRANCH   1  13
ATOM      5  N   UNL     1       0.688  -0.476  -1.203  0.00  0.00    -0.265 N 
ATOM      6  C   UNL     1      -0.032  -0.711  -2.383  0.00  0.00    +0.078 A 
ATOM      7  C   UNL     1      -1.347  -0.289  -2.501  0.00  0.00    +0.027 A 
ATOM      8  C   UNL     1      -2.039  -0.516  -3.677  0.00  0.00    +0.002 A 
ATOM      9  C   UNL     1      -1.423  -1.162  -4.733  0.00  0.00    +0.004 A 
ATOM     10  C   UNL     1      -0.113  -1.590  -4.619  0.00  0.00    +0.047 A 
ATOM     11  C   UNL     1       0.585  -1.371  -3.443  0.00  0.00    +0.144 A 
ATOM     12  O   UNL     1       1.864  -1.814  -3.308  0.00  0.00    -0.465 OA
ATOM     13  C   UNL     1       2.732  -1.046  -2.472  0.00  0.00    +0.258 C 
ATOM     14  C   UNL     1       2.021  -0.686  -1.193  0.00  0.00    +0.273 C 
ATOM     15  O   UNL     1       2.644  -0.590  -0.157  0.00  0.00    -0.270 OA
ATOM     16  C   UNL     1       3.984  -1.865  -2.149  0.00  0.00    +0.076 C 
BRANCH   5  18
ATOM     17  C   UNL     1      -0.019   1.526   0.010  0.00  0.00    +0.025 C 
ATOM     18  C   UNL     1       0.002  -0.004   0.002  0.00  0.00    +0.110 C 
ENDBRANCH   5  18
ENDBRANCH   1  13
BRANCH   3  19
ATOM     19  C   UNL     1       3.681   1.366  -5.186  0.00  0.00    +0.086 A 
ATOM     20  C   UNL     1       3.904   1.538  -6.543  0.00  0.00    +0.095 A 
ATOM     21  C   UNL     1       4.282   2.871  -6.975  0.00  0.00    +0.005 A 
ATOM     22  C   UNL     1       4.373   3.800  -5.989  0.00  0.00    +0.056 A 
ATOM     23  S   UNL     1       3.949   2.884  -4.524  0.00  0.00    -0.080 S 
BRANCH  21  24
ATOM     24  C   UNL     1       4.551   3.197  -8.396  0.00  0.00    -0.017 A 
ATOM     25  C   UNL     1       5.415   2.399  -9.146  0.00  0.00    +0.009 A 
ATOM     26  C   UNL     1       5.661   2.706 -10.468  0.00  0.00    +0.004 A 
ATOM     27  C   UNL     1       5.054   3.804 -11.050  0.00  0.00    -0.050 A 
ATOM     28  C   UNL     1       4.197   4.600 -10.312  0.00  0.00    +0.004 A 
ATOM     29  C   UNL     1       3.937   4.299  -8.990  0.00  0.00    +0.009 A 
ATOM     30  C   UNL     1       5.327   4.135 -12.495  0.00  0.00    +0.044 C 
ENDBRANCH  21  24
BRANCH  20  31
ATOM     31  C   UNL     1       3.766   0.432  -7.491  0.00  0.00    +0.342 C 
ATOM     32  O   UNL     1       2.693   0.216  -8.021  0.00  0.00    -0.245 OA
BRANCH  31  33
ATOM     33  O   UNL     1       4.829  -0.348  -7.776  0.00  0.00    -0.461 OA
BRANCH  33  34
ATOM     34  C   UNL     1       4.622  -1.410  -8.710  0.00  0.00    +0.229 C 
ATOM     35  C   UNL     1       5.930  -2.179  -8.906  0.00  0.00    +0.048 C 
ENDBRANCH  33  34
ENDBRANCH  31  33
ENDBRANCH  20  31
ENDBRANCH   3  19
TORSDOF 7
