REMARK  Name = ZINC33429782
REMARK  12 active torsions:
REMARK  status: ('A' for Active; 'I' for Inactive)
REMARK    1  A    between atoms: C_1  and  C_2
REMARK    2  A    between atoms: C_2  and  C_3
REMARK    3  A    between atoms: C_7  and  N_9
REMARK    4  A    between atoms: N_12  and  C_13
REMARK    5  A    between atoms: N_12  and  C_37
REMARK    6  A    between atoms: C_13  and  C_14
REMARK    7  A    between atoms: N_16  and  C_17
REMARK    8  A    between atoms: N_16  and  C_29
REMARK    9  A    between atoms: C_17  and  C_18
REMARK   10  A    between atoms: C_18  and  C_19
REMARK   11  A    between atoms: C_29  and  C_30
REMARK   12  A    between atoms: C_33  and  C_36
REMARK                            x       y       z     vdW  Elec       q    Type
REMARK                         _______ _______ _______ _____ _____    ______ ____
ROOT
ATOM      1  C   UNL     1      -0.736  -1.807  -0.701  0.00  0.00    +0.233 C 
ATOM      2  O   UNL     1      -0.304  -1.914  -1.829  0.00  0.00    -0.274 OA
ATOM      3  N   UNL     1       0.109  -1.583   0.325  0.00  0.00    -0.296 N 
ENDROOT
BRANCH   1   4
ATOM      4  C   UNL     1      -2.216  -1.925  -0.446  0.00  0.00    +0.205 C 
BRANCH   4   8
ATOM      5  N   UNL     1      -4.064  -1.633  -3.610  0.00  0.00    -0.269 N 
ATOM      6  C   UNL     1      -3.347  -1.310  -2.515  0.00  0.00    +0.307 C 
ATOM      7  O   UNL     1      -3.104  -0.144  -2.270  0.00  0.00    -0.252 OA
ATOM      8  N   UNL     1      -2.900  -2.280  -1.692  0.00  0.00    -0.274 N 
ATOM      9  H   UNL     1      -4.373  -2.676  -3.777  0.00  0.00    +0.156 HD
BRANCH   5  14
ATOM     10  C   UNL     1      -5.974   0.267  -6.112  0.00  0.00    -0.046 A 
ATOM     11  C   UNL     1      -5.109   1.317  -6.360  0.00  0.00    +0.004 A 
ATOM     12  C   UNL     1      -3.897   1.389  -5.697  0.00  0.00    +0.002 A 
ATOM     13  C   UNL     1      -3.550   0.416  -4.781  0.00  0.00    +0.023 A 
ATOM     14  C   UNL     1      -4.415  -0.643  -4.534  0.00  0.00    +0.035 A 
ATOM     15  C   UNL     1      -5.630  -0.713  -5.201  0.00  0.00    +0.027 A 
BRANCH  10  17
ATOM     16  C   UNL     1      -8.362   0.929  -6.027  0.00  0.00    +0.009 C 
ATOM     17  C   UNL     1      -7.293   0.192  -6.836  0.00  0.00    +0.032 C 
ENDBRANCH  10  17
ENDBRANCH   5  14
BRANCH   8  18
ATOM     18  C   UNL     1      -3.097  -3.688  -2.044  0.00  0.00    +0.078 C 
ATOM     19  C   UNL     1      -2.847  -4.731  -0.953  0.00  0.00    +0.024 C 
ATOM     20  C   UNL     1      -1.855  -4.580  -2.109  0.00  0.00    +0.024 C 
ENDBRANCH   8  18
ENDBRANCH   4   8
ENDBRANCH   1   4
BRANCH   3  21
ATOM     21  C   UNL     1       1.535  -1.371   0.067  0.00  0.00    +0.113 C 
BRANCH  21  22
ATOM     22  C   UNL     1       2.264  -2.715   0.096  0.00  0.00    +0.056 C 
BRANCH  22  23
ATOM     23  C   UNL     1       3.732  -2.497  -0.170  0.00  0.00    -0.021 A 
ATOM     24  C   UNL     1       4.352  -2.597  -1.356  0.00  0.00    +0.087 A 
ATOM     25  N   UNL     1       5.685  -2.327  -1.210  0.00  0.00    -0.360 N 
ATOM     26  H   UNL     1       6.351  -2.356  -2.085  0.00  0.00    +0.165 HD
ATOM     27  C   UNL     1       5.964  -2.048   0.109  0.00  0.00    +0.047 A 
ATOM     28  C   UNL     1       4.753  -2.143   0.819  0.00  0.00    +0.003 A 
ATOM     29  C   UNL     1       4.731  -1.907   2.195  0.00  0.00    +0.010 A 
ATOM     30  C   UNL     1       5.889  -1.586   2.846  0.00  0.00    +0.001 A 
ATOM     31  C   UNL     1       7.086  -1.492   2.151  0.00  0.00    +0.002 A 
ATOM     32  C   UNL     1       7.130  -1.720   0.793  0.00  0.00    +0.026 A 
ENDBRANCH  22  23
ENDBRANCH  21  22
ENDBRANCH   3  21
BRANCH   3  33
ATOM     33  C   UNL     1      -0.399  -1.550   1.699  0.00  0.00    +0.143 C 
BRANCH  33  34
ATOM     34  C   UNL     1      -0.675  -0.124   2.100  0.00  0.00    -0.030 A 
ATOM     35  C   UNL     1      -1.943   0.404   1.948  0.00  0.00    +0.005 A 
ATOM     36  C   UNL     1      -2.196   1.712   2.316  0.00  0.00    +0.003 A 
ATOM     37  C   UNL     1      -1.180   2.492   2.837  0.00  0.00    -0.050 A 
ATOM     38  C   UNL     1       0.089   1.964   2.987  0.00  0.00    +0.003 A 
ATOM     39  C   UNL     1       0.341   0.656   2.620  0.00  0.00    +0.005 A 
ATOM     40  C   UNL     1      -1.456   3.918   3.238  0.00  0.00    +0.044 C 
ENDBRANCH  33  34
ENDBRANCH   3  33
TORSDOF 10
