REMARK  Name = ZINC17192662
REMARK  6 active torsions:
REMARK  status: ('A' for Active; 'I' for Inactive)
REMARK    1  A    between atoms: C_4  and  N_7
REMARK    2  A    between atoms: C_8  and  C_21
REMARK    3  A    between atoms: C_11  and  S_12
REMARK    4  A    between atoms: S_12  and  C_13
REMARK    5  A    between atoms: C_13  and  C_14
REMARK    6  A    between atoms: C_21  and  C_22
REMARK                            x       y       z     vdW  Elec       q    Type
REMARK                         _______ _______ _______ _____ _____    ______ ____
ROOT
ATOM      1  N   UNL     1       1.244  -5.499  -2.405  0.00  0.00    -0.274 N 
ATOM      2  C   UNL     1       1.272  -6.684  -1.719  0.00  0.00    +0.144 A 
ATOM      3  N   UNL     1       1.279  -6.397  -0.448  0.00  0.00    -0.133 NA
ATOM      4  N   UNL     1       1.264  -5.122  -0.283  0.00  0.00    -0.122 NA
ATOM      5  C   UNL     1       1.246  -4.520  -1.449  0.00  0.00    +0.196 A 
ENDROOT
BRANCH   1   9
ATOM      6  C   UNL     1       1.178  -4.981  -6.541  0.00  0.00    +0.000 A 
ATOM      7  C   UNL     1       2.269  -4.551  -5.809  0.00  0.00    +0.002 A 
ATOM      8  C   UNL     1       2.294  -4.721  -4.439  0.00  0.00    +0.026 A 
ATOM      9  C   UNL     1       1.222  -5.325  -3.796  0.00  0.00    +0.050 A 
ATOM     10  C   UNL     1       0.130  -5.760  -4.534  0.00  0.00    +0.026 A 
ATOM     11  C   UNL     1       0.108  -5.582  -5.904  0.00  0.00    +0.002 A 
ENDBRANCH   1   9
BRANCH   5  12
ATOM     12  S   UNL     1       1.220  -2.781  -1.730  0.00  0.00    -0.081 S 
BRANCH  12  13
ATOM     13  C   UNL     1       1.228  -2.186  -0.020  0.00  0.00    +0.112 C 
BRANCH  13  14
ATOM     14  C   UNL     1       1.208  -0.679  -0.013  0.00  0.00    -0.037 A 
ATOM     15  C   UNL     1       0.002  -0.004   0.002  0.00  0.00    +0.006 A 
ATOM     16  C   UNL     1      -0.017   1.378   0.010  0.00  0.00    +0.020 A 
ATOM     17  C   UNL     1       1.172   2.086   0.002  0.00  0.00    +0.041 A 
ATOM     18  C   UNL     1       2.379   1.409  -0.013  0.00  0.00    +0.020 A 
ATOM     19  C   UNL     1       2.397   0.027  -0.020  0.00  0.00    +0.006 A 
ATOM     20 CL   UNL     1       1.149   3.821   0.011  0.00  0.00    -0.084 Cl
ENDBRANCH  13  14
ENDBRANCH  12  13
ENDBRANCH   5  12
BRANCH   2  21
ATOM     21  C   UNL     1       1.284  -8.065  -2.323  0.00  0.00    +0.130 C 
BRANCH  21  22
ATOM     22  C   UNL     1      -0.132  -8.544  -2.511  0.00  0.00    +0.033 A 
ATOM     23  C   UNL     1      -0.751  -8.381  -3.700  0.00  0.00    +0.091 A 
ATOM     24  C   UNL     1      -2.082  -8.839  -3.852  0.00  0.00    +0.254 A 
ATOM     25  O   UNL     1      -2.660  -8.704  -4.915  0.00  0.00    -0.268 OA
ATOM     26  N   UNL     1      -2.703  -9.427  -2.810  0.00  0.00    -0.275 N 
ATOM     27  H   UNL     1      -3.643  -9.753  -2.909  0.00  0.00    +0.173 HD
ATOM     28  C   UNL     1      -2.062  -9.576  -1.635  0.00  0.00    +0.327 A 
ATOM     29  O   UNL     1      -2.635 -10.108  -0.704  0.00  0.00    -0.247 OA
ATOM     30  N   UNL     1      -0.796  -9.151  -1.479  0.00  0.00    -0.311 N 
ATOM     31  H   UNL     1      -0.335  -9.279  -0.601  0.00  0.00    +0.170 HD
ENDBRANCH  21  22
ENDBRANCH   2  21
TORSDOF 6
