REMARK  Name = ZINC11801572
REMARK  5 active torsions:
REMARK  status: ('A' for Active; 'I' for Inactive)
REMARK    1  A    between atoms: C_6  and  C_7
REMARK    2  A    between atoms: C_7  and  O_8
REMARK    3  A    between atoms: O_8  and  C_9
REMARK    4  A    between atoms: C_12  and  C_15
REMARK    5  A    between atoms: C_25  and  O_27
REMARK                            x       y       z     vdW  Elec       q    Type
REMARK                         _______ _______ _______ _____ _____    ______ ____
ROOT
ATOM      1  C   UNL     1       5.288  -1.589  -1.582  0.00  0.00    +0.121 A 
ATOM      2  C   UNL     1       6.039  -2.003  -0.492  0.00  0.00    +0.046 A 
ATOM      3  C   UNL     1       7.229  -2.677  -0.691  0.00  0.00    +0.008 A 
ATOM      4  C   UNL     1       7.677  -2.927  -1.975  0.00  0.00    -0.039 A 
ATOM      5  C   UNL     1       6.933  -2.510  -3.063  0.00  0.00    +0.008 A 
ATOM      6  C   UNL     1       5.739  -1.842  -2.870  0.00  0.00    +0.046 A 
ENDROOT
BRANCH   4   7
ATOM      7  C   UNL     1       8.979  -3.655  -2.189  0.00  0.00    +0.063 C 
ATOM      8  C   UNL     1       8.897  -5.044  -1.546  0.00  0.00    +0.134 C 
ATOM      9  C   UNL     1      10.312  -5.573  -1.423  0.00  0.00    +0.313 C 
ATOM     10  O   UNL     1      10.647  -6.608  -1.948  0.00  0.00    -0.250 OA
ATOM     11  O   UNL     1      11.180  -4.836  -0.704  0.00  0.00    -0.425 OA
ATOM     12  C   UNL     1      11.130  -3.486  -0.870  0.00  0.00    +0.139 A 
ATOM     13  C   UNL     1      10.103  -2.869  -1.562  0.00  0.00    +0.003 A 
ATOM     14  C   UNL     1      10.093  -1.489  -1.694  0.00  0.00    +0.011 A 
ATOM     15  C   UNL     1      11.103  -0.726  -1.143  0.00  0.00    +0.046 A 
ATOM     16  C   UNL     1      12.138  -1.341  -0.453  0.00  0.00    +0.120 A 
ATOM     17  C   UNL     1      12.150  -2.720  -0.317  0.00  0.00    +0.092 A 
BRANCH  16  18
ATOM     18  O   UNL     1      13.135  -0.594   0.088  0.00  0.00    -0.507 OA
ATOM     19  H   UNL     1      12.965  -0.308   0.996  0.00  0.00    +0.292 HD
ENDBRANCH  16  18
ENDBRANCH   4   7
BRANCH   1  20
ATOM     20  O   UNL     1       4.114  -0.932  -1.390  0.00  0.00    -0.487 OA
BRANCH  20  21
ATOM     21  C   UNL     1       3.711  -0.707  -0.037  0.00  0.00    +0.264 C 
BRANCH  21  27
ATOM     22  C   UNL     1       1.208  -0.678  -0.013  0.00  0.00    +0.008 A 
ATOM     23  C   UNL     1       0.002  -0.004   0.002  0.00  0.00    +0.020 A 
ATOM     24  C   UNL     1      -0.017   1.379   0.010  0.00  0.00    +0.041 A 
ATOM     25  C   UNL     1       1.172   2.087   0.002  0.00  0.00    +0.020 A 
ATOM     26  C   UNL     1       2.378   1.411  -0.013  0.00  0.00    +0.008 A 
ATOM     27  C   UNL     1       2.396   0.029  -0.021  0.00  0.00    -0.010 A 
ATOM     28 CL   UNL     1      -1.532   2.227   0.021  0.00  0.00    -0.084 Cl
ENDBRANCH  21  27
ENDBRANCH  20  21
ENDBRANCH   1  20
TORSDOF 5
