REMARK  Name = ZINC35132421
REMARK  10 active torsions:
REMARK  status: ('A' for Active; 'I' for Inactive)
REMARK    1  A    between atoms: C_1  and  C_2
REMARK    2  A    between atoms: C_2  and  O_3
REMARK    3  A    between atoms: O_3  and  C_4
REMARK    4  A    between atoms: C_4  and  C_6
REMARK    5  A    between atoms: C_10  and  N_11
REMARK    6  A    between atoms: C_12  and  C_14
REMARK    7  A    between atoms: C_25  and  C_31
REMARK    8  A    between atoms: C_25  and  C_32
REMARK    9  A    between atoms: C_27  and  C_29
REMARK   10  A    between atoms: C_27  and  C_30
REMARK                            x       y       z     vdW  Elec       q    Type
REMARK                         _______ _______ _______ _____ _____    ______ ____
ROOT
ATOM      1  C   UNL     1       1.449  -2.344  -2.516  0.00  0.00    +0.091 A 
ATOM      2  C   UNL     1       2.869  -2.615  -2.533  0.00  0.00    -0.024 A 
ATOM      3  C   UNL     1       3.335  -3.110  -3.703  0.00  0.00    -0.016 A 
ATOM      4  S   UNL     1       1.904  -3.217  -4.736  0.00  0.00    -0.079 S 
ATOM      5  C   UNL     1       0.741  -2.622  -3.680  0.00  0.00    +0.087 A 
ATOM      6  C   UNL     1       4.751  -3.463  -4.014  0.00  0.00    -0.041 C 
ATOM      7  N   UNL     1       5.609  -3.405  -2.832  0.00  0.00    +0.389 N 
ATOM      8  C   UNL     1       4.944  -3.475  -1.538  0.00  0.00    -0.069 C 
ATOM      9  C   UNL     1       3.854  -2.407  -1.393  0.00  0.00    +0.024 C 
ATOM     10  C   UNL     1       4.335  -4.859  -1.304  0.00  0.00    -0.010 C 
ATOM     11  C   UNL     1       5.994  -3.229  -0.439  0.00  0.00    -0.010 C 
ATOM     12  C   UNL     1       4.804  -4.864  -4.641  0.00  0.00    -0.005 C 
ATOM     13  C   UNL     1       5.281  -2.459  -5.057  0.00  0.00    -0.005 C 
ATOM     14  H   UNL     1       6.292  -4.163  -2.888  0.00  0.00    -0.084 HD
ATOM     15  H   UNL     1       6.154  -2.541  -2.869  0.00  0.00    -0.084 HD
ENDROOT
BRANCH   5  16
ATOM     16  N   UNL     1      -0.612  -2.446  -3.914  0.00  0.00    -0.275 N 
ATOM     17  C   UNL     1      -1.137  -2.771  -5.112  0.00  0.00    +0.256 C 
ATOM     18  O   UNL     1      -0.421  -3.219  -5.988  0.00  0.00    -0.270 OA
ATOM     19  H   UNL     1      -1.182  -2.089  -3.216  0.00  0.00    +0.156 HD
BRANCH  17  20
ATOM     20  C   UNL     1      -2.575  -2.584  -5.361  0.00  0.00    +0.122 A 
ATOM     21  C   UNL     1      -3.146  -2.914  -6.583  0.00  0.00    +0.031 A 
ATOM     22  C   UNL     1      -4.533  -2.676  -6.759  0.00  0.00    +0.018 A 
ATOM     23  C   UNL     1      -5.203  -3.169  -7.888  0.00  0.00    +0.011 A 
ATOM     24  C   UNL     1      -6.546  -2.967  -8.021  0.00  0.00    +0.001 A 
ATOM     25  C   UNL     1      -7.255  -2.269  -7.053  0.00  0.00    +0.004 A 
ATOM     26  C   UNL     1      -6.613  -1.758  -5.944  0.00  0.00    +0.047 A 
ATOM     27  C   UNL     1      -5.246  -1.945  -5.790  0.00  0.00    +0.139 A 
ATOM     28  O   UNL     1      -4.597  -1.411  -4.728  0.00  0.00    -0.422 OA
ATOM     29  C   UNL     1      -3.469  -2.043  -4.321  0.00  0.00    +0.350 A 
ATOM     30  O   UNL     1      -3.200  -2.157  -3.139  0.00  0.00    -0.244 OA
ENDBRANCH  17  20
ENDBRANCH   5  16
BRANCH   1  31
ATOM     31  C   UNL     1       0.776  -1.800  -1.335  0.00  0.00    +0.342 C 
ATOM     32  O   UNL     1       0.312  -2.552  -0.499  0.00  0.00    -0.245 OA
BRANCH  31  33
ATOM     33  O   UNL     1       0.671  -0.465  -1.174  0.00  0.00    -0.461 OA
BRANCH  33  35
ATOM     34  C   UNL     1      -0.019   1.526   0.010  0.00  0.00    +0.048 C 
ATOM     35  C   UNL     1       0.002  -0.004   0.002  0.00  0.00    +0.229 C 
ENDBRANCH  33  35
ENDBRANCH  31  33
ENDBRANCH   1  31
TORSDOF 5
