REMARK  Name = ZINC38687137
REMARK  10 active torsions:
REMARK  status: ('A' for Active; 'I' for Inactive)
REMARK    1  A    between atoms: C_1  and  C_2
REMARK    2  A    between atoms: C_2  and  C_3
REMARK    3  A    between atoms: C_2  and  C_4
REMARK    4  A    between atoms: C_2  and  C_5
REMARK    5  A    between atoms: C_8  and  C_11
REMARK    6  A    between atoms: C_16  and  O_25
REMARK    7  A    between atoms: C_20  and  N_24
REMARK    8  A    between atoms: C_21  and  C_22
REMARK    9  A    between atoms: O_25  and  C_26
REMARK   10  A    between atoms: C_26  and  C_28
REMARK                            x       y       z     vdW  Elec       q    Type
REMARK                         _______ _______ _______ _____ _____    ______ ____
ROOT
ATOM      1  C   UNL     1       2.758  -1.860  -4.714  0.00  0.00    +0.098 C 
ATOM      2  C   UNL     1       3.191  -0.678  -5.540  0.00  0.00    +0.008 A 
ATOM      3  C   UNL     1       2.274  -0.052  -6.366  0.00  0.00    +0.012 A 
ATOM      4  C   UNL     1       2.653   1.033  -7.131  0.00  0.00    +0.047 A 
ATOM      5  C   UNL     1       3.959   1.500  -7.074  0.00  0.00    +0.135 A 
ATOM      6  C   UNL     1       4.880   0.876  -6.248  0.00  0.00    +0.093 A 
ATOM      7  C   UNL     1       4.497  -0.215  -5.478  0.00  0.00    +0.138 A 
ATOM      8  O   UNL     1       5.410  -0.815  -4.675  0.00  0.00    -0.441 OA
ATOM      9  C   UNL     1       5.194  -2.066  -4.233  0.00  0.00    +0.199 C 
ATOM     10  C   UNL     1       3.961  -2.617  -4.225  0.00  0.00    +0.098 C 
ENDROOT
BRANCH   1  14
ATOM     11  C   UNL     1       0.492  -0.491  -1.361  0.00  0.00    -0.042 A 
ATOM     12  C   UNL     1      -0.084  -1.344  -2.283  0.00  0.00    +0.004 A 
ATOM     13  C   UNL     1       0.649  -1.787  -3.368  0.00  0.00    +0.005 A 
ATOM     14  C   UNL     1       1.959  -1.376  -3.531  0.00  0.00    -0.035 A 
ATOM     15  C   UNL     1       2.535  -0.522  -2.610  0.00  0.00    +0.005 A 
ATOM     16  C   UNL     1       1.801  -0.076  -1.527  0.00  0.00    +0.004 A 
BRANCH  11  18
ATOM     17  C   UNL     1      -0.405   1.518  -0.218  0.00  0.00    +0.015 C 
ATOM     18  C   UNL     1      -0.307  -0.008  -0.178  0.00  0.00    -0.013 C 
ATOM     19  C   UNL     1       0.385  -0.441   1.116  0.00  0.00    +0.015 C 
ATOM     20  C   UNL     1      -1.712  -0.611  -0.232  0.00  0.00    +0.015 C 
ENDBRANCH  11  18
ENDBRANCH   1  14
BRANCH   9  21
ATOM     21  N   UNL     1       6.258  -2.803  -3.776  0.00  0.00    -0.328 N 
ATOM     22  H   UNL     1       7.149  -2.419  -3.776  0.00  0.00    +0.145 HD
ATOM     23  H   UNL     1       6.119  -3.707  -3.454  0.00  0.00    +0.145 HD
ENDBRANCH   9  21
BRANCH  10  24
ATOM     24  C   UNL     1       3.799  -3.954  -3.739  0.00  0.00    +0.101 C 
ATOM     25  N   UNL     1       3.670  -5.015  -3.353  0.00  0.00    -0.191 NA
ENDBRANCH  10  24
BRANCH   5  26
ATOM     26  O   UNL     1       4.334   2.567  -7.827  0.00  0.00    -0.422 OA
BRANCH  26  27
ATOM     27  C   UNL     1       5.181   2.350  -8.854  0.00  0.00    +0.351 C 
ATOM     28  O   UNL     1       5.503   1.216  -9.148  0.00  0.00    -0.244 OA
BRANCH  27  29
ATOM     29  C   UNL     1       5.715   3.487  -9.619  0.00  0.00    +0.144 A 
ATOM     30  C   UNL     1       6.584   3.296 -10.685  0.00  0.00    +0.033 A 
ATOM     31  C   UNL     1       7.082   4.443 -11.355  0.00  0.00    +0.018 A 
ATOM     32  C   UNL     1       7.798   4.313 -12.554  0.00  0.00    +0.011 A 
ATOM     33  C   UNL     1       8.234   5.429 -13.208  0.00  0.00    +0.001 A 
ATOM     34  C   UNL     1       7.983   6.693 -12.693  0.00  0.00    +0.004 A 
ATOM     35  C   UNL     1       7.298   6.844 -11.505  0.00  0.00    +0.047 A 
ATOM     36  C   UNL     1       6.850   5.723 -10.818  0.00  0.00    +0.139 A 
ATOM     37  O   UNL     1       6.215   5.857  -9.629  0.00  0.00    -0.422 OA
ATOM     38  C   UNL     1       5.344   4.876  -9.288  0.00  0.00    +0.351 A 
ATOM     39  O   UNL     1       4.295   5.130  -8.726  0.00  0.00    -0.244 OA
ENDBRANCH  27  29
ENDBRANCH  26  27
ENDBRANCH   5  26
TORSDOF 7
