REMARK  Name = ZINC15028016
REMARK  5 active torsions:
REMARK  status: ('A' for Active; 'I' for Inactive)
REMARK    1  A    between atoms: C_1  and  C_2
REMARK    2  A    between atoms: C_2  and  C_3
REMARK    3  A    between atoms: C_7  and  C_14
REMARK    4  A    between atoms: C_14  and  N_15
REMARK    5  A    between atoms: C_24  and  C_26
REMARK                            x       y       z     vdW  Elec       q    Type
REMARK                         _______ _______ _______ _____ _____    ______ ____
ROOT
ATOM      1  N   UNL     1       1.615  -3.278  -6.367  0.00  0.00    -0.283 NA
ATOM      2  C   UNL     1       2.616  -4.327  -6.585  0.00  0.00    +0.121 C 
ATOM      3  C   UNL     1       2.069  -5.671  -6.180  0.00  0.00    -0.030 A 
ATOM      4  C   UNL     1       2.963  -6.709  -5.961  0.00  0.00    +0.005 A 
ATOM      5  C   UNL     1       2.505  -7.958  -5.593  0.00  0.00    +0.000 A 
ATOM      6  C   UNL     1       1.148  -8.177  -5.442  0.00  0.00    +0.000 A 
ATOM      7  C   UNL     1       0.258  -7.144  -5.658  0.00  0.00    +0.004 A 
ATOM      8  C   UNL     1       0.717  -5.889  -6.026  0.00  0.00    -0.041 A 
ATOM      9  C   UNL     1      -0.291  -4.789  -6.241  0.00  0.00    +0.063 C 
ATOM     10  C   UNL     1       0.348  -3.640  -7.022  0.00  0.00    +0.148 C 
ENDROOT
BRANCH  10  11
ATOM     11  C   UNL     1      -0.579  -2.452  -7.023  0.00  0.00    +0.228 C 
ATOM     12  O   UNL     1      -0.589  -1.689  -6.080  0.00  0.00    -0.274 OA
ATOM     13  N   UNL     1      -1.397  -2.236  -8.072  0.00  0.00    -0.328 N 
ATOM     14  H   UNL     1      -1.389  -2.846  -8.826  0.00  0.00    +0.145 HD
ATOM     15  H   UNL     1      -1.993  -1.471  -8.073  0.00  0.00    +0.145 HD
ENDBRANCH  10  11
BRANCH   1  16
ATOM     16  C   UNL     1       2.102  -1.978  -6.846  0.00  0.00    +0.121 C 
BRANCH  16  21
ATOM     17  C   UNL     1       3.083   0.381  -2.339  0.00  0.00    -0.044 A 
ATOM     18  C   UNL     1       1.922   0.040  -3.019  0.00  0.00    +0.004 A 
ATOM     19  C   UNL     1       1.987  -0.597  -4.226  0.00  0.00    +0.012 A 
ATOM     20  C   UNL     1       3.233  -0.907  -4.780  0.00  0.00    +0.022 A 
ATOM     21  C   UNL     1       3.337  -1.589  -6.074  0.00  0.00    -0.016 A 
ATOM     22  C   UNL     1       4.576  -1.861  -6.558  0.00  0.00    +0.097 A 
ATOM     23  C   UNL     1       5.716  -1.486  -5.815  0.00  0.00    +0.338 A 
ATOM     24  O   UNL     1       6.822  -1.736  -6.260  0.00  0.00    -0.245 OA
ATOM     25  O   UNL     1       5.613  -0.862  -4.631  0.00  0.00    -0.422 OA
ATOM     26  C   UNL     1       4.411  -0.563  -4.095  0.00  0.00    +0.140 A 
ATOM     27  C   UNL     1       4.321   0.089  -2.871  0.00  0.00    +0.050 A 
BRANCH  17  29
ATOM     28  C   UNL     1       2.969   2.596  -1.232  0.00  0.00    +0.009 C 
ATOM     29  C   UNL     1       2.989   1.083  -1.009  0.00  0.00    +0.032 C 
ENDBRANCH  17  29
ENDBRANCH  16  21
ENDBRANCH   1  16
TORSDOF 4
