REMARK  Name = ZINC03616479
REMARK  10 active torsions:
REMARK  status: ('A' for Active; 'I' for Inactive)
REMARK    1  A    between atoms: C_1  and  C_2
REMARK    2  A    between atoms: C_2  and  S_3
REMARK    3  A    between atoms: S_3  and  C_4
REMARK    4  A    between atoms: C_4  and  C_5
REMARK    5  A    between atoms: C_5  and  O_6
REMARK    6  A    between atoms: O_6  and  C_7
REMARK    7  A    between atoms: C_7  and  C_9
REMARK    8  A    between atoms: C_10  and  C_35
REMARK    9  A    between atoms: C_14  and  C_16
REMARK   10  A    between atoms: C_27  and  C_30
REMARK                            x       y       z     vdW  Elec       q    Type
REMARK                         _______ _______ _______ _____ _____    ______ ____
ROOT
ATOM      1  C   UNL     1      -3.596   1.889   0.667  0.00  0.00    +0.065 C 
ATOM      2  C   UNL     1      -3.668   3.207   0.413  0.00  0.00    +0.016 C 
ATOM      3  N   UNL     1      -2.631   3.853  -0.193  0.00  0.00    -0.321 N 
ATOM      4  C   UNL     1      -1.379   3.302  -0.215  0.00  0.00    +0.016 C 
ATOM      5  C   UNL     1      -1.206   1.983   0.015  0.00  0.00    +0.024 C 
ATOM      6  C   UNL     1      -2.389   1.086   0.280  0.00  0.00    +0.092 C 
ATOM      7  C   UNL     1       0.077   1.408   0.016  0.00  0.00    +0.162 C 
ATOM      8  O   UNL     1       0.197   0.216   0.220  0.00  0.00    -0.292 OA
ATOM      9  C   UNL     1       1.304   2.241  -0.237  0.00  0.00    +0.088 C 
ATOM     10  C   UNL     1       1.036   3.677   0.226  0.00  0.00    +0.039 C 
ATOM     11  C   UNL     1      -0.202   4.200  -0.505  0.00  0.00    +0.060 C 
ATOM     12  C   UNL     1      -4.900   3.980   0.810  0.00  0.00    +0.061 C 
ATOM     13  H   UNL     1      -2.796   4.830  -0.671  0.00  0.00    +0.152 HD
ENDROOT
BRANCH   6  14
ATOM     14  C   UNL     1      -2.700   0.296  -0.965  0.00  0.00    -0.034 A 
ATOM     15  C   UNL     1      -3.035   0.953  -2.135  0.00  0.00    +0.006 A 
ATOM     16  C   UNL     1      -3.315   0.229  -3.278  0.00  0.00    +0.022 A 
ATOM     17  C   UNL     1      -3.272  -1.153  -3.250  0.00  0.00    +0.059 A 
ATOM     18  C   UNL     1      -2.943  -1.811  -2.077  0.00  0.00    +0.060 A 
ATOM     19  C   UNL     1      -2.657  -1.085  -0.935  0.00  0.00    +0.026 A 
ATOM     20 CL   UNL     1      -2.888  -3.546  -2.040  0.00  0.00    -0.082 Cl
ATOM     21 CL   UNL     1      -3.632  -2.063  -4.684  0.00  0.00    -0.082 Cl
ENDBRANCH   6  14
BRANCH  10  22
ATOM     22  C   UNL     1       2.224   4.545  -0.103  0.00  0.00    -0.006 A 
ATOM     23  C   UNL     1       3.017   5.258   0.732  0.00  0.00    +0.011 A 
ATOM     24  C   UNL     1       4.062   5.991   0.201  0.00  0.00    +0.008 A 
ATOM     25  C   UNL     1       4.263   5.974  -1.139  0.00  0.00    +0.045 A 
ATOM     26  S   UNL     1       2.954   4.893  -1.694  0.00  0.00    -0.101 S 
ENDBRANCH  10  22
BRANCH   1  27
ATOM     27  C   UNL     1      -4.679   1.247   1.312  0.00  0.00    +0.338 C 
ATOM     28  O   UNL     1      -5.609   1.905   1.741  0.00  0.00    -0.245 OA
BRANCH  27  29
ATOM     29  O   UNL     1      -4.681  -0.095   1.452  0.00  0.00    -0.460 OA
BRANCH  29  30
ATOM     30  C   UNL     1      -5.806  -0.677   2.114  0.00  0.00    +0.243 C 
BRANCH  30  31
ATOM     31  C   UNL     1      -5.631  -2.196   2.178  0.00  0.00    +0.110 C 
BRANCH  31  32
ATOM     32  S   UNL     1      -7.060  -2.934   3.018  0.00  0.00    -0.158 S 
BRANCH  32  34
ATOM     33  C   UNL     1      -7.843  -5.465   3.699  0.00  0.00    +0.015 C 
ATOM     34  C   UNL     1      -6.702  -4.712   3.011  0.00  0.00    +0.066 C 
ENDBRANCH  32  34
ENDBRANCH  31  32
ENDBRANCH  30  31
ENDBRANCH  29  30
ENDBRANCH  27  29
ENDBRANCH   1  27
TORSDOF 8
