REMARK  Name = ZINC20891663
REMARK  8 active torsions:
REMARK  status: ('A' for Active; 'I' for Inactive)
REMARK    1  A    between atoms: C_1  and  C_2
REMARK    2  A    between atoms: C_4  and  C_31
REMARK    3  A    between atoms: C_11  and  C_13
REMARK    4  A    between atoms: C_14  and  C_21
REMARK    5  A    between atoms: C_26  and  O_27
REMARK    6  A    between atoms: O_27  and  C_28
REMARK    7  A    between atoms: C_28  and  C_29
REMARK    8  A    between atoms: C_28  and  C_30
REMARK                            x       y       z     vdW  Elec       q    Type
REMARK                         _______ _______ _______ _____ _____    ______ ____
ROOT
ATOM      1  C   UNL     1      -0.784  -4.562   7.670  0.00  0.00    +0.066 C 
ATOM      2  C   UNL     1      -0.045  -4.933   6.410  0.00  0.00    +0.044 A 
ATOM      3  C   UNL     1       0.507  -6.196   6.266  0.00  0.00    +0.046 A 
ATOM      4  C   UNL     1       1.178  -6.495   5.091  0.00  0.00    +0.044 A 
ATOM      5  N   UNL     1       1.270  -5.572   4.148  0.00  0.00    -0.216 NA
ATOM      6  C   UNL     1       0.730  -4.375   4.317  0.00  0.00    +0.253 A 
ATOM      7  N   UNL     1       0.087  -4.055   5.429  0.00  0.00    -0.216 NA
ATOM      8  N   UNL     1       0.846  -3.427   3.302  0.00  0.00    -0.183 N 
ATOM      9  C   UNL     1       1.598  -3.559   2.153  0.00  0.00    +0.137 A 
ATOM     10  C   UNL     1       1.441  -2.420   1.446  0.00  0.00    +0.033 A 
ATOM     11  C   UNL     1       0.573  -1.577   2.173  0.00  0.00    +0.067 A 
ATOM     12  N   UNL     1       0.225  -2.178   3.274  0.00  0.00    -0.167 NA
ATOM     13  C   UNL     1       0.122  -0.204   1.745  0.00  0.00    +0.068 C 
ATOM     14  C   UNL     1       2.024  -2.012   0.129  0.00  0.00    +0.115 C 
ATOM     15  S   UNL     1       3.682  -2.644  -0.140  0.00  0.00    -0.138 S 
ATOM     16  C   UNL     1       3.513  -4.427  -0.298  0.00  0.00    +0.166 C 
ATOM     17  C   UNL     1       3.135  -5.086   0.970  0.00  0.00    +0.228 C 
ATOM     18  O   UNL     1       3.668  -6.157   1.167  0.00  0.00    -0.275 OA
ATOM     19  N   UNL     1       2.322  -4.700   1.906  0.00  0.00    -0.269 N 
ATOM     20  C   UNL     1       1.795  -7.855   4.889  0.00  0.00    +0.066 C 
ATOM     21  H   UNL     1       2.271  -5.546   2.607  0.00  0.00    +0.156 HD
ENDROOT
BRANCH  14  22
ATOM     22  C   UNL     1       2.064  -0.507   0.064  0.00  0.00    +0.012 A 
ATOM     23  C   UNL     1       1.124   0.178  -0.683  0.00  0.00    +0.008 A 
ATOM     24  C   UNL     1       1.160   1.559  -0.744  0.00  0.00    +0.001 A 
ATOM     25  C   UNL     1       2.136   2.258  -0.057  0.00  0.00    +0.004 A 
ATOM     26  C   UNL     1       3.077   1.578   0.691  0.00  0.00    +0.046 A 
ATOM     27  C   UNL     1       3.043   0.193   0.753  0.00  0.00    +0.125 A 
BRANCH  27  28
ATOM     28  O   UNL     1       3.969  -0.479   1.488  0.00  0.00    -0.489 OA
BRANCH  28  29
ATOM     29  C   UNL     1       4.973   0.303   2.137  0.00  0.00    +0.167 C 
ATOM     30  C   UNL     1       5.563  -0.491   3.304  0.00  0.00    +0.051 C 
ATOM     31  C   UNL     1       6.082   0.641   1.138  0.00  0.00    +0.051 C 
ENDBRANCH  28  29
ENDBRANCH  27  28
ENDBRANCH  14  22
TORSDOF 3
