REMARK  Name = ZINC36508389
REMARK  16 active torsions:
REMARK  status: ('A' for Active; 'I' for Inactive)
REMARK    1  A    between atoms: C_1  and  C_2
REMARK    2  A    between atoms: C_2  and  C_3
REMARK    3  A    between atoms: C_3  and  C_4
REMARK    4  A    between atoms: C_4  and  C_5
REMARK    5  A    between atoms: C_5  and  C_6
REMARK    6  A    between atoms: C_6  and  N_7
REMARK    7  A    between atoms: N_7  and  C_8
REMARK    8  A    between atoms: C_8  and  C_10
REMARK    9  A    between atoms: C_8  and  C_19
REMARK   10  A    between atoms: C_10  and  C_12
REMARK   11  A    between atoms: C_10  and  C_13
REMARK   12  A    between atoms: N_21  and  C_22
REMARK   13  A    between atoms: C_22  and  S_23
REMARK   14  A    between atoms: S_23  and  C_26
REMARK   15  A    between atoms: C_29  and  C_32
REMARK   16  A    between atoms: C_33  and  C_35
REMARK                            x       y       z     vdW  Elec       q    Type
REMARK                         _______ _______ _______ _____ _____    ______ ____
ROOT
ATOM      1  C   UNL     1      -5.163  -4.481  -1.175  0.00  0.00    +0.169 C 
ENDROOT
BRANCH   1   2
ATOM      2  C   UNL     1      -6.586  -4.033  -0.960  0.00  0.00    +0.235 C 
ATOM      3  O   UNL     1      -6.933  -3.615   0.124  0.00  0.00    -0.274 OA
ATOM      4  N   UNL     1      -7.473  -4.098  -1.973  0.00  0.00    -0.295 N 
ATOM      5  H   UNL     1      -7.195  -4.433  -2.840  0.00  0.00    +0.150 HD
BRANCH   4   6
ATOM      6  C   UNL     1      -8.856  -3.663  -1.764  0.00  0.00    +0.278 C 
BRANCH   6   7
ATOM      7  S   UNL     1      -9.033  -1.937  -2.294  0.00  0.00    +0.013 S 
ATOM      8  O   UNL     1     -10.384  -1.519  -2.157  0.00  0.00    -0.168 OA
ATOM      9  O   UNL     1      -7.974  -1.151  -1.764  0.00  0.00    -0.168 OA
BRANCH   7  10
ATOM     10  C   UNL     1      -8.745  -1.965  -4.032  0.00  0.00    +0.090 A 
ATOM     11  C   UNL     1      -7.463  -1.803  -4.523  0.00  0.00    +0.027 A 
ATOM     12  C   UNL     1      -7.237  -1.825  -5.887  0.00  0.00    +0.005 A 
ATOM     13  C   UNL     1      -8.293  -2.009  -6.759  0.00  0.00    -0.050 A 
ATOM     14  C   UNL     1      -9.575  -2.172  -6.268  0.00  0.00    +0.005 A 
ATOM     15  C   UNL     1      -9.800  -2.154  -4.905  0.00  0.00    +0.027 A 
ATOM     16  C   UNL     1      -8.047  -2.032  -8.246  0.00  0.00    +0.044 C 
ENDBRANCH   7  10
ENDBRANCH   6   7
ENDBRANCH   4   6
ENDBRANCH   1   2
BRANCH   1  17
ATOM     17  N   UNL     1      -4.405  -4.313   0.068  0.00  0.00    -0.289 N 
ATOM     18  C   UNL     1      -4.787  -4.965   1.184  0.00  0.00    +0.219 C 
ATOM     19  O   UNL     1      -5.707  -5.755   1.140  0.00  0.00    -0.275 OA
BRANCH  18  20
ATOM     20  C   UNL     1      -4.072  -4.713   2.486  0.00  0.00    +0.075 C 
ATOM     21  C   UNL     1      -2.697  -5.383   2.451  0.00  0.00    +0.013 C 
ATOM     22  C   UNL     1      -1.971  -5.127   3.773  0.00  0.00    +0.001 C 
ATOM     23  C   UNL     1      -2.792  -5.707   4.926  0.00  0.00    +0.000 C 
ATOM     24  C   UNL     1      -4.167  -5.037   4.962  0.00  0.00    +0.001 C 
ATOM     25  C   UNL     1      -4.893  -5.293   3.640  0.00  0.00    +0.013 C 
ENDBRANCH  18  20
BRANCH  17  26
ATOM     26  C   UNL     1      -3.233  -3.436   0.097  0.00  0.00    +0.108 C 
BRANCH  26  27
ATOM     27  C   UNL     1      -3.682  -1.991   0.324  0.00  0.00    +0.019 C 
BRANCH  27  28
ATOM     28  C   UNL     1      -2.457  -1.074   0.354  0.00  0.00    +0.002 C 
BRANCH  28  29
ATOM     29  C   UNL     1      -2.907   0.371   0.581  0.00  0.00    -0.000 C 
BRANCH  29  31
ATOM     30  C   UNL     1      -2.131   2.732   0.837  0.00  0.00    +0.004 C 
ATOM     31  C   UNL     1      -1.682   1.287   0.611  0.00  0.00    -0.003 C 
ENDBRANCH  29  31
ENDBRANCH  28  29
ENDBRANCH  27  28
ENDBRANCH  26  27
ENDBRANCH  17  26
ENDBRANCH   1  17
BRANCH   1  32
ATOM     32  C   UNL     1      -5.149  -5.955  -1.585  0.00  0.00    +0.045 C 
ATOM     33  C   UNL     1      -3.704  -6.410  -1.802  0.00  0.00    +0.015 C 
BRANCH  32  34
ATOM     34  C   UNL     1      -5.928  -6.129  -2.863  0.00  0.00    -0.042 A 
ATOM     35  C   UNL     1      -5.533  -5.465  -4.009  0.00  0.00    +0.004 A 
ATOM     36  C   UNL     1      -6.248  -5.624  -5.181  0.00  0.00    +0.000 A 
ATOM     37  C   UNL     1      -7.358  -6.447  -5.207  0.00  0.00    +0.000 A 
ATOM     38  C   UNL     1      -7.752  -7.113  -4.062  0.00  0.00    +0.000 A 
ATOM     39  C   UNL     1      -7.035  -6.957  -2.890  0.00  0.00    +0.004 A 
ENDBRANCH  32  34
ENDBRANCH   1  32
TORSDOF 13
