REMARK  Name = ZINC29580181
REMARK  8 active torsions:
REMARK  status: ('A' for Active; 'I' for Inactive)
REMARK    1  A    between atoms: C_1  and  C_2
REMARK    2  A    between atoms: C_2  and  C_26
REMARK    3  A    between atoms: N_5  and  N_9
REMARK    4  A    between atoms: C_10  and  C_12
REMARK    5  A    between atoms: C_19  and  C_22
REMARK    6  A    between atoms: C_22  and  C_23
REMARK    7  A    between atoms: C_22  and  C_24
REMARK    8  A    between atoms: C_22  and  C_25
REMARK                            x       y       z     vdW  Elec       q    Type
REMARK                         _______ _______ _______ _____ _____    ______ ____
ROOT
ATOM      1  N   UNL     1      -2.518  -1.955   1.783  0.00  0.00    -0.219 N 
ATOM      2  C   UNL     1      -2.586  -3.298   1.684  0.00  0.00    +0.267 C 
ATOM      3  O   UNL     1      -1.679  -3.916   1.161  0.00  0.00    -0.268 OA
ATOM      4  H   UNL     1      -3.242  -1.462   2.200  0.00  0.00    +0.174 HD
ENDROOT
BRANCH   1   9
ATOM      5  C   UNL     1      -0.019   1.526   0.010  0.00  0.00    +0.047 C 
ATOM      6  C   UNL     1       0.002  -0.004   0.002  0.00  0.00    +0.137 C 
ATOM      7  C   UNL     1      -1.403  -0.557   0.139  0.00  0.00    +0.267 C 
ATOM      8  O   UNL     1      -2.332  -0.392  -0.621  0.00  0.00    -0.271 OA
ATOM      9  N   UNL     1      -1.403  -1.272   1.282  0.00  0.00    -0.137 N 
ATOM     10  C   UNL     1      -0.206  -1.247   1.879  0.00  0.00    +0.327 C 
ATOM     11  O   UNL     1       0.040  -1.819   2.924  0.00  0.00    -0.251 OA
ATOM     12  N   UNL     1       0.695  -0.520   1.195  0.00  0.00    -0.280 N 
ATOM     13  H   UNL     1       1.621  -0.365   1.440  0.00  0.00    +0.152 HD
BRANCH   6  14
ATOM     14  C   UNL     1       0.657  -0.517  -1.255  0.00  0.00    -0.015 A 
ATOM     15  C   UNL     1      -0.107  -0.772  -2.378  0.00  0.00    +0.006 A 
ATOM     16  C   UNL     1       0.493  -1.242  -3.530  0.00  0.00    +0.000 A 
ATOM     17  C   UNL     1       1.859  -1.457  -3.560  0.00  0.00    +0.000 A 
ATOM     18  C   UNL     1       2.623  -1.202  -2.437  0.00  0.00    +0.000 A 
ATOM     19  C   UNL     1       2.023  -0.727  -1.286  0.00  0.00    +0.006 A 
ENDBRANCH   6  14
ENDBRANCH   1   9
BRANCH   2  20
ATOM     20  C   UNL     1      -3.754  -4.013   2.208  0.00  0.00    +0.076 A 
ATOM     21  C   UNL     1      -4.015  -5.371   2.213  0.00  0.00    +0.024 A 
ATOM     22  C   UNL     1      -5.213  -5.776   2.782  0.00  0.00    -0.036 A 
ATOM     23  C   UNL     1      -6.017  -4.794   3.281  0.00  0.00    -0.006 A 
ATOM     24  S   UNL     1      -5.205  -3.360   3.013  0.00  0.00    -0.088 S 
ATOM     25  C   UNL     1      -7.352  -4.976   3.942  0.00  0.00    +0.043 C 
ATOM     26  C   UNL     1      -7.512  -6.457   4.313  0.00  0.00    +0.009 C 
ATOM     27  C   UNL     1      -7.140  -7.312   3.098  0.00  0.00    -0.001 C 
ATOM     28  C   UNL     1      -5.632  -7.242   2.856  0.00  0.00    +0.040 C 
BRANCH  27  29
ATOM     29  C   UNL     1      -7.545  -8.765   3.356  0.00  0.00    -0.035 C 
ATOM     30  C   UNL     1      -9.055  -8.839   3.591  0.00  0.00    +0.011 C 
ATOM     31  C   UNL     1      -7.175  -9.620   2.143  0.00  0.00    +0.011 C 
ATOM     32  C   UNL     1      -6.811  -9.287   4.592  0.00  0.00    +0.011 C 
ENDBRANCH  27  29
ENDBRANCH   2  20
TORSDOF 4
