REMARK  Name = ZINC28752987
REMARK  6 active torsions:
REMARK  status: ('A' for Active; 'I' for Inactive)
REMARK    1  A    between atoms: C_1  and  C_2
REMARK    2  A    between atoms: C_7  and  N_8
REMARK    3  A    between atoms: C_9  and  C_11
REMARK    4  A    between atoms: C_11  and  C_13
REMARK    5  A    between atoms: C_11  and  S_14
REMARK    6  A    between atoms: S_14  and  C_15
REMARK                            x       y       z     vdW  Elec       q    Type
REMARK                         _______ _______ _______ _____ _____    ______ ____
ROOT
ATOM      1  N   UNL     1      -1.191   1.867   0.018  0.00  0.00    -0.284 N 
ATOM      2  C   UNL     1      -0.014   1.209   0.005  0.00  0.00    +0.230 C 
ATOM      3  O   UNL     1       0.003  -0.004   0.005  0.00  0.00    -0.274 OA
ATOM      4  H   UNL     1      -1.207   2.963   0.109  0.00  0.00    +0.155 HD
ENDROOT
BRANCH   1  11
ATOM      5  C   UNL     1      -3.546   3.041   1.099  0.00  0.00    +0.046 C 
ATOM      6  C   UNL     1      -3.564   1.691   0.428  0.00  0.00    -0.028 A 
ATOM      7  C   UNL     1      -4.749   0.989   0.321  0.00  0.00    +0.025 A 
ATOM      8  C   UNL     1      -4.765  -0.253  -0.290  0.00  0.00    +0.041 A 
ATOM      9  C   UNL     1      -3.597  -0.791  -0.799  0.00  0.00    +0.022 A 
ATOM     10  C   UNL     1      -2.411  -0.091  -0.699  0.00  0.00    +0.025 A 
ATOM     11  C   UNL     1      -2.391   1.155  -0.086  0.00  0.00    +0.036 A 
ATOM     12 CL   UNL     1      -6.255  -1.135  -0.418  0.00  0.00    -0.084 Cl
ENDBRANCH   1  11
BRANCH   2  13
ATOM     13  C   UNL     1       1.280   1.980  -0.015  0.00  0.00    +0.136 C 
ATOM     14  C   UNL     1       1.568   2.456  -1.440  0.00  0.00    +0.029 C 
BRANCH  13  15
ATOM     15  S   UNL     1       2.631   0.909   0.550  0.00  0.00    -0.092 S 
BRANCH  15  16
ATOM     16  C   UNL     1       4.028   1.982   0.611  0.00  0.00    +0.120 A 
ATOM     17  C   UNL     1       5.270   1.492   1.018  0.00  0.00    +0.039 A 
ATOM     18  C   UNL     1       6.337   2.375   1.045  0.00  0.00    +0.044 A 
ATOM     19  C   UNL     1       6.104   3.694   0.675  0.00  0.00    +0.152 A 
ATOM     20  N   UNL     1       4.894   4.072   0.309  0.00  0.00    -0.137 NA
ATOM     21  N   UNL     1       3.902   3.258   0.277  0.00  0.00    -0.142 NA
ATOM     22 CL   UNL     1       7.403   4.845   0.696  0.00  0.00    -0.060 Cl
ENDBRANCH  15  16
ENDBRANCH  13  15
ENDBRANCH   2  13
TORSDOF 4
