REMARK  Name = ZINC59600139
REMARK  8 active torsions:
REMARK  status: ('A' for Active; 'I' for Inactive)
REMARK    1  A    between atoms: C_1  and  C_2
REMARK    2  A    between atoms: C_2  and  O_3
REMARK    3  A    between atoms: O_3  and  C_4
REMARK    4  A    between atoms: C_4  and  C_6
REMARK    5  A    between atoms: C_7  and  C_34
REMARK    6  A    between atoms: C_14  and  C_15
REMARK    7  A    between atoms: C_20  and  O_21
REMARK    8  A    between atoms: C_25  and  C_27
REMARK                            x       y       z     vdW  Elec       q    Type
REMARK                         _______ _______ _______ _____ _____    ______ ____
ROOT
ATOM      1  C   UNL     1       2.490  -2.636  -2.175  0.00  0.00    +0.085 C 
ATOM      2  C   UNL     1       2.569  -3.963  -2.493  0.00  0.00    +0.053 C 
ATOM      3  N   UNL     1       3.016  -4.347  -3.682  0.00  0.00    -0.228 NA
ATOM      4  C   UNL     1       3.410  -3.534  -4.630  0.00  0.00    +0.178 A 
ATOM      5  N   UNL     1       3.413  -2.163  -4.518  0.00  0.00    -0.275 N 
ATOM      6  C   UNL     1       3.839  -1.434  -5.557  0.00  0.00    +0.268 A 
ATOM      7  O   UNL     1       3.860  -0.218  -5.503  0.00  0.00    -0.266 OA
ATOM      8  C   UNL     1       4.283  -2.146  -6.763  0.00  0.00    +0.081 A 
ATOM      9  C   UNL     1       4.753  -1.647  -7.936  0.00  0.00    +0.032 C 
ATOM     10  S   UNL     1       4.035  -3.844  -6.270  0.00  0.00    -0.046 S 
ATOM     11  C   UNL     1       2.921  -1.629  -3.216  0.00  0.00    +0.162 C 
ATOM     12  C   UNL     1       2.144  -4.999  -1.484  0.00  0.00    +0.066 C 
ENDROOT
BRANCH   9  13
ATOM     13  C   UNL     1       4.689  -0.205  -8.198  0.00  0.00    +0.020 A 
ATOM     14  C   UNL     1       3.527   0.516  -7.896  0.00  0.00    +0.031 A 
ATOM     15  C   UNL     1       3.474   1.870  -8.144  0.00  0.00    +0.043 A 
ATOM     16  C   UNL     1       4.567   2.524  -8.693  0.00  0.00    +0.043 A 
ATOM     17  C   UNL     1       5.721   1.825  -8.997  0.00  0.00    +0.084 A 
ATOM     18  C   UNL     1       5.795   0.463  -8.748  0.00  0.00    +0.142 A 
ATOM     19 CL   UNL     1       7.082   2.656  -9.684  0.00  0.00    -0.080 Cl
ATOM     20 CL   UNL     1       2.033   2.762  -7.770  0.00  0.00    -0.083 Cl
BRANCH  18  21
ATOM     21  O   UNL     1       6.930  -0.223  -9.041  0.00  0.00    -0.505 OA
ATOM     22  H   UNL     1       6.951  -0.583  -9.938  0.00  0.00    +0.292 HD
ENDBRANCH  18  21
ENDBRANCH   9  13
BRANCH  11  23
ATOM     23  C   UNL     1       4.020  -0.787  -2.621  0.00  0.00    -0.020 A 
ATOM     24  C   UNL     1       5.315  -1.270  -2.582  0.00  0.00    +0.009 A 
ATOM     25  C   UNL     1       6.324  -0.499  -2.036  0.00  0.00    +0.039 A 
ATOM     26  C   UNL     1       6.038   0.757  -1.529  0.00  0.00    +0.123 A 
ATOM     27  C   UNL     1       4.741   1.239  -1.569  0.00  0.00    +0.039 A 
ATOM     28  C   UNL     1       3.734   0.469  -2.119  0.00  0.00    +0.009 A 
ATOM     29  F   UNL     1       7.024   1.511  -0.995  0.00  0.00    -0.205 F 
ENDBRANCH  11  23
BRANCH   1  30
ATOM     30  C   UNL     1       2.018  -2.220  -0.920  0.00  0.00    +0.339 C 
ATOM     31  O   UNL     1       1.543  -3.034  -0.148  0.00  0.00    -0.245 OA
BRANCH  30  32
ATOM     32  O   UNL     1       2.091  -0.918  -0.568  0.00  0.00    -0.462 OA
BRANCH  32  34
ATOM     33  C   UNL     1       1.757   0.939   0.942  0.00  0.00    +0.048 C 
ATOM     34  C   UNL     1       1.592  -0.567   0.724  0.00  0.00    +0.229 C 
ENDBRANCH  32  34
ENDBRANCH  30  32
ENDBRANCH   1  30
TORSDOF 6
