REMARK  Name = ZINC60342357
REMARK  6 active torsions:
REMARK  status: ('A' for Active; 'I' for Inactive)
REMARK    1  A    between atoms: C_4  and  C_7
REMARK    2  A    between atoms: C_9  and  C_12
REMARK    3  A    between atoms: C_12  and  C_13
REMARK    4  A    between atoms: C_13  and  N_14
REMARK    5  A    between atoms: C_15  and  C_17
REMARK    6  A    between atoms: C_17  and  C_22
REMARK                            x       y       z     vdW  Elec       q    Type
REMARK                         _______ _______ _______ _____ _____    ______ ____
ROOT
ATOM      1  N   UNL     1       5.817  -5.818   1.022  0.00  0.00    -0.314 N 
ATOM      2  C   UNL     1       5.507  -6.690   2.002  0.00  0.00    +0.224 C 
ATOM      3  O   UNL     1       4.806  -6.338   2.927  0.00  0.00    -0.275 OA
ATOM      4  H   UNL     1       6.436  -6.076   0.321  0.00  0.00    +0.149 HD
ENDROOT
BRANCH   2   5
ATOM      5  C   UNL     1       6.031  -8.101   1.948  0.00  0.00    +0.072 C 
ATOM      6  C   UNL     1       5.604  -8.773   0.631  0.00  0.00    +0.021 C 
ATOM      7  C   UNL     1       4.743  -9.993   1.017  0.00  0.00    +0.001 C 
ATOM      8  C   UNL     1       4.207  -9.649   2.429  0.00  0.00    +0.001 C 
ATOM      9  C   UNL     1       5.415  -8.938   3.088  0.00  0.00    +0.021 C 
BRANCH   5  10
ATOM     10  C   UNL     1       7.533  -8.099   2.064  0.00  0.00    -0.032 A 
ATOM     11  C   UNL     1       8.204  -6.919   2.327  0.00  0.00    +0.006 A 
ATOM     12  C   UNL     1       9.582  -6.916   2.434  0.00  0.00    +0.015 A 
ATOM     13  C   UNL     1      10.290  -8.094   2.277  0.00  0.00    +0.018 A 
ATOM     14  C   UNL     1       9.619  -9.274   2.013  0.00  0.00    +0.015 A 
ATOM     15  C   UNL     1       8.240  -9.277   1.912  0.00  0.00    +0.006 A 
ATOM     16 BR   UNL     1      12.176  -8.090   2.422  0.00  0.00    -0.050 Br
ENDBRANCH   5  10
ENDBRANCH   2   5
BRANCH   1  17
ATOM     17  C   UNL     1       5.220  -4.480   1.016  0.00  0.00    +0.110 C 
BRANCH  17  18
ATOM     18  C   UNL     1       5.735  -3.697  -0.194  0.00  0.00    +0.077 C 
BRANCH  18  21
ATOM     19  C   UNL     1       3.657  -0.738  -0.187  0.00  0.00    +0.227 A 
ATOM     20  N   UNL     1       3.809  -2.042  -0.169  0.00  0.00    -0.214 NA
ATOM     21  C   UNL     1       5.120  -2.321  -0.201  0.00  0.00    +0.081 A 
ATOM     22  C   UNL     1       5.790  -1.155  -0.239  0.00  0.00    +0.221 A 
ATOM     23  O   UNL     1       4.873  -0.167  -0.236  0.00  0.00    -0.443 OA
BRANCH  19  27
ATOM     24  C   UNL     1      -0.053   1.328  -0.120  0.00  0.00    +0.000 A 
ATOM     25  C   UNL     1       1.132   2.041  -0.170  0.00  0.00    +0.001 A 
ATOM     26  C   UNL     1       2.340   1.376  -0.192  0.00  0.00    +0.013 A 
ATOM     27  C   UNL     1       2.366  -0.019  -0.163  0.00  0.00    +0.037 A 
ATOM     28  C   UNL     1       1.167  -0.732  -0.113  0.00  0.00    +0.013 A 
ATOM     29  C   UNL     1      -0.035  -0.055  -0.092  0.00  0.00    +0.001 A 
ENDBRANCH  19  27
ENDBRANCH  18  21
ENDBRANCH  17  18
ENDBRANCH   1  17
TORSDOF 6
