REMARK  Name = ZINC27249907
REMARK  11 active torsions:
REMARK  status: ('A' for Active; 'I' for Inactive)
REMARK    1  A    between atoms: C_1  and  C_2
REMARK    2  A    between atoms: C_2  and  C_3
REMARK    3  A    between atoms: C_3  and  C_4
REMARK    4  A    between atoms: C_4  and  C_5
REMARK    5  A    between atoms: C_4  and  C_13
REMARK    6  A    between atoms: C_4  and  O_29
REMARK    7  A    between atoms: C_8  and  O_11
REMARK    8  A    between atoms: O_11  and  C_12
REMARK    9  A    between atoms: C_13  and  C_15
REMARK   10  A    between atoms: C_13  and  C_22
REMARK   11  A    between atoms: C_15  and  N_16
REMARK                            x       y       z     vdW  Elec       q    Type
REMARK                         _______ _______ _______ _____ _____    ______ ____
ROOT
ATOM      1  C   UNL     1       0.139   1.993  -0.435  0.00  0.00    +0.039 C 
ENDROOT
BRANCH   1   2
ATOM      2  C   UNL     1       0.376   0.587  -0.924  0.00  0.00    -0.043 A 
ATOM      3  C   UNL     1      -0.687  -0.285  -1.062  0.00  0.00    +0.005 A 
ATOM      4  C   UNL     1      -0.470  -1.573  -1.516  0.00  0.00    +0.020 A 
ATOM      5  C   UNL     1       0.812  -1.992  -1.821  0.00  0.00    +0.041 A 
ATOM      6  C   UNL     1       1.877  -1.120  -1.678  0.00  0.00    +0.020 A 
ATOM      7  C   UNL     1       1.658   0.169  -1.229  0.00  0.00    +0.005 A 
ATOM      8 CL   UNL     1       1.086  -3.611  -2.384  0.00  0.00    -0.084 Cl
ENDBRANCH   1   2
BRANCH   1   9
ATOM      9  C   UNL     1      -0.547   1.948   0.932  0.00  0.00    +0.096 C 
BRANCH   9  10
ATOM     10  C   UNL     1      -0.941   3.343   1.342  0.00  0.00    -0.015 A 
ATOM     11  C   UNL     1      -0.057   4.391   1.160  0.00  0.00    +0.010 A 
ATOM     12  C   UNL     1      -0.418   5.673   1.530  0.00  0.00    +0.046 A 
ATOM     13  C   UNL     1      -1.664   5.905   2.096  0.00  0.00    +0.120 A 
ATOM     14  C   UNL     1      -2.546   4.851   2.282  0.00  0.00    +0.046 A 
ATOM     15  C   UNL     1      -2.182   3.573   1.905  0.00  0.00    +0.010 A 
BRANCH  13  16
ATOM     16  O   UNL     1      -2.019   7.164   2.465  0.00  0.00    -0.495 OA
ATOM     17  C   UNL     1      -1.060   8.200   2.243  0.00  0.00    +0.277 C 
ENDBRANCH  13  16
ENDBRANCH   9  10
BRANCH   9  18
ATOM     18  O   UNL     1      -1.714   1.127   0.853  0.00  0.00    -0.383 OA
ATOM     19  H   UNL     1      -2.525   1.390   0.158  0.00  0.00    +0.211 HD
ENDBRANCH   9  18
BRANCH   9  20
ATOM     20  C   UNL     1       0.418   1.365   1.967  0.00  0.00    +0.040 C 
BRANCH  20  22
ATOM     21  C   UNL     1       1.686  -0.677   2.650  0.00  0.00    +0.004 C 
ATOM     22  C   UNL     1       0.683  -0.107   1.645  0.00  0.00    -0.000 C 
ENDBRANCH  20  22
ENDBRANCH   9  20
ENDBRANCH   1   9
BRANCH   1  23
ATOM     23  C   UNL     1      -0.756   2.734  -1.430  0.00  0.00    -0.068 C 
BRANCH  23  24
ATOM     24  N   UNL     1      -0.061   2.855  -2.719  0.00  0.00    +0.380 N 
ATOM     25  C   UNL     1       1.123   3.715  -2.599  0.00  0.00    -0.079 C 
ATOM     26  C   UNL     1       1.901   3.701  -3.917  0.00  0.00    -0.019 C 
ATOM     27  C   UNL     1       0.995   4.204  -5.043  0.00  0.00    -0.004 C 
ATOM     28  C   UNL     1      -0.255   3.321  -5.116  0.00  0.00    -0.019 C 
ATOM     29  C   UNL     1      -0.970   3.346  -3.763  0.00  0.00    -0.079 C 
ATOM     30  H   UNL     1       0.280   1.853  -3.016  0.00  0.00    -0.082 HD
ENDBRANCH  23  24
ENDBRANCH   1  23
TORSDOF 9
