REMARK  Name = ZINC39364850
REMARK  4 active torsions:
REMARK  status: ('A' for Active; 'I' for Inactive)
REMARK    1  A    between atoms: C_4  and  N_7
REMARK    2  A    between atoms: C_8  and  S_19
REMARK    3  A    between atoms: S_19  and  C_20
REMARK    4  A    between atoms: C_20  and  C_21
REMARK                            x       y       z     vdW  Elec       q    Type
REMARK                         _______ _______ _______ _____ _____    ______ ____
ROOT
ATOM      1  N   UNL     1       3.621  -0.650  -0.037  0.00  0.00    -0.239 N 
ATOM      2  C   UNL     1       3.631  -2.110   0.060  0.00  0.00    +0.227 C 
ATOM      3  N   UNL     1       4.753  -2.664  -0.707  0.00  0.00    -0.317 N 
ATOM      4  C   UNL     1       5.996  -2.048  -0.613  0.00  0.00    +0.041 A 
ATOM      5  C   UNL     1       7.175  -2.756  -0.779  0.00  0.00    +0.024 A 
ATOM      6  C   UNL     1       8.386  -2.098  -0.688  0.00  0.00    +0.002 A 
ATOM      7  C   UNL     1       8.432  -0.737  -0.432  0.00  0.00    +0.001 A 
ATOM      8  C   UNL     1       7.267  -0.018  -0.259  0.00  0.00    +0.015 A 
ATOM      9  C   UNL     1       6.038  -0.669  -0.344  0.00  0.00    +0.058 A 
ATOM     10  C   UNL     1       4.768   0.050  -0.148  0.00  0.00    +0.255 C 
ATOM     11  O   UNL     1       4.755   1.264  -0.082  0.00  0.00    -0.269 OA
ATOM     12  H   UNL     1       4.630  -3.445  -1.268  0.00  0.00    +0.149 HD
ENDROOT
BRANCH   1  16
ATOM     13  C   UNL     1      -0.017   1.377   0.011  0.00  0.00    +0.000 A 
ATOM     14  C   UNL     1       0.513   0.941  -1.189  0.00  0.00    +0.002 A 
ATOM     15  C   UNL     1       1.719   0.269  -1.209  0.00  0.00    +0.023 A 
ATOM     16  C   UNL     1       2.400   0.031  -0.021  0.00  0.00    +0.039 A 
ATOM     17  C   UNL     1       1.864   0.471   1.182  0.00  0.00    +0.023 A 
ATOM     18  C   UNL     1       0.657   1.143   1.195  0.00  0.00    +0.002 A 
ENDBRANCH   1  16
BRANCH   2  19
ATOM     19  S   UNL     1       3.800  -2.595   1.799  0.00  0.00    -0.114 S 
BRANCH  19  20
ATOM     20  C   UNL     1       5.380  -1.864   2.307  0.00  0.00    +0.109 C 
BRANCH  20  21
ATOM     21  C   UNL     1       5.646  -2.195   3.753  0.00  0.00    -0.012 A 
ATOM     22  C   UNL     1       6.359  -3.370   4.261  0.00  0.00    +0.004 A 
ATOM     23  C   UNL     1       6.974  -4.468   3.657  0.00  0.00    +0.010 A 
ATOM     24  C   UNL     1       7.572  -5.422   4.432  0.00  0.00    +0.001 A 
ATOM     25  C   UNL     1       7.572  -5.308   5.815  0.00  0.00    +0.002 A 
ATOM     26  C   UNL     1       6.971  -4.232   6.432  0.00  0.00    +0.026 A 
ATOM     27  C   UNL     1       6.357  -3.249   5.663  0.00  0.00    +0.047 A 
ATOM     28  N   UNL     1       5.689  -2.085   5.970  0.00  0.00    -0.360 N 
ATOM     29  C   UNL     1       5.278  -1.468   4.820  0.00  0.00    +0.088 A 
ATOM     30  H   UNL     1       5.537  -1.750   6.867  0.00  0.00    +0.165 HD
ENDBRANCH  20  21
ENDBRANCH  19  20
ENDBRANCH   2  19
TORSDOF 4
