REMARK  Name = ZINC43757363
REMARK  7 active torsions:
REMARK  status: ('A' for Active; 'I' for Inactive)
REMARK    1  A    between atoms: C_1  and  C_2
REMARK    2  A    between atoms: C_2  and  C_4
REMARK    3  A    between atoms: C_2  and  O_29
REMARK    4  A    between atoms: C_4  and  O_28
REMARK    5  A    between atoms: C_9  and  C_27
REMARK    6  A    between atoms: C_19  and  C_26
REMARK    7  A    between atoms: C_22  and  O_25
REMARK                            x       y       z     vdW  Elec       q    Type
REMARK                         _______ _______ _______ _____ _____    ______ ____
ROOT
ATOM      1  C   UNL     1      -1.135  -0.115   0.253  0.00  0.00    +0.097 C 
ATOM      2  C   UNL     1      -1.902   0.452  -0.959  0.00  0.00    +0.038 C 
ATOM      3  C   UNL     1      -2.392  -0.765  -1.775  0.00  0.00    +0.007 C 
ATOM      4  C   UNL     1      -2.451  -1.916  -0.728  0.00  0.00    +0.002 C 
ATOM      5  C   UNL     1      -1.190  -1.641   0.107  0.00  0.00    +0.002 C 
ATOM      6  C   UNL     1      -1.202  -2.355   1.440  0.00  0.00    +0.010 C 
ATOM      7  C   UNL     1      -2.471  -2.023   2.220  0.00  0.00    +0.005 C 
ATOM      8  C   UNL     1      -3.689  -2.477   1.402  0.00  0.00    +0.003 C 
ATOM      9  C   UNL     1      -3.734  -1.700   0.082  0.00  0.00    +0.000 C 
ATOM     10  C   UNL     1      -4.910  -2.216  -0.760  0.00  0.00    +0.031 C 
ATOM     11  C   UNL     1      -6.173  -2.183   0.046  0.00  0.00    -0.027 C 
ATOM     12  C   UNL     1      -6.196  -2.175   1.341  0.00  0.00    -0.065 C 
ATOM     13  C   UNL     1      -4.944  -2.189   2.218  0.00  0.00    -0.008 C 
ATOM     14  C   UNL     1      -4.814  -0.869   2.975  0.00  0.00    +0.014 C 
ATOM     15  C   UNL     1      -6.196  -0.258   3.202  0.00  0.00    +0.032 C 
ATOM     16  C   UNL     1      -7.248  -1.343   3.426  0.00  0.00    +0.119 C 
ATOM     17  C   UNL     1      -7.529  -2.116   2.069  0.00  0.00    +0.062 C 
ATOM     18  C   UNL     1      -5.108  -3.303   3.254  0.00  0.00    +0.016 C 
ATOM     19  C   UNL     1       0.037  -2.110  -0.678  0.00  0.00    +0.014 C 
ENDROOT
BRANCH   1  21
ATOM     20  C   UNL     1       0.353   1.888   0.377  0.00  0.00    +0.040 C 
ATOM     21  C   UNL     1       0.317   0.365   0.231  0.00  0.00    +0.144 C 
BRANCH  21  22
ATOM     22  O   UNL     1       1.034  -0.234   1.312  0.00  0.00    -0.389 OA
ATOM     23  H   UNL     1       1.964   0.026   1.359  0.00  0.00    +0.210 HD
ENDBRANCH  21  22
ENDBRANCH   1  21
BRANCH  16  24
ATOM     24  O   UNL     1      -6.774  -2.270   4.405  0.00  0.00    -0.391 OA
ATOM     25  H   UNL     1      -7.428  -2.933   4.667  0.00  0.00    +0.210 HD
ENDBRANCH  16  24
BRANCH   1  26
ATOM     26  O   UNL     1      -1.768   0.286   1.470  0.00  0.00    -0.385 OA
ATOM     27  H   UNL     1      -1.779   1.243   1.610  0.00  0.00    +0.210 HD
ENDBRANCH   1  26
TORSDOF 4
