REMARK  Name = ZINC00987163
REMARK  10 active torsions:
REMARK  status: ('A' for Active; 'I' for Inactive)
REMARK    1  A    between atoms: C_1  and  C_2
REMARK    2  A    between atoms: C_2  and  O_3
REMARK    3  A    between atoms: O_3  and  C_4
REMARK    4  A    between atoms: C_6  and  C_12
REMARK    5  A    between atoms: C_9  and  O_10
REMARK    6  A    between atoms: C_15  and  C_26
REMARK    7  A    between atoms: C_21  and  N_25
REMARK    8  A    between atoms: C_22  and  C_23
REMARK    9  A    between atoms: C_28  and  C_32
REMARK   10  A    between atoms: C_30  and  C_31
REMARK                            x       y       z     vdW  Elec       q    Type
REMARK                         _______ _______ _______ _____ _____    ______ ____
ROOT
ATOM      1  C   UNL     1       0.648  -4.848   0.159  0.00  0.00    +0.102 C 
ATOM      2  C   UNL     1       0.548  -5.910   1.223  0.00  0.00    +0.054 A 
ATOM      3  C   UNL     1       0.678  -5.789   2.610  0.00  0.00    +0.101 A 
ATOM      4  N   UNL     1       0.512  -6.985   3.140  0.00  0.00    -0.171 NA
ATOM      5  N   UNL     1       0.272  -7.899   2.102  0.00  0.00    -0.246 N 
ATOM      6  H   UNL     1       0.114  -8.851   2.205  0.00  0.00    +0.192 HD
ATOM      7  C   UNL     1       0.299  -7.221   0.936  0.00  0.00    +0.223 A 
ATOM      8  O   UNL     1       0.124  -7.673  -0.331  0.00  0.00    -0.423 OA
ATOM      9  C   UNL     1       0.471  -6.849  -1.341  0.00  0.00    +0.200 C 
ATOM     10  C   UNL     1       0.730  -5.531  -1.183  0.00  0.00    +0.098 C 
ENDROOT
BRANCH   1  13
ATOM     11  C   UNL     1      -2.956  -3.720   0.251  0.00  0.00    +0.163 A 
ATOM     12  C   UNL     1      -1.833  -4.530   0.207  0.00  0.00    +0.054 A 
ATOM     13  C   UNL     1      -0.572  -3.965   0.207  0.00  0.00    -0.030 A 
ATOM     14  C   UNL     1      -0.427  -2.590   0.250  0.00  0.00    +0.023 A 
ATOM     15  C   UNL     1      -1.543  -1.775   0.294  0.00  0.00    +0.063 A 
ATOM     16  C   UNL     1      -2.811  -2.336   0.289  0.00  0.00    +0.173 A 
ATOM     17 BR   UNL     1      -1.341   0.104   0.355  0.00  0.00    -0.046 Br
BRANCH  16  18
ATOM     18  O   UNL     1      -3.911  -1.537   0.327  0.00  0.00    -0.503 OA
ATOM     19  H   UNL     1      -4.217  -1.331   1.221  0.00  0.00    +0.292 HD
ENDBRANCH  16  18
BRANCH  11  20
ATOM     20  O   UNL     1      -4.198  -4.275   0.253  0.00  0.00    -0.489 OA
BRANCH  20  22
ATOM     21  C   UNL     1      -5.735  -6.131   0.430  0.00  0.00    +0.048 C 
ATOM     22  C   UNL     1      -4.271  -5.700   0.325  0.00  0.00    +0.226 C 
ENDBRANCH  20  22
ENDBRANCH  11  20
ENDBRANCH   1  13
BRANCH   3  23
ATOM     23  C   UNL     1       0.956  -4.534   3.354  0.00  0.00    +0.013 A 
ATOM     24  C   UNL     1       1.239  -3.353   2.676  0.00  0.00    +0.021 A 
ATOM     25  C   UNL     1       1.486  -2.231   3.389  0.00  0.00    -0.012 A 
ATOM     26  S   UNL     1       1.326  -2.808   5.071  0.00  0.00    -0.098 S 
ATOM     27  C   UNL     1       0.932  -4.513   4.720  0.00  0.00    -0.004 A 
ATOM     28  C   UNL     1       0.650  -5.639   5.682  0.00  0.00    +0.052 C 
ATOM     29  C   UNL     1       1.813  -0.846   2.892  0.00  0.00    +0.051 C 
ENDBRANCH   3  23
BRANCH   9  30
ATOM     30  N   UNL     1       0.567  -7.379  -2.604  0.00  0.00    -0.328 N 
ATOM     31  H   UNL     1       0.388  -8.321  -2.749  0.00  0.00    +0.145 HD
ATOM     32  H   UNL     1       0.815  -6.812  -3.350  0.00  0.00    +0.145 HD
ENDBRANCH   9  30
BRANCH  10  33
ATOM     33  C   UNL     1       1.095  -4.756  -2.330  0.00  0.00    +0.101 C 
ATOM     34  N   UNL     1       1.383  -4.141  -3.241  0.00  0.00    -0.191 NA
ENDBRANCH  10  33
TORSDOF 7
