REMARK  Name = ZINC06203520
REMARK  7 active torsions:
REMARK  status: ('A' for Active; 'I' for Inactive)
REMARK    1  A    between atoms: C_1  and  C_2
REMARK    2  A    between atoms: C_5  and  C_9
REMARK    3  A    between atoms: C_6  and  C_8
REMARK    4  A    between atoms: N_11  and  C_12
REMARK    5  A    between atoms: C_12  and  N_14
REMARK    6  A    between atoms: C_18  and  C_25
REMARK    7  A    between atoms: C_20  and  C_24
REMARK                            x       y       z     vdW  Elec       q    Type
REMARK                         _______ _______ _______ _____ _____    ______ ____
ROOT
ATOM      1  C   UNL     1      -3.496   2.311   0.835  0.00  0.00    +0.143 C 
ATOM      2  S   UNL     1      -3.417   4.017   0.949  0.00  0.00    -0.018 S 
ENDROOT
BRANCH   1   3
ATOM      3  N   UNL     1      -4.680   1.681   0.970  0.00  0.00    -0.276 N 
ATOM      4  C   UNL     1      -5.831   2.413   1.200  0.00  0.00    +0.165 A 
ATOM      5  N   UNL     1      -7.063   1.985   1.352  0.00  0.00    -0.224 NA
ATOM      6  C   UNL     1      -8.100   2.821   1.578  0.00  0.00    +0.083 A 
ATOM      7  C   UNL     1      -9.463   2.492   1.762  0.00  0.00    -0.024 A 
ATOM      8  C   UNL     1     -10.397   3.471   1.976  0.00  0.00    +0.009 A 
ATOM      9  C   UNL     1     -10.044   4.812   2.020  0.00  0.00    -0.049 A 
ATOM     10  C   UNL     1      -8.720   5.170   1.844  0.00  0.00    +0.020 A 
ATOM     11  C   UNL     1      -7.777   4.196   1.629  0.00  0.00    +0.041 A 
ATOM     12  S   UNL     1      -6.021   4.183   1.359  0.00  0.00    -0.052 S 
ATOM     13  C   UNL     1     -11.093   5.868   2.257  0.00  0.00    +0.044 C 
ATOM     14  C   UNL     1      -9.893   1.048   1.722  0.00  0.00    +0.046 C 
ATOM     15  H   UNL     1      -4.724   0.714   0.906  0.00  0.00    +0.156 HD
ENDBRANCH   1   3
BRANCH   1  18
ATOM     16  C   UNL     1      -1.191   2.228   0.477  0.00  0.00    +0.250 C 
ATOM     17  O   UNL     1      -1.135   3.439   0.557  0.00  0.00    -0.270 OA
ATOM     18  N   UNL     1      -2.374   1.598   0.612  0.00  0.00    -0.264 N 
ATOM     19  H   UNL     1      -2.419   0.631   0.547  0.00  0.00    +0.157 HD
BRANCH  16  24
ATOM     20  C   UNL     1       3.593  -0.817  -0.498  0.00  0.00    +0.044 C 
ATOM     21  C   UNL     1       2.341  -0.020  -0.241  0.00  0.00    -0.050 A 
ATOM     22  C   UNL     1       1.152  -0.673   0.032  0.00  0.00    +0.004 A 
ATOM     23  C   UNL     1       0.002   0.051   0.268  0.00  0.00    +0.013 A 
ATOM     24  C   UNL     1       0.039   1.446   0.231  0.00  0.00    +0.040 A 
ATOM     25  C   UNL     1       1.242   2.099  -0.044  0.00  0.00    -0.038 A 
ATOM     26  C   UNL     1       2.385   1.363  -0.279  0.00  0.00    +0.007 A 
ATOM     27  C   UNL     1       1.291   3.604  -0.086  0.00  0.00    +0.044 C 
ENDBRANCH  16  24
ENDBRANCH   1  18
TORSDOF 3
