REMARK  Name = ZINC13122817
REMARK  8 active torsions:
REMARK  status: ('A' for Active; 'I' for Inactive)
REMARK    1  A    between atoms: C_1  and  C_2
REMARK    2  A    between atoms: C_2  and  O_3
REMARK    3  A    between atoms: O_3  and  C_4
REMARK    4  A    between atoms: C_4  and  C_6
REMARK    5  A    between atoms: N_10  and  C_20
REMARK    6  A    between atoms: C_11  and  C_13
REMARK    7  A    between atoms: C_23  and  S_26
REMARK    8  A    between atoms: S_26  and  N_29
REMARK                            x       y       z     vdW  Elec       q    Type
REMARK                         _______ _______ _______ _____ _____    ______ ____
ROOT
ATOM      1  C   UNL     1      -2.844  -2.417   0.016  0.00  0.00    +0.113 C 
ATOM      2  C   UNL     1      -3.156  -3.733   0.018  0.00  0.00    +0.253 C 
ATOM      3  C   UNL     1      -4.627  -3.883   0.029  0.00  0.00    +0.292 C 
ATOM      4  O   UNL     1      -5.219  -4.944   0.034  0.00  0.00    -0.266 OA
ATOM      5  N   UNL     1      -5.212  -2.671   0.034  0.00  0.00    -0.253 N 
ATOM      6  C   UNL     1      -4.150  -1.658   0.033  0.00  0.00    +0.153 C 
ATOM      7  O   UNL     1      -2.264  -4.750   0.010  0.00  0.00    -0.282 OA
ENDROOT
BRANCH   6   8
ATOM      8  C   UNL     1      -4.264  -0.794  -1.197  0.00  0.00    -0.022 A 
ATOM      9  C   UNL     1      -4.629  -1.358  -2.406  0.00  0.00    +0.007 A 
ATOM     10  C   UNL     1      -4.733  -0.566  -3.534  0.00  0.00    +0.015 A 
ATOM     11  C   UNL     1      -4.473   0.790  -3.453  0.00  0.00    +0.018 A 
ATOM     12  C   UNL     1      -4.107   1.353  -2.244  0.00  0.00    +0.015 A 
ATOM     13  C   UNL     1      -4.008   0.562  -1.115  0.00  0.00    +0.007 A 
ATOM     14 BR   UNL     1      -4.615   1.873  -4.997  0.00  0.00    -0.050 Br
ENDBRANCH   6   8
BRANCH   5  15
ATOM     15  C   UNL     1      -6.587  -2.422   0.044  0.00  0.00    +0.038 A 
ATOM     16  C   UNL     1      -7.058  -1.115   0.042  0.00  0.00    +0.025 A 
ATOM     17  C   UNL     1      -8.417  -0.872   0.051  0.00  0.00    +0.030 A 
ATOM     18  C   UNL     1      -9.309  -1.929   0.064  0.00  0.00    +0.105 A 
ATOM     19  C   UNL     1      -8.844  -3.231   0.066  0.00  0.00    +0.030 A 
ATOM     20  C   UNL     1      -7.486  -3.481   0.051  0.00  0.00    +0.025 A 
BRANCH  18  21
ATOM     21  S   UNL     1     -11.043  -1.615   0.077  0.00  0.00    +0.056 S 
ATOM     22  O   UNL     1     -11.660  -2.765   0.638  0.00  0.00    -0.153 OA
ATOM     23  O   UNL     1     -11.216  -0.314   0.624  0.00  0.00    -0.153 OA
BRANCH  21  24
ATOM     24  N   UNL     1     -11.539  -1.534  -1.501  0.00  0.00    -0.204 NA
ATOM     25  H   UNL     1     -10.896  -1.655  -2.218  0.00  0.00    +0.144 HD
ATOM     26  H   UNL     1     -12.471  -1.367  -1.709  0.00  0.00    +0.144 HD
ENDBRANCH  21  24
ENDBRANCH  18  21
ENDBRANCH   5  15
BRANCH   1  27
ATOM     27  C   UNL     1      -1.497  -1.838   0.006  0.00  0.00    +0.341 C 
ATOM     28  O   UNL     1      -0.523  -2.565  -0.007  0.00  0.00    -0.245 OA
BRANCH  27  29
ATOM     29  O   UNL     1      -1.339  -0.499   0.012  0.00  0.00    -0.462 OA
BRANCH  29  31
ATOM     30  C   UNL     1      -0.019   1.526   0.010  0.00  0.00    +0.048 C 
ATOM     31  C   UNL     1       0.002  -0.004   0.002  0.00  0.00    +0.229 C 
ENDBRANCH  29  31
ENDBRANCH  27  29
ENDBRANCH   1  27
TORSDOF 7
