REMARK  Name = ZINC40688716
REMARK  7 active torsions:
REMARK  status: ('A' for Active; 'I' for Inactive)
REMARK    1  A    between atoms: C_1  and  C_2
REMARK    2  A    between atoms: C_4  and  C_27
REMARK    3  A    between atoms: C_7  and  N_8
REMARK    4  A    between atoms: C_10  and  N_25
REMARK    5  A    between atoms: C_11  and  N_15
REMARK    6  A    between atoms: C_27  and  C_29
REMARK    7  A    between atoms: C_27  and  C_31
REMARK                            x       y       z     vdW  Elec       q    Type
REMARK                         _______ _______ _______ _____ _____    ______ ____
ROOT
ATOM      1  N   UNL     1       1.205  -0.423   2.465  0.00  0.00    -0.298 N 
ATOM      2  C   UNL     1       1.679  -1.052   3.611  0.00  0.00    +0.149 A 
ATOM      3  C   UNL     1       1.848  -0.333   4.795  0.00  0.00    +0.106 A 
ATOM      4  C   UNL     1       2.328  -1.013   5.917  0.00  0.00    +0.148 A 
ATOM      5  N   UNL     1       2.603  -2.311   5.814  0.00  0.00    -0.219 NA
ATOM      6  C   UNL     1       2.429  -2.953   4.676  0.00  0.00    +0.225 A 
ATOM      7  N   UNL     1       1.975  -2.350   3.596  0.00  0.00    -0.219 NA
ATOM      8  H   UNL     1       0.906   0.499   2.506  0.00  0.00    +0.154 HD
ENDROOT
BRANCH   4   9
ATOM      9  N   UNL     1       2.514  -0.345   7.121  0.00  0.00    -0.309 N 
ATOM     10  C   UNL     1       1.477  -0.345   8.165  0.00  0.00    +0.111 C 
ATOM     11  C   UNL     1       2.039  -1.072   9.386  0.00  0.00    +0.054 C 
ATOM     12  C   UNL     1       3.422  -0.574   9.716  0.00  0.00    -0.041 A 
ATOM     13  C   UNL     1       3.898  -0.799  11.003  0.00  0.00    +0.004 A 
ATOM     14  C   UNL     1       5.159  -0.377  11.368  0.00  0.00    +0.000 A 
ATOM     15  C   UNL     1       5.959   0.274  10.448  0.00  0.00    +0.000 A 
ATOM     16  C   UNL     1       5.488   0.502   9.172  0.00  0.00    +0.005 A 
ATOM     17  C   UNL     1       4.217   0.084   8.805  0.00  0.00    -0.027 A 
ATOM     18  C   UNL     1       3.756   0.383   7.404  0.00  0.00    +0.142 C 
ENDBRANCH   4   9
BRANCH   1  25
ATOM     19  C   UNL     1      -0.776   0.322   0.564  0.00  0.00    +0.045 C 
ATOM     20  C   UNL     1       0.207  -0.789   0.297  0.00  0.00    -0.029 A 
ATOM     21  C   UNL     1       0.166  -1.475  -0.901  0.00  0.00    +0.011 A 
ATOM     22  C   UNL     1       1.068  -2.494  -1.147  0.00  0.00    -0.008 A 
ATOM     23  C   UNL     1       2.013  -2.830  -0.194  0.00  0.00    +0.047 A 
ATOM     24  C   UNL     1       2.059  -2.147   1.007  0.00  0.00    +0.043 A 
ATOM     25  C   UNL     1       1.158  -1.119   1.254  0.00  0.00    +0.037 A 
ATOM     26 CL   UNL     1       3.143  -4.111  -0.506  0.00  0.00    -0.083 Cl
BRANCH  22  27
ATOM     27  C   UNL     1       1.020  -3.240  -2.455  0.00  0.00    +0.153 C 
BRANCH  27  28
ATOM     28  C   UNL     1      -0.273  -4.008  -2.549  0.00  0.00    -0.026 A 
ATOM     29  C   UNL     1      -1.466  -3.334  -2.728  0.00  0.00    +0.006 A 
ATOM     30  C   UNL     1      -2.652  -4.038  -2.814  0.00  0.00    +0.020 A 
ATOM     31  C   UNL     1      -2.645  -5.418  -2.720  0.00  0.00    +0.041 A 
ATOM     32  C   UNL     1      -1.450  -6.093  -2.541  0.00  0.00    +0.020 A 
ATOM     33  C   UNL     1      -0.264  -5.388  -2.461  0.00  0.00    +0.006 A 
ATOM     34 CL   UNL     1      -4.135  -6.304  -2.827  0.00  0.00    -0.084 Cl
ENDBRANCH  27  28
BRANCH  27  35
ATOM     35  C   UNL     1       1.103  -2.282  -3.570  0.00  0.00    +0.075 C 
ATOM     36  N   UNL     1       1.167  -1.542  -4.430  0.00  0.00    -0.196 NA
ENDBRANCH  27  35
ENDBRANCH  22  27
ENDBRANCH   1  25
BRANCH   3  37
ATOM     37  N   UNL     1       1.545   1.036   4.858  0.00  0.00    -0.353 N 
ATOM     38  H   UNL     1       1.286   1.513   4.054  0.00  0.00    +0.143 HD
ATOM     39  H   UNL     1       1.595   1.506   5.705  0.00  0.00    +0.143 HD
ENDBRANCH   3  37
TORSDOF 6
