REMARK  Name = ZINC28051703
REMARK  7 active torsions:
REMARK  status: ('A' for Active; 'I' for Inactive)
REMARK    1  A    between atoms: C_1  and  C_2
REMARK    2  A    between atoms: C_2  and  O_3
REMARK    3  A    between atoms: O_3  and  C_4
REMARK    4  A    between atoms: C_6  and  C_11
REMARK    5  A    between atoms: C_9  and  O_10
REMARK    6  A    between atoms: C_14  and  C_33
REMARK    7  A    between atoms: C_24  and  C_27
REMARK                            x       y       z     vdW  Elec       q    Type
REMARK                         _______ _______ _______ _____ _____    ______ ____
ROOT
ATOM      1  C   UNL     1       2.502   1.469  -0.020  0.00  0.00    +0.091 C 
ATOM      2  C   UNL     1       1.147   2.100   0.002  0.00  0.00    +0.049 A 
ATOM      3  C   UNL     1       0.730   3.429   0.019  0.00  0.00    +0.087 A 
ATOM      4  N   UNL     1      -0.579   3.399   0.032  0.00  0.00    -0.081 NA
ATOM      5  O   UNL     1      -1.007   2.261   0.029  0.00  0.00    -0.339 OA
ATOM      6  C   UNL     1      -0.017   1.375   0.010  0.00  0.00    +0.226 A 
ATOM      7  N   UNL     1       0.002  -0.004   0.002  0.00  0.00    -0.286 N 
ATOM      8  C   UNL     1       1.184  -0.647   0.284  0.00  0.00    +0.019 C 
ATOM      9  C   UNL     1       2.374  -0.009   0.288  0.00  0.00    +0.024 C 
ATOM     10  C   UNL     1       3.564  -0.701   0.579  0.00  0.00    +0.162 C 
ATOM     11  O   UNL     1       4.616  -0.091   0.599  0.00  0.00    -0.292 OA
ATOM     12  C   UNL     1       3.566  -2.176   0.867  0.00  0.00    +0.088 C 
ATOM     13  C   UNL     1       2.379  -2.823   0.144  0.00  0.00    +0.032 C 
ATOM     14  C   UNL     1       1.099  -2.123   0.601  0.00  0.00    +0.059 C 
ATOM     15  C   UNL     1       1.609   4.653   0.022  0.00  0.00    +0.069 C 
ATOM     16  H   UNL     1      -0.916  -0.565  -0.226  0.00  0.00    +0.155 HD
ENDROOT
BRANCH   1  19
ATOM     17  C   UNL     1       4.877   2.494  -2.774  0.00  0.00    +0.162 A 
ATOM     18  C   UNL     1       4.308   2.334  -1.520  0.00  0.00    +0.054 A 
ATOM     19  C   UNL     1       3.117   1.646  -1.385  0.00  0.00    -0.032 A 
ATOM     20  C   UNL     1       2.485   1.125  -2.499  0.00  0.00    +0.008 A 
ATOM     21  C   UNL     1       3.044   1.286  -3.753  0.00  0.00    +0.049 A 
ATOM     22  C   UNL     1       4.240   1.970  -3.895  0.00  0.00    +0.158 A 
BRANCH  22  23
ATOM     23  O   UNL     1       4.792   2.129  -5.128  0.00  0.00    -0.503 OA
ATOM     24  H   UNL     1       4.288   1.714  -6.014  0.00  0.00    +0.292 HD
ENDBRANCH  22  23
BRANCH  17  25
ATOM     25  O   UNL     1       6.051   3.166  -2.909  0.00  0.00    -0.489 OA
BRANCH  25  27
ATOM     26  C   UNL     1       7.952   4.396  -2.063  0.00  0.00    +0.048 C 
ATOM     27  C   UNL     1       6.647   3.677  -1.714  0.00  0.00    +0.226 C 
ENDBRANCH  25  27
ENDBRANCH  17  25
ENDBRANCH   1  19
BRANCH  13  28
ATOM     28  C   UNL     1       2.310  -4.288   0.492  0.00  0.00    -0.044 A 
ATOM     29  C   UNL     1       2.154  -4.679   1.809  0.00  0.00    +0.004 A 
ATOM     30  C   UNL     1       2.086  -6.022   2.128  0.00  0.00    +0.000 A 
ATOM     31  C   UNL     1       2.184  -6.975   1.131  0.00  0.00    +0.000 A 
ATOM     32  C   UNL     1       2.345  -6.584  -0.185  0.00  0.00    +0.000 A 
ATOM     33  C   UNL     1       2.408  -5.240  -0.505  0.00  0.00    +0.004 A 
ENDBRANCH  13  28
TORSDOF 5
