REMARK  Name = ZINC40018400
REMARK  4 active torsions:
REMARK  status: ('A' for Active; 'I' for Inactive)
REMARK    1  A    between atoms: C_6  and  C_7
REMARK    2  A    between atoms: C_7  and  O_9
REMARK    3  A    between atoms: O_9  and  C_10
REMARK    4  A    between atoms: C_10  and  C_11
REMARK                            x       y       z     vdW  Elec       q    Type
REMARK                         _______ _______ _______ _____ _____    ______ ____
ROOT
ATOM      1  C   UNL     1      -2.285  -4.270   0.002  0.00  0.00    +0.161 C 
ATOM      2  N   UNL     1      -1.051  -4.715  -0.007  0.00  0.00    -0.158 NA
ATOM      3  C   UNL     1      -0.752  -6.018  -0.013  0.00  0.00    +0.271 C 
ATOM      4  O   UNL     1       0.407  -6.397  -0.025  0.00  0.00    -0.268 OA
ATOM      5  C   UNL     1      -1.885  -6.997  -0.003  0.00  0.00    +0.071 C 
ATOM      6  C   UNL     1      -1.819  -8.339   0.057  0.00  0.00    -0.042 C 
ATOM      7  C   UNL     1      -0.528  -9.118   0.299  0.00  0.00    +0.033 C 
ATOM      8  C   UNL     1      -0.777 -10.020   1.515  0.00  0.00    +0.004 C 
ATOM      9  C   UNL     1      -2.037 -10.857   1.303  0.00  0.00    +0.002 C 
ATOM     10  C   UNL     1      -3.274  -9.960   1.194  0.00  0.00    +0.019 C 
ATOM     11  C   UNL     1      -3.139  -9.093  -0.061  0.00  0.00    +0.079 C 
ATOM     12  S   UNL     1      -4.362  -7.729  -0.014  0.00  0.00    -0.097 S 
ATOM     13  C   UNL     1      -3.222  -6.368  -0.003  0.00  0.00    +0.112 C 
ATOM     14  N   UNL     1      -3.345  -5.061   0.008  0.00  0.00    -0.224 NA
ENDROOT
BRANCH   1  15
ATOM     15  C   UNL     1      -2.506  -2.779   0.012  0.00  0.00    +0.305 C 
BRANCH  15  16
ATOM     16  O   UNL     1      -1.243  -2.110   0.003  0.00  0.00    -0.453 OA
BRANCH  16  17
ATOM     17  C   UNL     1      -1.265  -0.763   0.011  0.00  0.00    +0.340 C 
ATOM     18  O   UNL     1      -2.326  -0.172   0.024  0.00  0.00    -0.245 OA
BRANCH  17  24
ATOM     19  C   UNL     1      -0.017   1.392   0.010  0.00  0.00    +0.016 A 
ATOM     20  C   UNL     1       1.170   2.095   0.002  0.00  0.00    +0.016 A 
ATOM     21  C   UNL     1       2.378   1.419  -0.013  0.00  0.00    +0.018 A 
ATOM     22  C   UNL     1       2.404   0.034  -0.021  0.00  0.00    +0.016 A 
ATOM     23  C   UNL     1       1.224  -0.680  -0.014  0.00  0.00    +0.016 A 
ATOM     24  C   UNL     1       0.002  -0.004   0.002  0.00  0.00    +0.059 A 
ATOM     25 BR   UNL     1       4.000   2.391  -0.024  0.00  0.00    -0.050 Br
ENDBRANCH  17  24
ENDBRANCH  16  17
ENDBRANCH  15  16
ENDBRANCH   1  15
TORSDOF 4
