REMARK  Name = ZINC65265892
REMARK  5 active torsions:
REMARK  status: ('A' for Active; 'I' for Inactive)
REMARK    1  A    between atoms: C_1  and  O_2
REMARK    2  A    between atoms: O_2  and  C_3
REMARK    3  A    between atoms: C_3  and  C_4
REMARK    4  A    between atoms: C_4  and  C_5
REMARK    5  A    between atoms: N_22  and  C_23
REMARK                            x       y       z     vdW  Elec       q    Type
REMARK                         _______ _______ _______ _____ _____    ______ ____
ROOT
ATOM      1  C   UNL     1       1.330  -2.702   2.265  0.00  0.00    +0.218 C 
ATOM      2  O   UNL     1       1.824  -1.998   3.120  0.00  0.00    -0.276 OA
ATOM      3  N   UNL     1       1.421  -4.043   2.360  0.00  0.00    -0.299 N 
ATOM      4  C   UNL     1       0.874  -5.013   1.392  0.00  0.00    +0.110 C 
ATOM      5  C   UNL     1       1.726  -6.295   1.585  0.00  0.00    +0.050 C 
ATOM      6  C   UNL     1       1.973  -6.273   3.104  0.00  0.00    +0.091 C 
ATOM      7  C   UNL     1       2.089  -4.784   3.443  0.00  0.00    +0.137 C 
ATOM      8  C   UNL     1       3.203  -7.029   3.478  0.00  0.00    +0.095 C 
ATOM      9  N   UNL     1       3.043  -8.362   3.767  0.00  0.00    -0.303 N 
ATOM     10  C   UNL     1       2.763  -8.737   5.077  0.00  0.00    +0.037 A 
ATOM     11  C   UNL     1       3.439  -9.802   5.654  0.00  0.00    +0.023 A 
ATOM     12  C   UNL     1       3.153 -10.186   6.949  0.00  0.00    +0.002 A 
ATOM     13  C   UNL     1       2.187  -9.502   7.663  0.00  0.00    +0.000 A 
ATOM     14  C   UNL     1       1.518  -8.441   7.091  0.00  0.00    +0.007 A 
ATOM     15  C   UNL     1       1.800  -8.035   5.790  0.00  0.00    -0.012 A 
ATOM     16  C   UNL     1       1.040  -6.841   5.271  0.00  0.00    +0.119 C 
ATOM     17  N   UNL     1       0.831  -6.888   3.819  0.00  0.00    -0.299 NA
ATOM     18  N   UNL     1       4.362  -6.457   3.527  0.00  0.00    -0.372 N 
ATOM     19  H   UNL     1      -0.037  -6.442   3.564  0.00  0.00    +0.123 HD
ATOM     20  H   UNL     1       4.462  -5.537   3.237  0.00  0.00    +0.161 HD
ATOM     21  H   UNL     1       3.124  -9.031   3.069  0.00  0.00    +0.153 HD
ENDROOT
BRANCH  18  22
ATOM     22  C   UNL     1       5.524  -7.199   4.022  0.00  0.00    +0.080 C 
ATOM     23  C   UNL     1       5.630  -7.055   5.554  0.00  0.00    +0.024 C 
ATOM     24  C   UNL     1       7.153  -6.969   5.824  0.00  0.00    +0.002 C 
ATOM     25  C   UNL     1       7.663  -6.124   4.630  0.00  0.00    +0.002 C 
ATOM     26  C   UNL     1       6.817  -6.607   3.435  0.00  0.00    +0.024 C 
ENDBRANCH  18  22
BRANCH   1  27
ATOM     27  C   UNL     1       0.614  -2.076   1.095  0.00  0.00    +0.124 C 
BRANCH  27  28
ATOM     28  C   UNL     1       0.654  -0.552   1.228  0.00  0.00    +0.168 C 
BRANCH  28  30
ATOM     29  C   UNL     1      -0.045   1.469   0.147  0.00  0.00    +0.194 C 
ATOM     30  O   UNL     1      -0.025   0.041   0.120  0.00  0.00    -0.382 OA
ENDBRANCH  28  30
ENDBRANCH  27  28
ENDBRANCH   1  27
TORSDOF 4
