REMARK  Name = ZINC06181477
REMARK  7 active torsions:
REMARK  status: ('A' for Active; 'I' for Inactive)
REMARK    1  A    between atoms: C_1  and  C_2
REMARK    2  A    between atoms: C_2  and  C_3
REMARK    3  A    between atoms: C_2  and  C_4
REMARK    4  A    between atoms: C_7  and  N_10
REMARK    5  A    between atoms: N_10  and  S_11
REMARK    6  A    between atoms: S_11  and  C_14
REMARK    7  A    between atoms: C_21  and  C_24
REMARK                            x       y       z     vdW  Elec       q    Type
REMARK                         _______ _______ _______ _____ _____    ______ ____
ROOT
ATOM      1  C   UNL     1       1.314   2.272  -0.317  0.00  0.00    +0.109 A 
ATOM      2  C   UNL     1       1.587   3.606  -0.023  0.00  0.00    +0.031 A 
ATOM      3  C   UNL     1       0.584   4.483   0.258  0.00  0.00    +0.028 A 
ATOM      4  C   UNL     1      -0.750   4.043   0.253  0.00  0.00    +0.050 A 
ATOM      5  C   UNL     1      -1.025   2.688  -0.052  0.00  0.00    +0.048 A 
ATOM      6  C   UNL     1       0.033   1.810  -0.331  0.00  0.00    +0.042 A 
ATOM      7  C   UNL     1      -2.366   2.244  -0.058  0.00  0.00    +0.202 A 
ATOM      8  C   UNL     1      -3.365   3.179   0.236  0.00  0.00    +0.100 A 
ATOM      9  C   UNL     1      -3.003   4.505   0.521  0.00  0.00    +0.100 A 
ATOM     10  N   UNL     1      -1.752   4.888   0.531  0.00  0.00    -0.360 N 
ATOM     11  O   UNL     1      -2.675   0.957  -0.339  0.00  0.00    -0.286 OA
ATOM     12  H   UNL     1      -1.537   5.840   0.752  0.00  0.00    +0.165 HD
ENDROOT
BRANCH   8  13
ATOM     13  C   UNL     1      -4.782   2.776   0.245  0.00  0.00    +0.252 C 
ATOM     14  O   UNL     1      -5.264   2.224  -0.725  0.00  0.00    -0.270 OA
ATOM     15  N   UNL     1      -5.545   3.020   1.330  0.00  0.00    -0.297 N 
ATOM     16  C   UNL     1      -5.000   3.760   2.476  0.00  0.00    +0.113 C 
ATOM     17  C   UNL     1      -5.207   2.935   3.745  0.00  0.00    +0.084 C 
ATOM     18  C   UNL     1      -6.686   2.565   3.875  0.00  0.00    +0.173 C 
ATOM     19  C   UNL     1      -7.120   1.726   2.671  0.00  0.00    +0.084 C 
ATOM     20  C   UNL     1      -6.934   2.544   1.390  0.00  0.00    +0.113 C 
ATOM     21  O   UNL     1      -6.892   1.820   5.081  0.00  0.00    -0.346 OA
ATOM     22  C   UNL     1      -7.833   2.559   5.885  0.00  0.00    +0.191 C 
ATOM     23  C   UNL     1      -8.552   3.457   4.848  0.00  0.00    +0.191 C 
ATOM     24  O   UNL     1      -7.475   3.765   3.929  0.00  0.00    -0.346 OA
ENDBRANCH   8  13
BRANCH   1  25
ATOM     25  S   UNL     1       2.642   1.170  -0.675  0.00  0.00    +0.072 S 
ATOM     26  O   UNL     1       3.823   1.779  -0.171  0.00  0.00    -0.150 OA
ATOM     27  O   UNL     1       2.218  -0.123  -0.265  0.00  0.00    -0.150 OA
BRANCH  25  28
ATOM     28  N   UNL     1       2.803   1.116  -2.322  0.00  0.00    -0.216 N 
ATOM     29  H   UNL     1       2.673   0.279  -2.795  0.00  0.00    +0.174 HD
BRANCH  28  33
ATOM     30  C   UNL     1       3.762   4.573  -4.436  0.00  0.00    -0.045 A 
ATOM     31  C   UNL     1       4.731   3.931  -3.686  0.00  0.00    +0.006 A 
ATOM     32  C   UNL     1       4.416   2.785  -2.983  0.00  0.00    +0.025 A 
ATOM     33  C   UNL     1       3.124   2.276  -3.031  0.00  0.00    +0.048 A 
ATOM     34  C   UNL     1       2.155   2.920  -3.789  0.00  0.00    +0.025 A 
ATOM     35  C   UNL     1       2.475   4.069  -4.485  0.00  0.00    +0.006 A 
BRANCH  30  37
ATOM     36  C   UNL     1       3.857   5.596  -6.692  0.00  0.00    +0.012 C 
ATOM     37  C   UNL     1       4.109   5.824  -5.200  0.00  0.00    +0.013 C 
ATOM     38  C   UNL     1       3.238   6.981  -4.707  0.00  0.00    +0.012 C 
ENDBRANCH  30  37
ENDBRANCH  28  33
ENDBRANCH  25  28
ENDBRANCH   1  25
TORSDOF 5
