REMARK  Name = ZINC22539513
REMARK  13 active torsions:
REMARK  status: ('A' for Active; 'I' for Inactive)
REMARK    1  A    between atoms: C_1  and  C_2
REMARK    2  A    between atoms: C_5  and  S_8
REMARK    3  A    between atoms: S_8  and  N_11
REMARK    4  A    between atoms: N_11  and  C_12
REMARK    5  A    between atoms: C_12  and  C_14
REMARK    6  A    between atoms: C_12  and  C_21
REMARK    7  A    between atoms: C_14  and  C_15
REMARK    8  A    between atoms: N_23  and  C_24
REMARK    9  A    between atoms: C_24  and  C_26
REMARK   10  A    between atoms: C_24  and  C_27
REMARK   11  A    between atoms: C_29  and  C_35
REMARK   12  A    between atoms: C_30  and  C_34
REMARK   13  A    between atoms: C_32  and  C_33
REMARK                            x       y       z     vdW  Elec       q    Type
REMARK                         _______ _______ _______ _____ _____    ______ ____
ROOT
ATOM      1  C   UNL     1      -2.950   0.582   1.473  0.00  0.00    +0.166 C 
ENDROOT
BRANCH   1   2
ATOM      2  C   UNL     1      -4.121  -0.363   1.555  0.00  0.00    +0.232 C 
ATOM      3  O   UNL     1      -5.123  -0.036   2.155  0.00  0.00    -0.274 OA
ATOM      4  N   UNL     1      -4.055  -1.571   0.962  0.00  0.00    -0.307 N 
ATOM      5  H   UNL     1      -3.147  -1.868   0.417  0.00  0.00    +0.149 HD
BRANCH   4   6
ATOM      6  C   UNL     1      -5.194  -2.490   1.041  0.00  0.00    +0.100 C 
ATOM      7  C   UNL     1      -5.115  -3.288   2.344  0.00  0.00    +0.033 C 
BRANCH   6   8
ATOM      8  C   UNL     1      -5.159  -3.436  -0.131  0.00  0.00    -0.024 A 
ATOM      9  C   UNL     1      -3.960  -3.709  -0.763  0.00  0.00    +0.009 A 
ATOM     10  C   UNL     1      -3.928  -4.581  -1.835  0.00  0.00    -0.047 A 
ATOM     11  C   UNL     1      -5.095  -5.172  -2.281  0.00  0.00    -0.047 A 
ATOM     12  C   UNL     1      -6.294  -4.895  -1.653  0.00  0.00    +0.007 A 
ATOM     13  C   UNL     1      -6.326  -4.027  -0.577  0.00  0.00    -0.045 A 
ATOM     14  C   UNL     1      -7.634  -3.725   0.109  0.00  0.00    +0.044 C 
ATOM     15  C   UNL     1      -5.060  -6.119  -3.453  0.00  0.00    +0.044 C 
ATOM     16  C   UNL     1      -2.620  -4.884  -2.521  0.00  0.00    +0.044 C 
ENDBRANCH   6   8
ENDBRANCH   4   6
ENDBRANCH   1   2
BRANCH   1  17
ATOM     17  N   UNL     1      -3.268   1.818   2.192  0.00  0.00    -0.178 NA
ATOM     18  H   UNL     1      -3.678   2.681   1.647  0.00  0.00    +0.149 HD
BRANCH  17  19
ATOM     19  S   UNL     1      -2.788   2.008   3.765  0.00  0.00    +0.059 S 
ATOM     20  O   UNL     1      -3.190   3.313   4.158  0.00  0.00    -0.153 OA
ATOM     21  O   UNL     1      -3.205   0.841   4.461  0.00  0.00    -0.153 OA
BRANCH  19  26
ATOM     22  C   UNL     1       3.246   1.976   3.805  0.00  0.00    +0.044 C 
ATOM     23  C   UNL     1       1.739   1.984   3.795  0.00  0.00    -0.050 A 
ATOM     24  C   UNL     1       1.054   3.184   3.741  0.00  0.00    +0.005 A 
ATOM     25  C   UNL     1      -0.328   3.191   3.732  0.00  0.00    +0.029 A 
ATOM     26  C   UNL     1      -1.026   1.998   3.776  0.00  0.00    +0.105 A 
ATOM     27  C   UNL     1      -0.342   0.799   3.836  0.00  0.00    +0.029 A 
ATOM     28  C   UNL     1       1.041   0.791   3.840  0.00  0.00    +0.005 A 
ENDBRANCH  19  26
ENDBRANCH  17  19
ENDBRANCH   1  17
BRANCH   1  29
ATOM     29  C   UNL     1      -2.658   0.906   0.006  0.00  0.00    +0.065 C 
BRANCH  29  30
ATOM     30  C   UNL     1      -1.435   1.782  -0.081  0.00  0.00    -0.045 A 
ATOM     31  C   UNL     1      -0.176   1.211  -0.093  0.00  0.00    +0.004 A 
ATOM     32  C   UNL     1       0.946   2.014  -0.178  0.00  0.00    +0.000 A 
ATOM     33  C   UNL     1       0.809   3.388  -0.246  0.00  0.00    +0.000 A 
ATOM     34  C   UNL     1      -0.450   3.959  -0.229  0.00  0.00    +0.000 A 
ATOM     35  C   UNL     1      -1.572   3.156  -0.143  0.00  0.00    +0.004 A 
ENDBRANCH  29  30
ENDBRANCH   1  29
TORSDOF 8
