REMARK  Name = ZINC00694465
REMARK  6 active torsions:
REMARK  status: ('A' for Active; 'I' for Inactive)
REMARK    1  A    between atoms: C_1  and  O_2
REMARK    2  A    between atoms: O_2  and  C_3
REMARK    3  A    between atoms: C_5  and  C_11
REMARK    4  A    between atoms: C_8  and  O_9
REMARK    5  A    between atoms: C_23  and  S_26
REMARK    6  A    between atoms: S_26  and  C_27
REMARK                            x       y       z     vdW  Elec       q    Type
REMARK                         _______ _______ _______ _____ _____    ______ ____
ROOT
ATOM      1  C   UNL     1      -1.294  -0.773   0.010  0.00  0.00    +0.294 C 
ATOM      2  N   UNL     1      -2.264  -0.062   0.836  0.00  0.00    -0.305 N 
ATOM      3  C   UNL     1      -2.886   1.076   0.318  0.00  0.00    +0.039 A 
ATOM      4  C   UNL     1      -2.606   2.337   0.811  0.00  0.00    +0.024 A 
ATOM      5  C   UNL     1      -3.213   3.446   0.250  0.00  0.00    +0.002 A 
ATOM      6  C   UNL     1      -4.100   3.302  -0.802  0.00  0.00    +0.001 A 
ATOM      7  C   UNL     1      -4.396   2.048  -1.301  0.00  0.00    +0.012 A 
ATOM      8  C   UNL     1      -3.797   0.925  -0.744  0.00  0.00    +0.028 A 
ATOM      9  C   UNL     1      -4.094  -0.436  -1.238  0.00  0.00    +0.156 A 
ATOM     10  C   UNL     1      -3.032  -1.327  -1.508  0.00  0.00    +0.248 A 
ATOM     11  N   UNL     1      -3.318  -2.545  -1.936  0.00  0.00    -0.184 NA
ATOM     12  C   UNL     1      -4.590  -2.893  -2.104  0.00  0.00    +0.212 A 
ATOM     13  N   UNL     1      -5.573  -2.039  -1.849  0.00  0.00    -0.122 NA
ATOM     14  N   UNL     1      -5.339  -0.844  -1.429  0.00  0.00    -0.141 NA
ATOM     15  O   UNL     1      -1.751  -0.925  -1.329  0.00  0.00    -0.449 OA
ATOM     16  H   UNL     1      -2.475  -0.374   1.730  0.00  0.00    +0.150 HD
ENDROOT
BRANCH   1  19
ATOM     17  C   UNL     1       1.954   0.763  -1.161  0.00  0.00    +0.163 A 
ATOM     18  C   UNL     1       0.762   0.055  -1.151  0.00  0.00    +0.058 A 
ATOM     19  C   UNL     1       0.002  -0.004   0.002  0.00  0.00    +0.016 A 
ATOM     20  C   UNL     1       0.428   0.641   1.148  0.00  0.00    +0.032 A 
ATOM     21  C   UNL     1       1.616   1.349   1.146  0.00  0.00    +0.086 A 
ATOM     22  C   UNL     1       2.383   1.413  -0.008  0.00  0.00    +0.177 A 
ATOM     23 CL   UNL     1       2.148   2.159   2.587  0.00  0.00    -0.080 Cl
BRANCH  17  25
ATOM     24  C   UNL     1       2.200   0.131  -3.440  0.00  0.00    +0.277 C 
ATOM     25  O   UNL     1       2.702   0.822  -2.295  0.00  0.00    -0.491 OA
ENDBRANCH  17  25
BRANCH  22  26
ATOM     26  O   UNL     1       3.552   2.108  -0.013  0.00  0.00    -0.502 OA
ATOM     27  H   UNL     1       3.455   3.037  -0.263  0.00  0.00    +0.292 HD
ENDBRANCH  22  26
ENDBRANCH   1  19
BRANCH  12  28
ATOM     28  S   UNL     1      -4.977  -4.515  -2.673  0.00  0.00    -0.088 S 
ATOM     29  C   UNL     1      -6.784  -4.413  -2.708  0.00  0.00    +0.093 C 
ENDBRANCH  12  28
TORSDOF 4
