REMARK  Name = ZINC15996112
REMARK  1 active torsions:
REMARK  status: ('A' for Active; 'I' for Inactive)
REMARK    1  A    between atoms: C_10  and  N_11
REMARK                            x       y       z     vdW  Elec       q    Type
REMARK                         _______ _______ _______ _____ _____    ______ ____
ROOT
ATOM      1  N   UNL     1       3.401  -1.123   0.470  0.00  0.00    -0.209 N 
ATOM      2  C   UNL     1       3.514   0.249   0.481  0.00  0.00    +0.228 C 
ATOM      3  O   UNL     1       4.483   0.916   0.773  0.00  0.00    -0.275 OA
ATOM      4  C   UNL     1       2.208   0.711   0.063  0.00  0.00    +0.074 C 
ATOM      5  C   UNL     1       1.413   1.946  -0.001  0.00  0.00    -0.054 C 
ATOM      6  C   UNL     1       1.595   2.806   1.272  0.00  0.00    -0.016 C 
ATOM      7  C   UNL     1       0.151   3.242   1.627  0.00  0.00    -0.020 C 
ATOM      8  C   UNL     1      -0.659   1.980   1.238  0.00  0.00    -0.076 C 
ATOM      9  N   UNL     1      -0.018   1.484   0.010  0.00  0.00    +0.395 N 
ATOM     10  C   UNL     1       0.002  -0.004   0.002  0.00  0.00    +0.053 C 
ATOM     11  C   UNL     1       1.267  -0.344   0.760  0.00  0.00    +0.089 C 
ATOM     12  C   UNL     1       2.100  -1.544   0.432  0.00  0.00    +0.229 C 
ATOM     13  O   UNL     1       1.702  -2.662   0.182  0.00  0.00    -0.275 OA
ATOM     14  C   UNL     1      -0.024  -0.542  -1.397  0.00  0.00    -0.026 A 
ATOM     15  C   UNL     1       0.805  -0.403  -2.489  0.00  0.00    +0.019 A 
ATOM     16  C   UNL     1       0.503  -1.044  -3.678  0.00  0.00    +0.018 A 
ATOM     17  C   UNL     1      -0.636  -1.825  -3.770  0.00  0.00    +0.017 A 
ATOM     18  C   UNL     1      -1.470  -1.966  -2.681  0.00  0.00    +0.024 A 
ATOM     19  C   UNL     1      -1.174  -1.323  -1.481  0.00  0.00    +0.036 A 
ATOM     20  N   UNL     1      -1.856  -1.311  -0.262  0.00  0.00    -0.286 N 
ATOM     21  C   UNL     1      -1.232  -0.556   0.662  0.00  0.00    +0.212 C 
ATOM     22  O   UNL     1      -1.594  -0.359   1.803  0.00  0.00    -0.277 OA
ATOM     23 BR   UNL     1       1.645  -0.855  -5.173  0.00  0.00    -0.050 Br
ATOM     24  H   UNL     1      -2.791  -1.880  -0.150  0.00  0.00    +0.155 HD
ATOM     25  H   UNL     1      -0.594   1.859  -0.849  0.00  0.00    -0.079 HD
ENDROOT
BRANCH   1  35
ATOM     26  C   UNL     1       6.088  -3.351   4.118  0.00  0.00    +0.001 A 
ATOM     27  C   UNL     1       4.995  -2.485   4.116  0.00  0.00    +0.001 A 
ATOM     28  C   UNL     1       4.464  -2.032   2.947  0.00  0.00    +0.010 A 
ATOM     29  C   UNL     1       5.021  -2.441   1.725  0.00  0.00    +0.004 A 
ATOM     30  C   UNL     1       6.131  -3.321   1.727  0.00  0.00    -0.016 A 
ATOM     31  C   UNL     1       6.654  -3.768   2.953  0.00  0.00    +0.008 A 
ATOM     32  C   UNL     1       6.691  -3.731   0.505  0.00  0.00    +0.008 A 
ATOM     33  C   UNL     1       6.165  -3.281  -0.668  0.00  0.00    +0.002 A 
ATOM     34  C   UNL     1       5.070  -2.422  -0.682  0.00  0.00    +0.024 A 
ATOM     35  C   UNL     1       4.497  -1.992   0.495  0.00  0.00    +0.052 A 
ENDBRANCH   1  35
TORSDOF 1
