REMARK  Name = ZINC40069821
REMARK  6 active torsions:
REMARK  status: ('A' for Active; 'I' for Inactive)
REMARK    1  A    between atoms: C_1  and  C_2
REMARK    2  A    between atoms: C_3  and  C_12
REMARK    3  A    between atoms: C_5  and  C_7
REMARK    4  A    between atoms: C_12  and  C_13
REMARK    5  A    between atoms: C_22  and  C_28
REMARK    6  A    between atoms: C_25  and  C_27
REMARK                            x       y       z     vdW  Elec       q    Type
REMARK                         _______ _______ _______ _____ _____    ______ ____
ROOT
ATOM      1  C   UNL     1      -2.997  -0.241  -1.445  0.00  0.00    +0.226 C 
ATOM      2  O   UNL     1      -2.634  -0.487  -0.314  0.00  0.00    -0.275 OA
ATOM      3  N   UNL     1      -4.234   0.245  -1.665  0.00  0.00    -0.268 N 
ATOM      4  C   UNL     1      -5.063   0.597  -0.591  0.00  0.00    +0.040 A 
ATOM      5  C   UNL     1      -4.513   0.709   0.680  0.00  0.00    +0.024 A 
ATOM      6  C   UNL     1      -5.313   1.050   1.752  0.00  0.00    +0.002 A 
ATOM      7  C   UNL     1      -6.663   1.280   1.558  0.00  0.00    +0.000 A 
ATOM      8  C   UNL     1      -7.212   1.171   0.296  0.00  0.00    +0.006 A 
ATOM      9  C   UNL     1      -6.415   0.831  -0.785  0.00  0.00    -0.014 A 
ATOM     10  C   UNL     1      -7.044   0.729  -2.150  0.00  0.00    +0.108 C 
ATOM     11  C   UNL     1      -6.174  -0.119  -3.078  0.00  0.00    +0.040 C 
ATOM     12  C   UNL     1      -4.734   0.421  -3.036  0.00  0.00    +0.079 C 
ATOM     13  C   UNL     1      -4.722   1.906  -3.405  0.00  0.00    +0.028 C 
ENDROOT
BRANCH  10  14
ATOM     14  C   UNL     1      -8.404   0.093  -2.025  0.00  0.00    +0.218 C 
ATOM     15  O   UNL     1      -8.508  -1.115  -1.996  0.00  0.00    -0.275 OA
ATOM     16  N   UNL     1      -9.505   0.866  -1.946  0.00  0.00    -0.329 N 
ATOM     17  H   UNL     1      -9.418   1.830  -1.896  0.00  0.00    +0.145 HD
ATOM     18  H   UNL     1     -10.385   0.457  -1.938  0.00  0.00    +0.145 HD
ENDBRANCH  10  14
BRANCH   1  19
ATOM     19  C   UNL     1      -2.063  -0.480  -2.604  0.00  0.00    +0.155 C 
BRANCH  19  22
ATOM     20  C   UNL     1      -1.120  -3.405  -2.040  0.00  0.00    +0.088 C 
ATOM     21  C   UNL     1      -0.307  -2.152  -1.841  0.00  0.00    +0.126 A 
ATOM     22  C   UNL     1      -0.711  -0.893  -2.083  0.00  0.00    +0.092 A 
ATOM     23  N   UNL     1       0.303  -0.069  -1.778  0.00  0.00    -0.213 NA
ATOM     24  C   UNL     1       1.319  -0.790  -1.356  0.00  0.00    +0.234 A 
ATOM     25  O   UNL     1       0.960  -2.087  -1.381  0.00  0.00    -0.440 OA
BRANCH  24  26
ATOM     26  C   UNL     1       2.623  -0.268  -0.924  0.00  0.00    +0.074 A 
ATOM     27  C   UNL     1       3.734  -0.959  -0.475  0.00  0.00    +0.021 A 
ATOM     28  C   UNL     1       4.853  -0.241  -0.123  0.00  0.00    +0.008 A 
ATOM     29  C   UNL     1       4.833   1.114  -0.226  0.00  0.00    +0.046 A 
ATOM     30  S   UNL     1       3.189   1.424  -0.848  0.00  0.00    -0.092 S 
ENDBRANCH  24  26
ENDBRANCH  19  22
ENDBRANCH   1  19
TORSDOF 4
