REMARK  Name = ZINC21327162
REMARK  5 active torsions:
REMARK  status: ('A' for Active; 'I' for Inactive)
REMARK    1  A    between atoms: C_3  and  C_8
REMARK    2  A    between atoms: C_8  and  S_9
REMARK    3  A    between atoms: S_9  and  C_10
REMARK    4  A    between atoms: N_14  and  N_15
REMARK    5  A    between atoms: N_16  and  N_17
REMARK                            x       y       z     vdW  Elec       q    Type
REMARK                         _______ _______ _______ _____ _____    ______ ____
ROOT
ATOM      1  C   UNL     1      -0.547   7.724  -1.539  0.00  0.00    +0.210 A 
ATOM      2  N   UNL     1      -0.698   8.389  -0.418  0.00  0.00    -0.119 NA
ATOM      3  N   UNL     1      -0.562   9.754  -0.704  0.00  0.00    -0.109 NA
ATOM      4  C   UNL     1      -0.332   9.878  -1.988  0.00  0.00    +0.254 A 
ATOM      5  N   UNL     1      -0.311   8.626  -2.537  0.00  0.00    -0.211 N 
ATOM      6  N   UNL     1      -0.138  11.071  -2.671  0.00  0.00    -0.204 N 
ATOM      7  H   UNL     1       0.048  11.061  -3.755  0.00  0.00    +0.177 HD
ENDROOT
BRANCH   6   8
ATOM      8  N   UNL     1      -0.179  12.289  -1.978  0.00  0.00    -0.189 NA
ATOM      9  C   UNL     1      -0.103  13.393  -2.621  0.00  0.00    +0.037 C 
ATOM     10  C   UNL     1      -0.110  13.413  -4.134  0.00  0.00    +0.052 C 
ATOM     11  C   UNL     1      -1.184  14.409  -4.599  0.00  0.00    +0.006 C 
ATOM     12  C   UNL     1      -0.925  15.771  -3.953  0.00  0.00    +0.001 C 
ATOM     13  C   UNL     1      -1.070  15.661  -2.434  0.00  0.00    +0.006 C 
ATOM     14  C   UNL     1       0.002  14.712  -1.888  0.00  0.00    +0.052 C 
ENDBRANCH   6   8
BRANCH   5  15
ATOM     15  N   UNL     1      -0.096   8.330  -3.853  0.00  0.00    -0.294 N 
ATOM     16  H   UNL     1       0.086   9.138  -4.576  0.00  0.00    +0.163 HD
ATOM     17  H   UNL     1      -0.103   7.282  -4.189  0.00  0.00    +0.163 HD
ENDBRANCH   5  15
BRANCH   1  18
ATOM     18  S   UNL     1      -0.628   5.973  -1.723  0.00  0.00    -0.080 S 
BRANCH  18  19
ATOM     19  C   UNL     1      -0.957   5.370  -0.044  0.00  0.00    +0.112 C 
BRANCH  19  22
ATOM     20  C   UNL     1      -0.001   1.721   0.122  0.00  0.00    +0.001 A 
ATOM     21  C   UNL     1       0.084   3.101   0.137  0.00  0.00    +0.004 A 
ATOM     22  C   UNL     1      -1.050   3.866  -0.060  0.00  0.00    -0.036 A 
ATOM     23  C   UNL     1      -2.271   3.252  -0.272  0.00  0.00    +0.019 A 
ATOM     24  C   UNL     1      -2.355   1.871  -0.291  0.00  0.00    +0.018 A 
ATOM     25  C   UNL     1      -1.221   1.106  -0.090  0.00  0.00    +0.015 A 
ATOM     26 BR   UNL     1      -4.023   1.030  -0.588  0.00  0.00    -0.050 Br
ENDBRANCH  19  22
ENDBRANCH  18  19
ENDBRANCH   1  18
TORSDOF 5
