REMARK  Name = ZINC67386311
REMARK  8 active torsions:
REMARK  status: ('A' for Active; 'I' for Inactive)
REMARK    1  A    between atoms: C_1  and  O_2
REMARK    2  A    between atoms: O_2  and  C_3
REMARK    3  A    between atoms: C_6  and  C_9
REMARK    4  A    between atoms: C_9  and  C_11
REMARK    5  A    between atoms: C_9  and  N_14
REMARK    6  A    between atoms: C_15  and  C_17
REMARK    7  A    between atoms: C_17  and  N_18
REMARK    8  A    between atoms: N_18  and  C_19
REMARK                            x       y       z     vdW  Elec       q    Type
REMARK                         _______ _______ _______ _____ _____    ______ ____
ROOT
ATOM      1  N   UNL     1       1.818  -3.731   4.712  0.00  0.00    -0.307 N 
ATOM      2  C   UNL     1       1.918  -4.204   5.970  0.00  0.00    +0.231 C 
ATOM      3  O   UNL     1       2.644  -3.652   6.769  0.00  0.00    -0.274 OA
ATOM      4  H   UNL     1       1.238  -4.172   4.072  0.00  0.00    +0.149 HD
ENDROOT
BRANCH   1   5
ATOM      5  C   UNL     1       2.587  -2.550   4.310  0.00  0.00    +0.106 C 
BRANCH   5   9
ATOM      6  C   UNL     1       0.626  -0.618   1.042  0.00  0.00    +0.120 A 
ATOM      7  C   UNL     1       1.202   0.138   2.051  0.00  0.00    +0.046 A 
ATOM      8  C   UNL     1       1.835  -0.488   3.107  0.00  0.00    +0.009 A 
ATOM      9  C   UNL     1       1.895  -1.869   3.158  0.00  0.00    -0.027 A 
ATOM     10  C   UNL     1       1.322  -2.625   2.152  0.00  0.00    +0.009 A 
ATOM     11  C   UNL     1       0.682  -2.003   1.098  0.00  0.00    +0.046 A 
BRANCH   6  13
ATOM     12  C   UNL     1      -0.017   1.425   0.010  0.00  0.00    +0.277 C 
ATOM     13  O   UNL     1       0.002  -0.004   0.002  0.00  0.00    -0.495 OA
ENDBRANCH   6  13
ENDBRANCH   5   9
BRANCH   5  14
ATOM     14  C   UNL     1       3.992  -2.977   3.881  0.00  0.00    +0.014 C 
ATOM     15  C   UNL     1       4.265  -4.477   3.749  0.00  0.00    +0.006 C 
ATOM     16  C   UNL     1       4.861  -3.691   4.919  0.00  0.00    +0.006 C 
ENDBRANCH   5  14
ENDBRANCH   1   5
BRANCH   2  17
ATOM     17  C   UNL     1       1.128  -5.419   6.383  0.00  0.00    +0.197 C 
BRANCH  17  18
ATOM     18  N   UNL     1       1.408  -5.730   7.787  0.00  0.00    -0.333 N 
ATOM     19  H   UNL     1       2.025  -5.178   8.292  0.00  0.00    +0.147 HD
BRANCH  18  20
ATOM     20  C   UNL     1       0.786  -6.823   8.399  0.00  0.00    +0.066 A 
ATOM     21  C   UNL     1      -0.092  -7.618   7.675  0.00  0.00    +0.026 A 
ATOM     22  C   UNL     1      -0.706  -8.698   8.281  0.00  0.00    +0.005 A 
ATOM     23  C   UNL     1      -0.446  -8.989   9.607  0.00  0.00    +0.041 A 
ATOM     24  C   UNL     1       0.429  -8.199  10.334  0.00  0.00    +0.160 A 
ATOM     25  C   UNL     1       1.052  -7.119   9.731  0.00  0.00    +0.179 A 
ATOM     26  F   UNL     1       1.910  -6.352  10.437  0.00  0.00    -0.201 F 
ATOM     27  F   UNL     1       0.681  -8.486  11.630  0.00  0.00    -0.202 F 
ENDBRANCH  18  20
ENDBRANCH  17  18
ENDBRANCH   2  17
TORSDOF 7
