REMARK  Name = ZINC18244265
REMARK  6 active torsions:
REMARK  status: ('A' for Active; 'I' for Inactive)
REMARK    1  A    between atoms: C_1  and  C_2
REMARK    2  A    between atoms: C_2  and  C_37
REMARK    3  A    between atoms: C_6  and  C_25
REMARK    4  A    between atoms: C_16  and  C_18
REMARK    5  A    between atoms: C_18  and  C_19
REMARK    6  A    between atoms: C_29  and  N_31
REMARK                            x       y       z     vdW  Elec       q    Type
REMARK                         _______ _______ _______ _____ _____    ______ ____
ROOT
ATOM      1  C   UNL     1       2.317   2.468  -4.081  0.00  0.00    +0.011 C 
ATOM      2  C   UNL     1       3.259   3.666  -4.213  0.00  0.00    -0.023 C 
ATOM      3  C   UNL     1       4.486   3.460  -3.325  0.00  0.00    +0.058 C 
ATOM      4  C   UNL     1       4.059   3.322  -1.874  0.00  0.00    +0.017 C 
ATOM      5  C   UNL     1       2.975   3.975  -1.416  0.00  0.00    +0.037 C 
ATOM      6  C   UNL     1       2.451   3.937  -0.001  0.00  0.00    +0.147 C 
ATOM      7  N   UNL     1       3.350   3.332   0.959  0.00  0.00    -0.258 N 
ATOM      8  C   UNL     1       3.690   1.981   0.872  0.00  0.00    +0.058 A 
ATOM      9  C   UNL     1       3.323   1.077   1.855  0.00  0.00    +0.025 A 
ATOM     10  C   UNL     1       3.641  -0.261   1.701  0.00  0.00    +0.002 A 
ATOM     11  C   UNL     1       4.315  -0.696   0.574  0.00  0.00    +0.002 A 
ATOM     12  C   UNL     1       4.699   0.208  -0.402  0.00  0.00    +0.025 A 
ATOM     13  C   UNL     1       4.402   1.550  -0.237  0.00  0.00    +0.053 A 
ATOM     14  N   UNL     1       4.855   2.524  -1.118  0.00  0.00    -0.316 N 
ATOM     15  C   UNL     1       3.867   4.085   1.950  0.00  0.00    +0.225 C 
ATOM     16  O   UNL     1       3.578   5.259   2.034  0.00  0.00    -0.275 OA
ATOM     17  C   UNL     1       2.212   4.787  -2.288  0.00  0.00    +0.163 C 
ATOM     18  O   UNL     1       1.248   5.380  -1.843  0.00  0.00    -0.292 OA
ATOM     19  C   UNL     1       2.549   4.941  -3.740  0.00  0.00    +0.086 C 
ATOM     20  C   UNL     1       3.695   3.826  -5.671  0.00  0.00    +0.011 C 
ATOM     21  H   UNL     1       5.814   2.643  -1.200  0.00  0.00    +0.152 HD
ENDROOT
BRANCH   6  22
ATOM     22  C   UNL     1       1.156   3.166   0.008  0.00  0.00    -0.020 A 
ATOM     23  C   UNL     1       1.153   1.816  -0.294  0.00  0.00    +0.006 A 
ATOM     24  C   UNL     1      -0.034   1.109  -0.287  0.00  0.00    +0.003 A 
ATOM     25  C   UNL     1      -1.220   1.752   0.018  0.00  0.00    +0.033 A 
ATOM     26  C   UNL     1      -1.216   3.099   0.325  0.00  0.00    +0.127 A 
ATOM     27  C   UNL     1      -0.028   3.807   0.318  0.00  0.00    +0.038 A 
BRANCH  26  28
ATOM     28  N   UNL     1      -2.485   3.786   0.658  0.00  0.00    +0.056 N 
ATOM     29  O   UNL     1      -2.482   4.974   0.925  0.00  0.00    -0.126 OA
ATOM     30  O   UNL     1      -3.531   3.163   0.664  0.00  0.00    -0.126 OA
ENDBRANCH  26  28
ENDBRANCH   6  22
BRANCH  15  31
ATOM     31  C   UNL     1       4.805   3.466   2.955  0.00  0.00    +0.131 C 
BRANCH  31  32
ATOM     32  C   UNL     1       5.236   4.512   3.950  0.00  0.00    -0.039 A 
ATOM     33  C   UNL     1       6.369   5.268   3.712  0.00  0.00    +0.004 A 
ATOM     34  C   UNL     1       6.763   6.230   4.623  0.00  0.00    +0.000 A 
ATOM     35  C   UNL     1       6.028   6.431   5.776  0.00  0.00    +0.000 A 
ATOM     36  C   UNL     1       4.898   5.672   6.017  0.00  0.00    +0.000 A 
ATOM     37  C   UNL     1       4.502   4.712   5.104  0.00  0.00    +0.004 A 
ENDBRANCH  31  32
ENDBRANCH  15  31
TORSDOF 4
