REMARK  Name = ZINC09237285
REMARK  11 active torsions:
REMARK  status: ('A' for Active; 'I' for Inactive)
REMARK    1  A    between atoms: C_1  and  C_2
REMARK    2  A    between atoms: C_2  and  O_3
REMARK    3  A    between atoms: O_3  and  C_4
REMARK    4  A    between atoms: C_4  and  C_6
REMARK    5  A    between atoms: C_7  and  C_34
REMARK    6  A    between atoms: C_8  and  C_33
REMARK    7  A    between atoms: C_10  and  N_11
REMARK    8  A    between atoms: N_11  and  C_12
REMARK    9  A    between atoms: N_22  and  C_25
REMARK   10  A    between atoms: C_28  and  C_32
REMARK   11  A    between atoms: C_30  and  C_31
REMARK                            x       y       z     vdW  Elec       q    Type
REMARK                         _______ _______ _______ _____ _____    ______ ____
ROOT
ATOM      1  C   UNL     1      -3.597   6.119   6.265  0.00  0.00    +0.086 C 
ATOM      2  C   UNL     1      -3.509   4.760   6.057  0.00  0.00    +0.059 C 
ATOM      3  C   UNL     1      -4.134   3.805   6.995  0.00  0.00    +0.000 A 
ATOM      4  C   UNL     1      -4.833   4.232   8.118  0.00  0.00    +0.009 A 
ATOM      5  C   UNL     1      -5.398   3.301   8.964  0.00  0.00    +0.001 A 
ATOM      6  C   UNL     1      -5.275   1.944   8.703  0.00  0.00    +0.001 A 
ATOM      7  C   UNL     1      -4.586   1.501   7.594  0.00  0.00    +0.014 A 
ATOM      8  C   UNL     1      -4.006   2.426   6.726  0.00  0.00    +0.046 A 
ATOM      9  C   UNL     1      -3.264   1.996   5.534  0.00  0.00    +0.258 C 
ATOM     10  O   UNL     1      -3.151   0.809   5.296  0.00  0.00    -0.269 OA
ATOM     11  N   UNL     1      -2.708   2.892   4.702  0.00  0.00    -0.202 N 
ATOM     12  C   UNL     1      -2.786   4.218   4.901  0.00  0.00    +0.259 C 
ATOM     13  O   UNL     1      -2.255   4.978   4.111  0.00  0.00    -0.269 OA
ENDROOT
BRANCH  11  14
ATOM     14  C   UNL     1      -2.010   2.423   3.582  0.00  0.00    +0.047 A 
ATOM     15  C   UNL     1      -2.678   2.222   2.381  0.00  0.00    +0.024 A 
ATOM     16  C   UNL     1      -1.987   1.764   1.276  0.00  0.00    +0.005 A 
ATOM     17  C   UNL     1      -0.633   1.496   1.368  0.00  0.00    -0.050 A 
ATOM     18  C   UNL     1       0.034   1.696   2.562  0.00  0.00    +0.008 A 
ATOM     19  C   UNL     1      -0.650   2.158   3.669  0.00  0.00    -0.028 A 
ATOM     20  C   UNL     1       0.078   2.375   4.970  0.00  0.00    +0.046 C 
ATOM     21  C   UNL     1       0.117   0.991   0.162  0.00  0.00    +0.044 C 
ENDBRANCH  11  14
BRANCH   1  22
ATOM     22  N   UNL     1      -3.742   6.606   7.527  0.00  0.00    -0.314 N 
ATOM     23  H   UNL     1      -3.674   5.927   8.390  0.00  0.00    +0.152 HD
BRANCH  22  28
ATOM     24  C   UNL     1      -4.148   8.636   8.928  0.00  0.00    +0.090 A 
ATOM     25  C   UNL     1      -4.377  10.058   8.840  0.00  0.00    -0.025 A 
ATOM     26  C   UNL     1      -4.404  10.602   7.610  0.00  0.00    -0.008 A 
ATOM     27  S   UNL     1      -4.113   9.209   6.539  0.00  0.00    -0.078 S 
ATOM     28  C   UNL     1      -3.974   7.955   7.726  0.00  0.00    +0.084 A 
ATOM     29  C   UNL     1      -4.620  12.044   7.230  0.00  0.00    +0.052 C 
ATOM     30  C   UNL     1      -4.578  10.899  10.075  0.00  0.00    +0.045 C 
BRANCH  24  31
ATOM     31  C   UNL     1      -4.099   7.943  10.217  0.00  0.00    +0.342 C 
ATOM     32  O   UNL     1      -3.041   7.825  10.805  0.00  0.00    -0.245 OA
BRANCH  31  33
ATOM     33  O   UNL     1      -5.228   7.434  10.752  0.00  0.00    -0.461 OA
BRANCH  33  35
ATOM     34  C   UNL     1      -6.480   6.255  12.476  0.00  0.00    +0.048 C 
ATOM     35  C   UNL     1      -5.106   6.761  12.032  0.00  0.00    +0.229 C 
ENDBRANCH  33  35
ENDBRANCH  31  33
ENDBRANCH  24  31
ENDBRANCH  22  28
ENDBRANCH   1  22
TORSDOF 6
