REMARK  Name = ZINC67193564
REMARK  9 active torsions:
REMARK  status: ('A' for Active; 'I' for Inactive)
REMARK    1  A    between atoms: C_1  and  C_2
REMARK    2  A    between atoms: C_2  and  C_3
REMARK    3  A    between atoms: C_2  and  O_4
REMARK    4  A    between atoms: O_4  and  C_5
REMARK    5  A    between atoms: C_9  and  C_11
REMARK    6  A    between atoms: C_12  and  C_13
REMARK    7  A    between atoms: N_15  and  N_16
REMARK    8  A    between atoms: N_19  and  C_20
REMARK    9  A    between atoms: C_20  and  C_21
REMARK                            x       y       z     vdW  Elec       q    Type
REMARK                         _______ _______ _______ _____ _____    ______ ____
ROOT
ATOM      1  C   UNL     1       0.443  -1.930   8.308  0.00  0.00    +0.253 C 
ATOM      2  O   UNL     1       1.644  -2.127   8.331  0.00  0.00    -0.269 OA
ATOM      3  N   UNL     1      -0.281  -2.049   9.438  0.00  0.00    -0.230 N 
ATOM      4  H   UNL     1      -1.238  -1.891   9.420  0.00  0.00    +0.173 HD
ENDROOT
BRANCH   3   5
ATOM      5  N   UNL     1       0.347  -2.401  10.640  0.00  0.00    -0.218 N 
ATOM      6  C   UNL     1      -0.377  -2.520  11.770  0.00  0.00    +0.316 C 
ATOM      7  O   UNL     1       0.169  -2.825  12.813  0.00  0.00    -0.251 OA
ATOM      8  N   UNL     1      -1.707  -2.301  11.744  0.00  0.00    -0.290 N 
ATOM      9  H   UNL     1       1.304  -2.559  10.658  0.00  0.00    +0.174 HD
ATOM     10  H   UNL     1      -2.142  -2.057  10.912  0.00  0.00    +0.151 HD
BRANCH   8  11
ATOM     11  C   UNL     1      -2.494  -2.430  12.973  0.00  0.00    +0.219 C 
BRANCH  11  12
ATOM     12  C   UNL     1      -3.964  -2.131  12.670  0.00  0.00    +0.405 C 
ATOM     13  F   UNL     1      -4.438  -3.037  11.715  0.00  0.00    -0.169 F 
ATOM     14  F   UNL     1      -4.716  -2.255  13.843  0.00  0.00    -0.169 F 
ATOM     15  F   UNL     1      -4.082  -0.828  12.176  0.00  0.00    -0.169 F 
ENDBRANCH  11  12
ENDBRANCH   8  11
ENDBRANCH   3   5
BRANCH   1  17
ATOM     16  C   UNL     1       0.511  -1.442   5.922  0.00  0.00    +0.013 C 
ATOM     17  C   UNL     1      -0.214  -1.562   7.053  0.00  0.00    +0.069 C 
BRANCH  16  22
ATOM     18  C   UNL     1      -0.031  -0.600   2.304  0.00  0.00    +0.121 A 
ATOM     19  C   UNL     1      -1.401  -0.376   2.284  0.00  0.00    +0.046 A 
ATOM     20  C   UNL     1      -2.144  -0.498   3.444  0.00  0.00    +0.004 A 
ATOM     21  C   UNL     1      -1.530  -0.845   4.630  0.00  0.00    +0.008 A 
ATOM     22  C   UNL     1      -0.150  -1.073   4.660  0.00  0.00    -0.021 A 
ATOM     23  C   UNL     1       0.598  -0.953   3.485  0.00  0.00    +0.053 A 
BRANCH  18  24
ATOM     24  O   UNL     1       0.693  -0.477   1.160  0.00  0.00    -0.489 OA
BRANCH  24  26
ATOM     25  C   UNL     1      -0.292   1.273  -0.184  0.00  0.00    +0.051 C 
ATOM     26  C   UNL     1      -0.034  -0.229  -0.045  0.00  0.00    +0.167 C 
ATOM     27  C   UNL     1       0.781  -0.719  -1.243  0.00  0.00    +0.051 C 
ENDBRANCH  24  26
ENDBRANCH  18  24
ENDBRANCH  16  22
ENDBRANCH   1  17
TORSDOF 7
