REMARK  Name = ZINC67084553
REMARK  6 active torsions:
REMARK  status: ('A' for Active; 'I' for Inactive)
REMARK    1  A    between atoms: C_1  and  C_2
REMARK    2  A    between atoms: C_4  and  C_7
REMARK    3  A    between atoms: C_7  and  C_8
REMARK    4  A    between atoms: C_8  and  C_9
REMARK    5  A    between atoms: C_9  and  N_10
REMARK    6  A    between atoms: C_16  and  C_19
REMARK                            x       y       z     vdW  Elec       q    Type
REMARK                         _______ _______ _______ _____ _____    ______ ____
ROOT
ATOM      1  N   UNL     1       2.119  -6.856  -4.680  0.00  0.00    -0.299 N 
ATOM      2  C   UNL     1       3.137  -6.160  -4.135  0.00  0.00    +0.302 C 
ATOM      3  O   UNL     1       2.907  -5.178  -3.456  0.00  0.00    -0.253 OA
ATOM      4  N   UNL     1       4.409  -6.554  -4.342  0.00  0.00    -0.286 N 
ATOM      5  C   UNL     1       5.522  -5.878  -3.661  0.00  0.00    +0.110 C 
ATOM      6  C   UNL     1       6.366  -6.928  -2.933  0.00  0.00    +0.028 C 
ATOM      7  C   UNL     1       6.801  -8.007  -3.928  0.00  0.00    +0.039 C 
ATOM      8  C   UNL     1       5.563  -8.698  -4.506  0.00  0.00    +0.028 C 
ATOM      9  C   UNL     1       4.710  -7.671  -5.247  0.00  0.00    +0.110 C 
ATOM     10  H   UNL     1       2.304  -7.594  -5.281  0.00  0.00    +0.150 HD
ENDROOT
BRANCH   7  11
ATOM     11  C   UNL     1       7.660  -9.025  -3.222  0.00  0.00    +0.020 A 
ATOM     12  C   UNL     1       7.492  -9.428  -1.953  0.00  0.00    +0.031 A 
ATOM     13  C   UNL     1       8.536 -10.417  -1.676  0.00  0.00    -0.000 A 
ATOM     14  C   UNL     1       8.877 -11.180  -0.558  0.00  0.00    +0.010 A 
ATOM     15  C   UNL     1       9.938 -12.039  -0.621  0.00  0.00    +0.001 A 
ATOM     16  C   UNL     1      10.680 -12.158  -1.788  0.00  0.00    +0.002 A 
ATOM     17  C   UNL     1      10.361 -11.415  -2.903  0.00  0.00    +0.026 A 
ATOM     18  C   UNL     1       9.284 -10.534  -2.861  0.00  0.00    +0.047 A 
ATOM     19  N   UNL     1       8.723  -9.679  -3.783  0.00  0.00    -0.358 N 
ATOM     20  H   UNL     1       9.035  -9.557  -4.692  0.00  0.00    +0.166 HD
ENDBRANCH   7  11
BRANCH   1  21
ATOM     21  C   UNL     1       0.735  -6.496  -4.365  0.00  0.00    +0.106 C 
BRANCH  21  22
ATOM     22  C   UNL     1      -0.218  -7.434  -5.109  0.00  0.00    +0.028 C 
BRANCH  22  23
ATOM     23  C   UNL     1      -1.664  -7.058  -4.780  0.00  0.00    +0.100 C 
BRANCH  23  27
ATOM     24  C   UNL     1      -4.590 -10.991  -5.811  0.00  0.00    +0.091 C 
ATOM     25  C   UNL     1      -3.870  -9.677  -5.971  0.00  0.00    +0.169 A 
ATOM     26  N   UNL     1      -3.064  -9.117  -5.062  0.00  0.00    -0.196 NA
ATOM     27  C   UNL     1      -2.602  -7.983  -5.512  0.00  0.00    +0.227 A 
ATOM     28  O   UNL     1      -3.105  -7.782  -6.737  0.00  0.00    -0.338 OA
ATOM     29  N   UNL     1      -3.927  -8.905  -7.018  0.00  0.00    -0.062 NA
ENDBRANCH  23  27
ENDBRANCH  22  23
ENDBRANCH  21  22
ENDBRANCH   1  21
TORSDOF 5
