REMARK  Name = ZINC34775464
REMARK  7 active torsions:
REMARK  status: ('A' for Active; 'I' for Inactive)
REMARK    1  A    between atoms: C_1  and  C_2
REMARK    2  A    between atoms: C_7  and  N_8
REMARK    3  A    between atoms: C_9  and  C_11
REMARK    4  A    between atoms: C_11  and  N_12
REMARK    5  A    between atoms: N_20  and  C_21
REMARK    6  A    between atoms: C_22  and  C_32
REMARK    7  A    between atoms: C_23  and  C_26
REMARK                            x       y       z     vdW  Elec       q    Type
REMARK                         _______ _______ _______ _____ _____    ______ ____
ROOT
ATOM      1  N   UNL     1      -0.251  -0.902   5.989  0.00  0.00    +0.387 N 
ATOM      2  C   UNL     1      -1.484  -1.691   5.874  0.00  0.00    -0.059 C 
ATOM      3  C   UNL     1      -1.502  -2.769   6.963  0.00  0.00    +0.091 C 
ATOM      4  N   UNL     1      -1.318  -2.116   8.268  0.00  0.00    -0.289 N 
ATOM      5  C   UNL     1      -0.196  -1.178   8.422  0.00  0.00    +0.091 C 
ATOM      6  C   UNL     1      -0.239  -0.175   7.264  0.00  0.00    -0.059 C 
ATOM      7  C   UNL     1      -2.154  -2.371   9.294  0.00  0.00    +0.307 C 
ATOM      8  O   UNL     1      -3.020  -3.216   9.178  0.00  0.00    -0.252 OA
ATOM      9  N   UNL     1      -2.029  -1.689  10.450  0.00  0.00    -0.263 N 
ATOM     10  H   UNL     1      -1.293  -1.069  10.571  0.00  0.00    +0.157 HD
ATOM     11  H   UNL     1       0.545  -1.519   5.947  0.00  0.00    -0.081 HD
ENDROOT
BRANCH   9  12
ATOM     12  C   UNL     1      -2.955  -1.873  11.468  0.00  0.00    +0.091 A 
ATOM     13  C   UNL     1      -3.004  -1.267  12.717  0.00  0.00    +0.088 A 
ATOM     14  C   UNL     1      -4.095  -1.651  13.590  0.00  0.00    +0.008 A 
ATOM     15  C   UNL     1      -4.985  -2.568  13.131  0.00  0.00    +0.056 A 
ATOM     16  S   UNL     1      -4.383  -2.940  11.496  0.00  0.00    -0.080 S 
BRANCH  14  17
ATOM     17  C   UNL     1      -4.234  -1.062  14.943  0.00  0.00    -0.016 A 
ATOM     18  C   UNL     1      -3.142  -1.033  15.809  0.00  0.00    +0.008 A 
ATOM     19  C   UNL     1      -3.278  -0.482  17.067  0.00  0.00    +0.001 A 
ATOM     20  C   UNL     1      -4.494   0.040  17.470  0.00  0.00    +0.000 A 
ATOM     21  C   UNL     1      -5.581   0.014  16.614  0.00  0.00    +0.001 A 
ATOM     22  C   UNL     1      -5.456  -0.529  15.351  0.00  0.00    +0.008 A 
ENDBRANCH  14  17
BRANCH  13  23
ATOM     23  C   UNL     1      -2.022  -0.308  13.124  0.00  0.00    +0.102 C 
ATOM     24  N   UNL     1      -1.243   0.453  13.446  0.00  0.00    -0.191 NA
ENDBRANCH  13  23
ENDBRANCH   9  12
BRANCH   1  25
ATOM     25  C   UNL     1      -0.182   0.059   4.879  0.00  0.00    +0.019 C 
BRANCH  25  27
ATOM     26  N   UNL     1       0.007  -0.007   2.414  0.00  0.00    -0.287 N 
ATOM     27  C   UNL     1      -0.071  -0.688   3.575  0.00  0.00    +0.201 C 
ATOM     28  O   UNL     1      -0.051  -1.900   3.570  0.00  0.00    -0.278 OA
ATOM     29  H   UNL     1       0.057   0.961   2.421  0.00  0.00    +0.155 HD
BRANCH  26  36
ATOM     30  C   UNL     1      -1.290   1.188   0.180  0.00  0.00    +0.045 C 
ATOM     31  C   UNL     1      -0.606  -0.152   0.082  0.00  0.00    -0.029 A 
ATOM     32  C   UNL     1      -0.591  -0.834  -1.119  0.00  0.00    +0.005 A 
ATOM     33  C   UNL     1       0.036  -2.063  -1.210  0.00  0.00    +0.000 A 
ATOM     34  C   UNL     1       0.651  -2.613  -0.100  0.00  0.00    +0.002 A 
ATOM     35  C   UNL     1       0.640  -1.935   1.104  0.00  0.00    +0.023 A 
ATOM     36  C   UNL     1       0.015  -0.699   1.197  0.00  0.00    +0.036 A 
ENDBRANCH  26  36
ENDBRANCH  25  27
ENDBRANCH   1  25
TORSDOF 6
