REMARK  Name = ZINC09353685
REMARK  6 active torsions:
REMARK  status: ('A' for Active; 'I' for Inactive)
REMARK    1  A    between atoms: C_4  and  C_7
REMARK    2  A    between atoms: C_7  and  C_8
REMARK    3  A    between atoms: C_9  and  C_25
REMARK    4  A    between atoms: C_9  and  C_29
REMARK    5  A    between atoms: N_15  and  C_18
REMARK    6  A    between atoms: C_18  and  C_19
REMARK                            x       y       z     vdW  Elec       q    Type
REMARK                         _______ _______ _______ _____ _____    ______ ____
ROOT
ATOM      1  C   UNL     1       1.139   6.007   0.029  0.00  0.00    +0.079 C 
ATOM      2  C   UNL     1       0.139   3.809   0.030  0.00  0.00    +0.264 C 
ATOM      3  C   UNL     1       1.501   3.311  -0.361  0.00  0.00    +0.098 A 
ATOM      4  C   UNL     1       1.695   1.980  -0.739  0.00  0.00    +0.262 A 
ATOM      5  N   UNL     1       2.913   1.563  -1.067  0.00  0.00    -0.275 N 
ATOM      6  C   UNL     1       3.953   2.392  -1.053  0.00  0.00    +0.331 A 
ATOM      7  O   UNL     1       5.056   1.973  -1.365  0.00  0.00    -0.246 OA
ATOM      8  N   UNL     1       3.814   3.684  -0.697  0.00  0.00    -0.274 N 
ATOM      9  C   UNL     1       2.584   4.162  -0.348  0.00  0.00    +0.119 A 
ATOM     10  N   UNL     1       2.406   5.478   0.011  0.00  0.00    -0.290 N 
ATOM     11  O   UNL     1       0.651   1.120  -0.765  0.00  0.00    -0.267 OA
ATOM     12  H   UNL     1       3.170   6.028   0.248  0.00  0.00    +0.155 HD
ATOM     13  H   UNL     1       3.050   0.608  -1.329  0.00  0.00    +0.173 HD
ATOM     14  N   UNL     1       0.010   5.310   0.035  0.00  0.00    -0.352 N 
ATOM     15  H   UNL     1      -0.907   5.772   0.043  0.00  0.00    +0.162 HD
ENDROOT
BRANCH   2  16
ATOM     16  C   UNL     1      -0.894   3.277  -0.965  0.00  0.00    +0.426 C 
ATOM     17  F   UNL     1      -1.174   1.937  -0.675  0.00  0.00    -0.167 F 
ATOM     18  F   UNL     1      -2.069   4.031  -0.865  0.00  0.00    -0.167 F 
ATOM     19  F   UNL     1      -0.385   3.376  -2.264  0.00  0.00    -0.167 F 
ENDBRANCH   2  16
BRANCH   2  20
ATOM     20  C   UNL     1      -0.201   3.292   1.430  0.00  0.00    +0.426 C 
ATOM     21  F   UNL     1       0.750   3.759   2.343  0.00  0.00    -0.167 F 
ATOM     22  F   UNL     1      -1.469   3.752   1.801  0.00  0.00    -0.167 F 
ATOM     23  F   UNL     1      -0.195   1.893   1.424  0.00  0.00    -0.167 F 
ENDBRANCH   2  20
BRANCH   1  24
ATOM     24  C   UNL     1       0.974   7.505   0.042  0.00  0.00    +0.104 C 
BRANCH  24  28
ATOM     25  C   UNL     1      -3.186   8.476   0.096  0.00  0.00    +0.000 A 
ATOM     26  C   UNL     1      -2.499   8.310   1.285  0.00  0.00    +0.000 A 
ATOM     27  C   UNL     1      -1.153   7.995   1.267  0.00  0.00    +0.004 A 
ATOM     28  C   UNL     1      -0.494   7.848   0.061  0.00  0.00    -0.040 A 
ATOM     29  C   UNL     1      -1.179   8.019  -1.127  0.00  0.00    +0.004 A 
ATOM     30  C   UNL     1      -2.526   8.329  -1.109  0.00  0.00    +0.000 A 
ENDBRANCH  24  28
ENDBRANCH   1  24
BRANCH   8  31
ATOM     31  C   UNL     1       4.979   4.572  -0.684  0.00  0.00    +0.202 C 
BRANCH  31  32
ATOM     32  C   UNL     1       5.628   4.530   0.676  0.00  0.00    +0.125 A 
ATOM     33  C   UNL     1       6.596   3.679   1.060  0.00  0.00    +0.046 A 
ATOM     34  C   UNL     1       6.908   3.992   2.402  0.00  0.00    +0.041 A 
ATOM     35  C   UNL     1       6.106   5.011   2.762  0.00  0.00    +0.195 A 
ATOM     36  O   UNL     1       5.333   5.332   1.712  0.00  0.00    -0.466 OA
ENDBRANCH  31  32
ENDBRANCH   8  31
TORSDOF 6
