REMARK  Name = ZINC49640314
REMARK  4 active torsions:
REMARK  status: ('A' for Active; 'I' for Inactive)
REMARK    1  A    between atoms: C_1  and  C_2
REMARK    2  A    between atoms: N_4  and  C_7
REMARK    3  A    between atoms: C_10  and  C_13
REMARK    4  A    between atoms: C_23  and  C_25
REMARK                            x       y       z     vdW  Elec       q    Type
REMARK                         _______ _______ _______ _____ _____    ______ ____
ROOT
ATOM      1  C   UNL     1      -0.953  -6.524  -4.756  0.00  0.00    +0.247 C 
ATOM      2  O   UNL     1      -0.856  -7.720  -4.560  0.00  0.00    -0.270 OA
ATOM      3  N   UNL     1      -0.627  -6.009  -5.958  0.00  0.00    -0.283 N 
ATOM      4  C   UNL     1      -0.740  -4.566  -6.220  0.00  0.00    +0.130 C 
ATOM      5  C   UNL     1       0.653  -3.991  -6.495  0.00  0.00    +0.140 C 
ATOM      6  N   UNL     1       1.359  -4.864  -7.439  0.00  0.00    -0.347 N 
ATOM      7  C   UNL     1       2.443  -4.542  -8.197  0.00  0.00    +0.086 A 
ATOM      8  C   UNL     1       2.790  -5.628  -8.920  0.00  0.00    +0.019 A 
ATOM      9  C   UNL     1       1.884  -6.659  -8.598  0.00  0.00    +0.025 A 
ATOM     10  C   UNL     1       1.021  -6.165  -7.697  0.00  0.00    +0.044 A 
ATOM     11  C   UNL     1      -0.140  -6.875  -7.048  0.00  0.00    +0.153 C 
ENDROOT
BRANCH   1  15
ATOM     12  C   UNL     1      -2.321  -3.968  -1.652  0.00  0.00    +0.052 A 
ATOM     13  C   UNL     1      -2.833  -5.258  -1.767  0.00  0.00    +0.025 A 
ATOM     14  C   UNL     1      -2.392  -6.088  -2.772  0.00  0.00    +0.015 A 
ATOM     15  C   UNL     1      -1.429  -5.636  -3.678  0.00  0.00    +0.037 A 
ATOM     16  C   UNL     1      -0.916  -4.340  -3.561  0.00  0.00    +0.015 A 
ATOM     17  C   UNL     1      -1.365  -3.513  -2.557  0.00  0.00    +0.025 A 
BRANCH  12  21
ATOM     18  C   UNL     1      -2.612   0.157   1.030  0.00  0.00    +0.062 C 
ATOM     19  C   UNL     1      -2.893  -1.252   0.577  0.00  0.00    +0.036 C 
ATOM     20  N   UNL     1      -2.343  -1.823  -0.415  0.00  0.00    -0.189 NA
ATOM     21  N   UNL     1      -2.768  -3.132  -0.636  0.00  0.00    -0.224 N 
ATOM     22  C   UNL     1      -3.769  -3.482   0.385  0.00  0.00    +0.138 C 
ATOM     23  C   UNL     1      -3.867  -2.201   1.238  0.00  0.00    +0.073 C 
ENDBRANCH  12  21
ENDBRANCH   1  15
BRANCH  11  24
ATOM     24  C   UNL     1       0.316  -8.198  -6.488  0.00  0.00    -0.021 A 
ATOM     25  C   UNL     1       1.343  -8.241  -5.564  0.00  0.00    +0.006 A 
ATOM     26  C   UNL     1       1.761  -9.454  -5.051  0.00  0.00    +0.000 A 
ATOM     27  C   UNL     1       1.152 -10.625  -5.461  0.00  0.00    +0.000 A 
ATOM     28  C   UNL     1       0.124 -10.582  -6.385  0.00  0.00    +0.000 A 
ATOM     29  C   UNL     1      -0.296  -9.369  -6.895  0.00  0.00    +0.006 A 
ENDBRANCH  11  24
TORSDOF 3
