REMARK  Name = ZINC05338293
REMARK  3 active torsions:
REMARK  status: ('A' for Active; 'I' for Inactive)
REMARK    1  A    between atoms: C_4  and  C_7
REMARK    2  A    between atoms: C_16  and  C_17
REMARK    3  A    between atoms: C_26  and  N_30
REMARK                            x       y       z     vdW  Elec       q    Type
REMARK                         _______ _______ _______ _____ _____    ______ ____
ROOT
ATOM      1  C   UNL     1       1.335   6.524   0.022  0.00  0.00    +0.013 C 
ATOM      2  C   UNL     1       0.270   5.713   0.128  0.00  0.00    -0.021 C 
ATOM      3  C   UNL     1      -1.167   6.101  -0.121  0.00  0.00    +0.042 C 
ATOM      4  C   UNL     1      -1.982   4.825   0.132  0.00  0.00    +0.042 C 
ATOM      5  C   UNL     1      -0.988   3.756   0.517  0.00  0.00    -0.013 A 
ATOM      6  C   UNL     1       0.301   4.289   0.508  0.00  0.00    +0.072 A 
ATOM      7  N   UNL     1       1.343   3.511   0.819  0.00  0.00    -0.239 NA
ATOM      8  C   UNL     1       1.196   2.246   1.138  0.00  0.00    +0.112 A 
ATOM      9  C   UNL     1      -0.059   1.613   1.177  0.00  0.00    +0.042 A 
ATOM     10  C   UNL     1      -1.186   2.423   0.855  0.00  0.00    -0.001 A 
ATOM     11  C   UNL     1      -0.053   0.190   1.553  0.00  0.00    +0.093 A 
ATOM     12  C   UNL     1       1.203  -0.366   1.828  0.00  0.00    +0.080 A 
ATOM     13  S   UNL     1       2.344   0.968   1.593  0.00  0.00    -0.064 S 
ATOM     14  C   UNL     1       1.329  -1.699   2.192  0.00  0.00    +0.134 A 
ATOM     15  N   UNL     1       0.223  -2.439   2.274  0.00  0.00    -0.220 NA
ATOM     16  C   UNL     1      -0.954  -1.900   2.012  0.00  0.00    +0.224 A 
ATOM     17  N   UNL     1      -1.111  -0.647   1.666  0.00  0.00    -0.234 NA
ENDROOT
BRANCH   1  21
ATOM     18  C   UNL     1       5.256   4.925   0.296  0.00  0.00    +0.000 A 
ATOM     19  C   UNL     1       4.276   4.232  -0.392  0.00  0.00    +0.001 A 
ATOM     20  C   UNL     1       3.000   4.745  -0.485  0.00  0.00    +0.008 A 
ATOM     21  C   UNL     1       2.697   5.969   0.117  0.00  0.00    -0.025 A 
ATOM     22  C   UNL     1       3.693   6.666   0.806  0.00  0.00    +0.008 A 
ATOM     23  C   UNL     1       4.964   6.138   0.896  0.00  0.00    +0.001 A 
ENDBRANCH   1  21
BRANCH  10  24
ATOM     24  C   UNL     1      -2.553   1.849   0.873  0.00  0.00    -0.017 A 
ATOM     25  C   UNL     1      -3.289   1.758  -0.307  0.00  0.00    +0.008 A 
ATOM     26  C   UNL     1      -4.559   1.219  -0.285  0.00  0.00    +0.001 A 
ATOM     27  C   UNL     1      -5.106   0.778   0.907  0.00  0.00    +0.000 A 
ATOM     28  C   UNL     1      -4.381   0.870   2.082  0.00  0.00    +0.001 A 
ATOM     29  C   UNL     1      -3.109   1.403   2.071  0.00  0.00    +0.008 A 
ENDBRANCH  10  24
BRANCH  14  30
ATOM     30  N   UNL     1       2.572  -2.248   2.463  0.00  0.00    -0.342 N 
ATOM     31  H   UNL     1       2.646  -3.182   2.716  0.00  0.00    +0.144 HD
ATOM     32  H   UNL     1       3.369  -1.699   2.400  0.00  0.00    +0.144 HD
ENDBRANCH  14  30
TORSDOF 3
