REMARK  Name = ZINC01811159
REMARK  10 active torsions:
REMARK  status: ('A' for Active; 'I' for Inactive)
REMARK    1  A    between atoms: C_1  and  C_2
REMARK    2  A    between atoms: C_2  and  C_3
REMARK    3  A    between atoms: C_2  and  O_4
REMARK    4  A    between atoms: O_4  and  C_5
REMARK    5  A    between atoms: C_5  and  C_7
REMARK    6  A    between atoms: C_11  and  N_12
REMARK    7  A    between atoms: C_13  and  C_15
REMARK    8  A    between atoms: C_20  and  C_35
REMARK    9  A    between atoms: C_23  and  C_26
REMARK   10  A    between atoms: C_29  and  N_32
REMARK                            x       y       z     vdW  Elec       q    Type
REMARK                         _______ _______ _______ _____ _____    ______ ____
ROOT
ATOM      1  C   UNL     1      -2.523  -5.550   0.858  0.00  0.00    +0.149 A 
ATOM      2  C   UNL     1      -2.300  -6.943   0.780  0.00  0.00    +0.078 A 
ATOM      3  C   UNL     1      -3.434  -7.559   1.166  0.00  0.00    +0.119 A 
ATOM      4  N   UNL     1      -4.353  -6.599   1.483  0.00  0.00    -0.238 N 
ATOM      5  N   UNL     1      -3.758  -5.354   1.286  0.00  0.00    -0.164 NA
ATOM      6  C   UNL     1      -5.710  -6.896   1.950  0.00  0.00    +0.215 C 
ATOM      7  C   UNL     1      -5.752  -8.337   2.470  0.00  0.00    +0.063 C 
ATOM      8  C   UNL     1      -5.137  -9.284   1.434  0.00  0.00    +0.104 C 
ATOM      9  N   UNL     1      -3.716  -8.925   1.256  0.00  0.00    -0.322 N 
ATOM     10  H   UNL     1      -2.953  -9.715   1.201  0.00  0.00    +0.148 HD
ENDROOT
BRANCH   8  11
ATOM     11  C   UNL     1      -5.864  -9.139   0.121  0.00  0.00    -0.027 A 
ATOM     12  C   UNL     1      -5.571  -8.080  -0.718  0.00  0.00    +0.008 A 
ATOM     13  C   UNL     1      -6.235  -7.950  -1.924  0.00  0.00    +0.033 A 
ATOM     14  C   UNL     1      -7.198  -8.873  -2.285  0.00  0.00    +0.126 A 
ATOM     15  C   UNL     1      -7.495  -9.929  -1.444  0.00  0.00    +0.033 A 
ATOM     16  C   UNL     1      -6.828 -10.062  -0.240  0.00  0.00    +0.008 A 
BRANCH  14  17
ATOM     17  N   UNL     1      -7.913  -8.731  -3.574  0.00  0.00    +0.056 N 
ATOM     18  O   UNL     1      -8.762  -9.543  -3.893  0.00  0.00    -0.126 OA
ATOM     19  O   UNL     1      -7.652  -7.800  -4.315  0.00  0.00    -0.126 OA
ENDBRANCH  14  17
ENDBRANCH   8  11
BRANCH   1  21
ATOM     20  N   UNL     1      -1.885  -3.197   0.643  0.00  0.00    -0.274 N 
ATOM     21  C   UNL     1      -1.544  -4.495   0.525  0.00  0.00    +0.269 C 
ATOM     22  O   UNL     1      -0.430  -4.799   0.144  0.00  0.00    -0.268 OA
ATOM     23  H   UNL     1      -2.893  -2.922   0.987  0.00  0.00    +0.156 HD
BRANCH  20  28
ATOM     24  C   UNL     1      -1.130  -0.830   0.388  0.00  0.00    +0.091 A 
ATOM     25  C   UNL     1       0.002  -0.004   0.002  0.00  0.00    -0.021 A 
ATOM     26  C   UNL     1       1.107  -0.683  -0.376  0.00  0.00    -0.004 A 
ATOM     27  S   UNL     1       0.663  -2.390  -0.226  0.00  0.00    -0.077 S 
ATOM     28  C   UNL     1      -0.967  -2.208   0.331  0.00  0.00    +0.087 A 
ATOM     29  C   UNL     1       2.413  -0.104  -0.824  0.00  0.00    +0.043 C 
ATOM     30  C   UNL     1       2.198   1.381  -1.150  0.00  0.00    +0.005 C 
ATOM     31  C   UNL     1       1.423   2.031  -0.001  0.00  0.00    +0.005 C 
ATOM     32  C   UNL     1      -0.019   1.520   0.010  0.00  0.00    +0.037 C 
BRANCH  24  33
ATOM     33  C   UNL     1      -2.394  -0.232   0.821  0.00  0.00    +0.342 C 
ATOM     34  O   UNL     1      -3.260   0.018   0.004  0.00  0.00    -0.245 OA
BRANCH  33  35
ATOM     35  O   UNL     1      -2.599   0.043   2.126  0.00  0.00    -0.458 OA
BRANCH  35  37
ATOM     36  C   UNL     1      -4.256   0.211   3.902  0.00  0.00    +0.052 C 
ATOM     37  C   UNL     1      -3.875   0.635   2.482  0.00  0.00    +0.171 C 
ATOM     38  C   UNL     1      -3.765   2.160   2.419  0.00  0.00    +0.052 C 
ENDBRANCH  35  37
ENDBRANCH  33  35
ENDBRANCH  24  33
ENDBRANCH  20  28
ENDBRANCH   1  21
BRANCH   6  39
ATOM     39  C   UNL     1      -6.085  -5.933   3.079  0.00  0.00    +0.412 C 
ATOM     40  F   UNL     1      -6.033  -4.617   2.606  0.00  0.00    -0.168 F 
ATOM     41  F   UNL     1      -7.381  -6.217   3.523  0.00  0.00    -0.168 F 
ATOM     42  F   UNL     1      -5.185  -6.083   4.139  0.00  0.00    -0.168 F 
ENDBRANCH   6  39
TORSDOF 8
