REMARK  Name = ZINC40721425
REMARK  9 active torsions:
REMARK  status: ('A' for Active; 'I' for Inactive)
REMARK    1  A    between atoms: C_4  and  C_7
REMARK    2  A    between atoms: C_7  and  O_8
REMARK    3  A    between atoms: O_8  and  C_9
REMARK    4  A    between atoms: C_18  and  C_19
REMARK    5  A    between atoms: C_19  and  N_20
REMARK    6  A    between atoms: N_20  and  CA_21
REMARK    7  A    between atoms: CA_21  and  CB_23
REMARK    8  A    between atoms: CA_21  and  C_34
REMARK    9  A    between atoms: CB_23  and  CG_24
REMARK                            x       y       z     vdW  Elec       q    Type
REMARK                         _______ _______ _______ _____ _____    ______ ____
ROOT
ATOM      1  C   ACE A   0       4.986  -1.417   3.928  0.00  0.00    -0.041 C 
ENDROOT
BRANCH   1  11
ATOM      2  C   UNL     1       5.319  -1.605   1.466  0.00  0.00    +0.123 A 
ATOM      3  C   UNL     1       6.046  -2.006   0.341  0.00  0.00    +0.046 A 
ATOM      4  C   UNL     1       7.227  -2.667   0.472  0.00  0.00    +0.012 A 
ATOM      5  C   UNL     1       7.729  -2.952   1.754  0.00  0.00    -0.017 A 
ATOM      6  C   UNL     1       8.946  -3.632   1.925  0.00  0.00    +0.008 A 
ATOM      7  C   UNL     1       9.403  -3.892   3.180  0.00  0.00    +0.001 A 
ATOM      8  C   UNL     1       8.680  -3.493   4.303  0.00  0.00    +0.001 A 
ATOM      9  C   UNL     1       7.497  -2.832   4.177  0.00  0.00    +0.009 A 
ATOM     10  C   UNL     1       6.994  -2.546   2.896  0.00  0.00    -0.013 A 
ATOM     11  C   UNL     1       5.779  -1.861   2.726  0.00  0.00    -0.015 A 
BRANCH   2  12
ATOM     12  O   UNL     1       4.141  -0.946   1.304  0.00  0.00    -0.487 OA
BRANCH  12  13
ATOM     13  C   UNL     1       3.711  -0.707  -0.038  0.00  0.00    +0.264 C 
BRANCH  13  17
ATOM     14  C   UNL     1      -0.017   1.378   0.010  0.00  0.00    +0.000 A 
ATOM     15  C   UNL     1       1.171   2.086   0.002  0.00  0.00    +0.000 A 
ATOM     16  C   UNL     1       2.377   1.411  -0.013  0.00  0.00    +0.007 A 
ATOM     17  C   UNL     1       2.396   0.029  -0.020  0.00  0.00    -0.010 A 
ATOM     18  C   UNL     1       1.208  -0.679  -0.012  0.00  0.00    +0.007 A 
ATOM     19  C   UNL     1       0.002  -0.004   0.002  0.00  0.00    +0.000 A 
ENDBRANCH  13  17
ENDBRANCH  12  13
ENDBRANCH   2  12
ENDBRANCH   1  11
BRANCH   1  20
ATOM     20  N   UNL     1       4.052  -2.481   4.320  0.00  0.00    +0.391 N 
ATOM     21  H1  UNL     1       3.423  -2.675   3.555  0.00  0.00    -0.084 HD
ATOM     22  H2  UNL     1       4.571  -3.316   4.549  0.00  0.00    -0.084 HD
BRANCH  20  23
ATOM     23  CA  UNL     1       3.279  -2.047   5.491  0.00  0.00    +0.048 C 
BRANCH  23  24
ATOM     24  C   UNL     1       2.411  -0.874   5.115  0.00  0.00    +0.343 C 
ATOM     25  O   UNL     1       1.996  -0.765   3.974  0.00  0.00    -0.248 OA
ATOM     26  OXT UNL     1       2.125  -0.035   5.951  0.00  0.00    -0.248 OA
ENDBRANCH  23  24
BRANCH  23  27
ATOM     27  CB  UNL     1       2.397  -3.200   5.975  0.00  0.00    +0.032 C 
BRANCH  27  28
ATOM     28  CG  UNL     1       3.268  -4.327   6.467  0.00  0.00    -0.023 A 
ATOM     29  CD1 UNL     1       3.668  -5.395   5.758  0.00  0.00    +0.087 A 
ATOM     30  NE1 UNL     1       4.448  -6.206   6.537  0.00  0.00    -0.360 N 
ATOM     31  HE1 UNL     1       4.853  -7.037   6.244  0.00  0.00    +0.165 HD
ATOM     32  CE2 UNL     1       4.572  -5.666   7.797  0.00  0.00    +0.047 A 
ATOM     33  CD2 UNL     1       3.843  -4.463   7.807  0.00  0.00    +0.003 A 
ATOM     34  CE3 UNL     1       3.795  -3.687   8.967  0.00  0.00    +0.010 A 
ATOM     35  CZ3 UNL     1       4.459  -4.100  10.087  0.00  0.00    +0.001 A 
ATOM     36  CH2 UNL     1       5.182  -5.285  10.082  0.00  0.00    +0.002 A 
ATOM     37  CZ2 UNL     1       5.236  -6.070   8.951  0.00  0.00    +0.026 A 
ENDBRANCH  27  28
ENDBRANCH  23  27
ENDBRANCH  20  23
ENDBRANCH   1  20
TORSDOF 9
