REMARK  Name = ZINC66968046
REMARK  13 active torsions:
REMARK  status: ('A' for Active; 'I' for Inactive)
REMARK    1  A    between atoms: C_1  and  C_2
REMARK    2  A    between atoms: C_2  and  C_3
REMARK    3  A    between atoms: C_7  and  C_22
REMARK    4  A    between atoms: C_8  and  N_9
REMARK    5  A    between atoms: C_10  and  C_12
REMARK    6  A    between atoms: C_12  and  C_13
REMARK    7  A    between atoms: C_13  and  C_14
REMARK    8  A    between atoms: C_14  and  N_15
REMARK    9  A    between atoms: C_16  and  C_18
REMARK   10  A    between atoms: C_18  and  C_19
REMARK   11  A    between atoms: C_18  and  C_20
REMARK   12  A    between atoms: C_18  and  C_21
REMARK   13  A    between atoms: C_22  and  C_23
REMARK                            x       y       z     vdW  Elec       q    Type
REMARK                         _______ _______ _______ _____ _____    ______ ____
ROOT
ATOM      1  N   UNL     1       2.922  -0.612  -1.557  0.00  0.00    -0.285 N 
ATOM      2  C   UNL     1       4.124  -1.030  -2.001  0.00  0.00    +0.217 C 
ATOM      3  O   UNL     1       4.190  -1.824  -2.916  0.00  0.00    -0.275 OA
ATOM      4  H   UNL     1       2.869   0.094  -0.893  0.00  0.00    +0.155 HD
ENDROOT
BRANCH   1  10
ATOM      5  C   UNL     1       1.024  -0.555  -3.049  0.00  0.00    -0.026 A 
ATOM      6  C   UNL     1      -0.129  -1.135  -3.542  0.00  0.00    +0.007 A 
ATOM      7  C   UNL     1      -0.562  -2.349  -3.042  0.00  0.00    +0.020 A 
ATOM      8  C   UNL     1       0.158  -2.987  -2.046  0.00  0.00    +0.046 A 
ATOM      9  C   UNL     1       1.312  -2.412  -1.549  0.00  0.00    -0.008 A 
ATOM     10  C   UNL     1       1.751  -1.195  -2.054  0.00  0.00    +0.041 A 
ATOM     11 CL   UNL     1      -0.390  -4.512  -1.421  0.00  0.00    -0.083 Cl
BRANCH   5  13
ATOM     12  C   UNL     1       2.520   0.527  -4.704  0.00  0.00    +0.009 C 
ATOM     13  C   UNL     1       1.494   0.768  -3.595  0.00  0.00    +0.033 C 
ENDBRANCH   5  13
BRANCH   9  14
ATOM     14  C   UNL     1       2.095  -3.106  -0.465  0.00  0.00    +0.035 C 
ATOM     15  C   UNL     1       3.223  -3.924  -1.095  0.00  0.00    +0.009 C 
ENDBRANCH   9  14
ENDBRANCH   1  10
BRANCH   2  16
ATOM     16  C   UNL     1       5.386  -0.512  -1.361  0.00  0.00    +0.097 C 
BRANCH  16  17
ATOM     17  C   UNL     1       6.601  -1.140  -2.046  0.00  0.00    +0.028 C 
BRANCH  17  18
ATOM     18  C   UNL     1       7.882  -0.614  -1.396  0.00  0.00    +0.104 C 
BRANCH  18  19
ATOM     19  N   UNL     1       9.045  -1.215  -2.053  0.00  0.00    -0.315 N 
ATOM     20  C   UNL     1      10.290  -0.896  -1.644  0.00  0.00    +0.218 C 
ATOM     21  O   UNL     1      10.446  -0.112  -0.732  0.00  0.00    -0.275 OA
ATOM     22  H   UNL     1       8.920  -1.842  -2.782  0.00  0.00    +0.149 HD
BRANCH  20  23
ATOM     23  C   UNL     1      11.486  -1.515  -2.319  0.00  0.00    +0.039 C 
ATOM     24  C   UNL     1      12.767  -0.989  -1.669  0.00  0.00    +0.020 C 
ATOM     25  C   UNL     1      11.426  -3.037  -2.170  0.00  0.00    +0.020 C 
ATOM     26  C   UNL     1      11.480  -1.148  -3.804  0.00  0.00    +0.020 C 
ENDBRANCH  20  23
ENDBRANCH  18  19
ENDBRANCH  17  18
ENDBRANCH  16  17
ENDBRANCH   2  16
TORSDOF 8
