REMARK  Name = ZINC20220490
REMARK  12 active torsions:
REMARK  status: ('A' for Active; 'I' for Inactive)
REMARK    1  A    between atoms: C_1  and  O_2
REMARK    2  A    between atoms: O_2  and  C_3
REMARK    3  A    between atoms: C_3  and  C_5
REMARK    4  A    between atoms: C_5  and  C_6
REMARK    5  A    between atoms: C_7  and  C_32
REMARK    6  A    between atoms: C_16  and  N_28
REMARK    7  A    between atoms: C_17  and  C_18
REMARK    8  A    between atoms: C_18  and  O_20
REMARK    9  A    between atoms: O_20  and  C_21
REMARK   10  A    between atoms: C_21  and  C_22
REMARK   11  A    between atoms: C_32  and  O_34
REMARK   12  A    between atoms: O_34  and  C_35
REMARK                            x       y       z     vdW  Elec       q    Type
REMARK                         _______ _______ _______ _____ _____    ______ ____
ROOT
ATOM      1  C   UNL     1       1.259  -0.395   0.026  0.00  0.00    +0.131 C 
ATOM      2  C   UNL     1      -0.034  -0.027   0.030  0.00  0.00    +0.101 C 
ATOM      3  C   UNL     1      -0.029   1.486   0.024  0.00  0.00    +0.164 C 
ATOM      4  C   UNL     1      -0.687   2.002  -1.223  0.00  0.00    -0.000 A 
ATOM      5  C   UNL     1      -0.033   1.893  -2.437  0.00  0.00    +0.007 A 
ATOM      6  C   UNL     1      -0.629   2.361  -3.593  0.00  0.00    +0.000 A 
ATOM      7  C   UNL     1      -1.884   2.940  -3.542  0.00  0.00    +0.002 A 
ATOM      8  C   UNL     1      -2.543   3.052  -2.335  0.00  0.00    +0.023 A 
ATOM      9  C   UNL     1      -1.946   2.584  -1.171  0.00  0.00    +0.037 A 
ATOM     10  N   UNL     1      -2.616   2.704   0.050  0.00  0.00    -0.302 N 
ATOM     11  C   UNL     1      -1.929   2.590   1.229  0.00  0.00    +0.097 C 
ATOM     12  C   UNL     1      -0.683   2.016   1.262  0.00  0.00    +0.098 C 
ATOM     13  C   UNL     1       1.445   1.831   0.017  0.00  0.00    +0.332 C 
ATOM     14  O   UNL     1       1.937   2.934   0.011  0.00  0.00    -0.249 OA
ATOM     15  O   UNL     1       2.093   0.653   0.019  0.00  0.00    -0.428 OA
ATOM     16  H   UNL     1      -3.700   2.891   0.066  0.00  0.00    +0.153 HD
ENDROOT
BRANCH  11  17
ATOM     17  N   UNL     1      -2.493   3.054   2.389  0.00  0.00    -0.346 N 
ATOM     18  H   UNL     1      -1.946   2.966   3.340  0.00  0.00    +0.143 HD
ATOM     19  H   UNL     1      -3.491   3.515   2.370  0.00  0.00    +0.143 HD
ENDBRANCH  11  17
BRANCH  12  20
ATOM     20  C   UNL     1      -0.006   1.923   2.484  0.00  0.00    +0.340 C 
ATOM     21  O   UNL     1       0.011   0.868   3.092  0.00  0.00    -0.245 OA
BRANCH  20  22
ATOM     22  O   UNL     1       0.627   3.005   2.989  0.00  0.00    -0.457 OA
BRANCH  22  23
ATOM     23  C   UNL     1       1.297   2.838   4.240  0.00  0.00    +0.268 C 
BRANCH  23  24
ATOM     24  C   UNL     1       1.940   4.141   4.643  0.00  0.00    -0.010 A 
ATOM     25  C   UNL     1       3.237   4.420   4.255  0.00  0.00    +0.007 A 
ATOM     26  C   UNL     1       3.825   5.616   4.620  0.00  0.00    +0.000 A 
ATOM     27  C   UNL     1       3.120   6.529   5.381  0.00  0.00    +0.000 A 
ATOM     28  C   UNL     1       1.825   6.248   5.774  0.00  0.00    +0.000 A 
ATOM     29  C   UNL     1       1.235   5.053   5.405  0.00  0.00    +0.007 A 
ENDBRANCH  23  24
ENDBRANCH  22  23
ENDBRANCH  20  22
ENDBRANCH  12  20
BRANCH   2  30
ATOM     30  C   UNL     1      -1.166  -0.879   0.038  0.00  0.00    +0.340 C 
ATOM     31  O   UNL     1      -1.019  -2.087   0.042  0.00  0.00    -0.245 OA
BRANCH  30  32
ATOM     32  O   UNL     1      -2.408  -0.351   0.042  0.00  0.00    -0.465 OA
ATOM     33  C   UNL     1      -3.503  -1.269   0.050  0.00  0.00    +0.280 C 
ENDBRANCH  30  32
ENDBRANCH   2  30
BRANCH   1  34
ATOM     34  C   UNL     1       1.719  -1.829   0.030  0.00  0.00    +0.195 C 
BRANCH  34  35
ATOM     35  C   UNL     1       1.985  -2.276  -1.384  0.00  0.00    +0.314 C 
ATOM     36  O   UNL     1       1.818  -1.508  -2.302  0.00  0.00    -0.250 OA
BRANCH  35  38
ATOM     37  C   UNL     1       2.644  -3.888  -3.012  0.00  0.00    +0.280 C 
ATOM     38  O   UNL     1       2.408  -3.527  -1.625  0.00  0.00    -0.468 OA
ENDBRANCH  35  38
ENDBRANCH  34  35
ENDBRANCH   1  34
TORSDOF 10
