REMARK  Name = ZINC58128934
REMARK  9 active torsions:
REMARK  status: ('A' for Active; 'I' for Inactive)
REMARK    1  A    between atoms: C_1  and  C_2
REMARK    2  A    between atoms: C_2  and  C_3
REMARK    3  A    between atoms: C_3  and  N_4
REMARK    4  A    between atoms: N_7  and  C_8
REMARK    5  A    between atoms: C_8  and  C_9
REMARK    6  A    between atoms: C_8  and  C_10
REMARK    7  A    between atoms: C_8  and  C_11
REMARK    8  A    between atoms: N_17  and  C_20
REMARK    9  A    between atoms: C_20  and  C_21
REMARK                            x       y       z     vdW  Elec       q    Type
REMARK                         _______ _______ _______ _____ _____    ______ ____
ROOT
ATOM      1  C   UNL     1       1.795  -6.194   3.086  0.00  0.00    +0.238 C 
ATOM      2  O   UNL     1       2.607  -7.009   3.468  0.00  0.00    -0.273 OA
ATOM      3  N   UNL     1       0.670  -6.603   2.467  0.00  0.00    -0.302 N 
ATOM      4  C   UNL     1      -0.252  -5.586   1.921  0.00  0.00    +0.106 C 
ATOM      5  C   UNL     1      -0.788  -6.010   0.541  0.00  0.00    +0.000 C 
ATOM      6  C   UNL     1       0.325  -6.652  -0.257  0.00  0.00    -0.077 C 
ATOM      7  N   UNL     1       0.284  -8.100  -0.063  0.00  0.00    +0.384 N 
ATOM      8  C   UNL     1       1.015  -8.572   1.050  0.00  0.00    -0.059 C 
ATOM      9  C   UNL     1       0.410  -8.023   2.357  0.00  0.00    +0.089 C 
ATOM     10  H   UNL     1      -0.679  -8.379   0.047  0.00  0.00    -0.081 HD
ENDROOT
BRANCH   1  11
ATOM     11  C   UNL     1       2.044  -4.724   3.304  0.00  0.00    +0.107 C 
ATOM     12  C   UNL     1       3.404  -4.531   3.978  0.00  0.00    +0.041 C 
ATOM     13  C   UNL     1       0.945  -4.147   4.199  0.00  0.00    +0.041 C 
BRANCH  11  17
ATOM     14  N   UNL     1       2.163  -2.053   0.779  0.00  0.00    -0.299 N 
ATOM     15  C   UNL     1       2.170  -2.691   1.967  0.00  0.00    +0.300 C 
ATOM     16  O   UNL     1       2.298  -2.056   2.996  0.00  0.00    -0.253 OA
ATOM     17  N   UNL     1       2.036  -4.031   2.013  0.00  0.00    -0.286 N 
ATOM     18  H   UNL     1       2.062  -2.559  -0.042  0.00  0.00    +0.150 HD
ATOM     19  H   UNL     1       1.935  -4.537   1.192  0.00  0.00    +0.151 HD
BRANCH  14  20
ATOM     20  C   UNL     1       2.309  -0.596   0.729  0.00  0.00    +0.105 C 
BRANCH  20  22
ATOM     21  C   UNL     1       2.421   1.392  -0.780  0.00  0.00    +0.005 C 
ATOM     22  C   UNL     1       2.268  -0.130  -0.728  0.00  0.00    +0.015 C 
ENDBRANCH  20  22
ENDBRANCH  14  20
ENDBRANCH  11  17
ENDBRANCH   1  11
BRANCH   7  23
ATOM     23  C   UNL     1       0.813  -8.744  -1.272  0.00  0.00    -0.036 C 
BRANCH  23  24
ATOM     24  C   UNL     1       0.669 -10.239  -1.149  0.00  0.00    -0.027 A 
ATOM     25  C   UNL     1      -0.363 -11.031  -1.530  0.00  0.00    +0.009 A 
ATOM     26  C   UNL     1      -0.276 -12.394  -1.316  0.00  0.00    +0.008 A 
ATOM     27  C   UNL     1       0.838 -12.898  -0.732  0.00  0.00    +0.045 A 
ATOM     28  S   UNL     1       1.816 -11.427  -0.471  0.00  0.00    -0.103 S 
ENDBRANCH  23  24
ENDBRANCH   7  23
TORSDOF 6
