REMARK  Name = ZINC02617109
REMARK  7 active torsions:
REMARK  status: ('A' for Active; 'I' for Inactive)
REMARK    1  A    between atoms: C_1  and  C_2
REMARK    2  A    between atoms: C_7  and  N_8
REMARK    3  A    between atoms: C_11  and  C_16
REMARK    4  A    between atoms: C_16  and  O_17
REMARK    5  A    between atoms: O_17  and  C_18
REMARK    6  A    between atoms: C_18  and  C_20
REMARK    7  A    between atoms: C_21  and  C_22
REMARK                            x       y       z     vdW  Elec       q    Type
REMARK                         _______ _______ _______ _____ _____    ______ ____
ROOT
ATOM      1  N   UNL     1       0.025  -0.015   2.416  0.00  0.00    -0.283 N 
ATOM      2  C   UNL     1      -0.058  -0.712   3.606  0.00  0.00    +0.224 A 
ATOM      3  N   UNL     1      -0.162  -0.053   4.758  0.00  0.00    -0.196 NA
ATOM      4  C   UNL     1      -0.242  -0.719   5.897  0.00  0.00    +0.173 A 
ATOM      5  N   UNL     1      -0.219  -2.041   5.897  0.00  0.00    -0.196 NA
ATOM      6  C   UNL     1      -0.115  -2.706   4.749  0.00  0.00    +0.217 A 
ATOM      7  N   UNL     1      -0.041  -2.040   3.602  0.00  0.00    -0.181 NA
ATOM      8  N   UNL     1      -0.091  -4.086   4.750  0.00  0.00    -0.327 N 
ATOM      9  H   UNL     1      -0.077   0.949   2.411  0.00  0.00    +0.155 HD
ATOM     10  H   UNL     1      -0.150  -4.571   5.588  0.00  0.00    +0.145 HD
ATOM     11  H   UNL     1      -0.015  -4.570   3.913  0.00  0.00    +0.145 HD
ENDROOT
BRANCH   1  18
ATOM     12  C   UNL     1      -1.030   1.083   0.013  0.00  0.00    +0.045 C 
ATOM     13  C   UNL     1      -0.239  -0.200   0.024  0.00  0.00    -0.029 A 
ATOM     14  C   UNL     1      -0.003  -0.876  -1.157  0.00  0.00    +0.005 A 
ATOM     15  C   UNL     1       0.723  -2.053  -1.149  0.00  0.00    +0.000 A 
ATOM     16  C   UNL     1       1.214  -2.557   0.042  0.00  0.00    +0.002 A 
ATOM     17  C   UNL     1       0.981  -1.886   1.226  0.00  0.00    +0.023 A 
ATOM     18  C   UNL     1       0.258  -0.701   1.220  0.00  0.00    +0.036 A 
ENDBRANCH   1  18
BRANCH   4  19
ATOM     19  C   UNL     1      -0.360   0.031   7.199  0.00  0.00    +0.308 C 
BRANCH  19  20
ATOM     20  O   UNL     1      -1.740   0.244   7.503  0.00  0.00    -0.454 OA
BRANCH  20  21
ATOM     21  C   UNL     1      -2.020   0.907   8.645  0.00  0.00    +0.332 C 
ATOM     22  O   UNL     1      -1.116   1.292   9.363  0.00  0.00    -0.246 OA
BRANCH  21  23
ATOM     23  C   UNL     1      -3.364   1.153   9.007  0.00  0.00    +0.095 C 
ATOM     24  C   UNL     1      -3.646   1.820  10.156  0.00  0.00    +0.053 C 
BRANCH  24  25
ATOM     25  C   UNL     1      -4.991   2.066  10.518  0.00  0.00    +0.128 A 
ATOM     26  C   UNL     1      -5.420   2.732  11.648  0.00  0.00    +0.049 A 
ATOM     27  C   UNL     1      -6.822   2.742  11.598  0.00  0.00    +0.042 A 
ATOM     28  C   UNL     1      -7.186   2.097  10.467  0.00  0.00    +0.195 A 
ATOM     29  O   UNL     1      -6.084   1.697   9.818  0.00  0.00    -0.464 OA
ENDBRANCH  24  25
ENDBRANCH  21  23
ENDBRANCH  20  21
ENDBRANCH  19  20
ENDBRANCH   4  19
TORSDOF 6
