REMARK  Name = ZINC00427453
REMARK  6 active torsions:
REMARK  status: ('A' for Active; 'I' for Inactive)
REMARK    1  A    between atoms: C_1  and  C_2
REMARK    2  A    between atoms: C_5  and  N_9
REMARK    3  A    between atoms: C_7  and  C_8
REMARK    4  A    between atoms: C_16  and  C_26
REMARK    5  A    between atoms: C_23  and  O_24
REMARK    6  A    between atoms: O_24  and  C_25
REMARK                            x       y       z     vdW  Elec       q    Type
REMARK                         _______ _______ _______ _____ _____    ______ ____
ROOT
ATOM      1  N   UNL     1      -1.078   1.731  -0.080  0.00  0.00    -0.216 N 
ATOM      2  C   UNL     1       0.152   1.303  -0.403  0.00  0.00    +0.310 C 
ATOM      3  O   UNL     1       0.288   0.167  -0.814  0.00  0.00    -0.252 OA
ATOM      4  N   UNL     1       1.239   2.086  -0.292  0.00  0.00    -0.292 N 
ATOM      5  C   UNL     1       1.089   3.488   0.130  0.00  0.00    +0.114 C 
ATOM      6  C   UNL     1      -0.010   3.534   1.204  0.00  0.00    +0.096 C 
ATOM      7  C   UNL     1      -1.310   3.048   0.506  0.00  0.00    +0.185 C 
ATOM      8  O   UNL     1      -1.679   3.989  -0.499  0.00  0.00    -0.464 OA
ATOM      9  C   UNL     1      -0.715   4.474  -1.324  0.00  0.00    +0.170 A 
ATOM     10  C   UNL     1       0.630   4.276  -1.077  0.00  0.00    +0.018 A 
ATOM     11  C   UNL     1       1.581   4.797  -1.937  0.00  0.00    +0.009 A 
ATOM     12  C   UNL     1       1.192   5.516  -3.051  0.00  0.00    +0.004 A 
ATOM     13  C   UNL     1      -0.152   5.715  -3.310  0.00  0.00    +0.049 A 
ATOM     14  C   UNL     1      -1.106   5.198  -2.452  0.00  0.00    +0.162 A 
ATOM     15  C   UNL     1      -2.430   2.949   1.544  0.00  0.00    +0.079 C 
ATOM     16  H   UNL     1       2.119   1.728  -0.490  0.00  0.00    +0.151 HD
ENDROOT
BRANCH   1  21
ATOM     17  C   UNL     1      -5.510  -1.688  -1.003  0.00  0.00    +0.044 C 
ATOM     18  C   UNL     1      -4.333  -0.779  -0.758  0.00  0.00    -0.047 A 
ATOM     19  C   UNL     1      -3.991   0.177  -1.697  0.00  0.00    +0.005 A 
ATOM     20  C   UNL     1      -2.916   1.014  -1.473  0.00  0.00    +0.024 A 
ATOM     21  C   UNL     1      -2.171   0.887  -0.308  0.00  0.00    +0.042 A 
ATOM     22  C   UNL     1      -2.516  -0.074   0.633  0.00  0.00    +0.027 A 
ATOM     23  C   UNL     1      -3.596  -0.904   0.405  0.00  0.00    -0.046 A 
ATOM     24  C   UNL     1      -3.971  -1.948   1.426  0.00  0.00    +0.044 C 
ENDBRANCH   1  21
BRANCH  14  25
ATOM     25  O   UNL     1      -2.427   5.395  -2.708  0.00  0.00    -0.491 OA
ATOM     26  C   UNL     1      -2.757   6.144  -3.879  0.00  0.00    +0.277 C 
ENDBRANCH  14  25
TORSDOF 2
