REMARK  Name = ZINC58891957
REMARK  13 active torsions:
REMARK  status: ('A' for Active; 'I' for Inactive)
REMARK    1  A    between atoms: C_1  and  C_2
REMARK    2  A    between atoms: C_5  and  C_8
REMARK    3  A    between atoms: C_8  and  O_9
REMARK    4  A    between atoms: O_9  and  C_10
REMARK    5  A    between atoms: C_11  and  C_33
REMARK    6  A    between atoms: C_13  and  C_17
REMARK    7  A    between atoms: N_18  and  N_19
REMARK    8  A    between atoms: C_20  and  C_22
REMARK    9  A    between atoms: C_22  and  C_23
REMARK   10  A    between atoms: C_23  and  C_24
REMARK   11  A    between atoms: C_24  and  C_26
REMARK   12  A    between atoms: C_24  and  O_32
REMARK   13  A    between atoms: C_33  and  C_34
REMARK                            x       y       z     vdW  Elec       q    Type
REMARK                         _______ _______ _______ _____ _____    ______ ____
ROOT
ATOM      1  C   UNL     1       0.261  -6.780  -0.163  0.00  0.00    +0.138 A 
ATOM      2  C   UNL     1       1.173  -7.054   0.848  0.00  0.00    -0.000 A 
ATOM      3  C   UNL     1       1.972  -8.175   0.773  0.00  0.00    +0.017 A 
ATOM      4  C   UNL     1       1.863  -9.037  -0.321  0.00  0.00    -0.004 A 
ATOM      5  C   UNL     1       0.945  -8.758  -1.336  0.00  0.00    +0.028 A 
ATOM      6  C   UNL     1       0.145  -7.637  -1.251  0.00  0.00    +0.060 A 
ATOM      7 BR   UNL     1      -1.105  -7.263  -2.620  0.00  0.00    -0.046 Br
ENDROOT
BRANCH   4   8
ATOM      8  C   UNL     1       2.716 -10.236  -0.405  0.00  0.00    +0.138 C 
ATOM      9  N   UNL     1       2.830 -10.874  -1.529  0.00  0.00    -0.188 NA
BRANCH   9  10
ATOM     10  N   UNL     1       2.628 -10.200  -2.741  0.00  0.00    -0.207 N 
ATOM     11  C   UNL     1       2.618 -10.887  -3.901  0.00  0.00    +0.232 C 
ATOM     12  O   UNL     1       2.782 -12.089  -3.895  0.00  0.00    -0.274 OA
ATOM     13  H   UNL     1       2.497  -9.239  -2.745  0.00  0.00    +0.177 HD
BRANCH  11  14
ATOM     14  C   UNL     1       2.401 -10.162  -5.204  0.00  0.00    +0.100 C 
BRANCH  14  15
ATOM     15  C   UNL     1       2.434 -11.166  -6.358  0.00  0.00    +0.045 C 
BRANCH  15  16
ATOM     16  C   UNL     1       2.215 -10.430  -7.681  0.00  0.00    +0.145 C 
BRANCH  16  17
ATOM     17  C   UNL     1       2.125 -11.431  -8.804  0.00  0.00    -0.019 A 
ATOM     18  C   UNL     1       3.277 -11.980  -9.334  0.00  0.00    +0.006 A 
ATOM     19  C   UNL     1       3.195 -12.899 -10.364  0.00  0.00    +0.000 A 
ATOM     20  C   UNL     1       1.960 -13.268 -10.863  0.00  0.00    +0.000 A 
ATOM     21  C   UNL     1       0.807 -12.720 -10.332  0.00  0.00    +0.000 A 
ATOM     22  C   UNL     1       0.890 -11.805  -9.300  0.00  0.00    +0.006 A 
ENDBRANCH  16  17
BRANCH  16  23
ATOM     23  O   UNL     1       3.310  -9.543  -7.920  0.00  0.00    -0.387 OA
ATOM     24  H   UNL     1       4.168  -9.985  -7.978  0.00  0.00    +0.210 HD
ENDBRANCH  16  23
ENDBRANCH  15  16
ENDBRANCH  14  15
ENDBRANCH  11  14
ENDBRANCH   9  10
ENDBRANCH   4   8
BRANCH   1  25
ATOM     25  O   UNL     1      -0.525  -5.675  -0.086  0.00  0.00    -0.486 OA
BRANCH  25  26
ATOM     26  C   UNL     1      -0.065  -4.503  -0.763  0.00  0.00    +0.264 C 
BRANCH  26  31
ATOM     27  C   UNL     1      -4.084  -0.367  -0.410  0.00  0.00    +0.044 C 
ATOM     28  C   UNL     1      -3.036  -1.446  -0.502  0.00  0.00    -0.050 A 
ATOM     29  C   UNL     1      -2.061  -1.547   0.473  0.00  0.00    +0.004 A 
ATOM     30  C   UNL     1      -1.100  -2.537   0.388  0.00  0.00    +0.007 A 
ATOM     31  C   UNL     1      -1.113  -3.425  -0.671  0.00  0.00    -0.010 A 
ATOM     32  C   UNL     1      -2.089  -3.324  -1.645  0.00  0.00    +0.007 A 
ATOM     33  C   UNL     1      -3.053  -2.337  -1.558  0.00  0.00    +0.004 A 
ENDBRANCH  26  31
ENDBRANCH  25  26
ENDBRANCH   1  25
BRANCH   2  34
ATOM     34  C   UNL     1       1.290  -6.124   2.028  0.00  0.00    +0.065 C 
BRANCH  34  35
ATOM     35  C   UNL     1       0.298  -6.530   3.088  0.00  0.00    -0.030 C 
ATOM     36  C   UNL     1       0.708  -6.776   4.308  0.00  0.00    +0.004 C 
ENDBRANCH  34  35
ENDBRANCH   2  34
TORSDOF 12
