REMARK  Name = ZINC64176445
REMARK  9 active torsions:
REMARK  status: ('A' for Active; 'I' for Inactive)
REMARK    1  A    between atoms: C_1  and  C_2
REMARK    2  A    between atoms: C_4  and  C_12
REMARK    3  A    between atoms: C_18  and  C_20
REMARK    4  A    between atoms: C_20  and  C_21
REMARK    5  A    between atoms: C_21  and  C_23
REMARK    6  A    between atoms: C_21  and  N_31
REMARK    7  A    between atoms: C_26  and  O_29
REMARK    8  A    between atoms: O_29  and  C_30
REMARK    9  A    between atoms: C_32  and  C_34
REMARK                            x       y       z     vdW  Elec       q    Type
REMARK                         _______ _______ _______ _____ _____    ______ ____
ROOT
ATOM      1  C   UNL     1       0.221  -0.471  -2.545  0.00  0.00    +0.079 A 
ATOM      2  C   UNL     1       1.044  -0.922  -3.569  0.00  0.00    +0.076 A 
ATOM      3  S   UNL     1       0.244  -0.378  -4.945  0.00  0.00    -0.060 S 
ATOM      4  C   UNL     1      -1.137   0.419  -4.148  0.00  0.00    +0.165 A 
ATOM      5  N   UNL     1      -0.887   0.205  -2.874  0.00  0.00    -0.225 NA
ATOM      6  N   UNL     1      -2.206   1.089  -4.724  0.00  0.00    -0.265 N 
ATOM      7  C   UNL     1      -2.289   1.200  -6.065  0.00  0.00    +0.221 C 
ATOM      8  O   UNL     1      -1.429   0.712  -6.768  0.00  0.00    -0.275 OA
ATOM      9  H   UNL     1      -2.894   1.479  -4.162  0.00  0.00    +0.157 HD
ENDROOT
BRANCH   1  12
ATOM     10  C   UNL     1       1.518  -3.019  -1.150  0.00  0.00    +0.035 C 
ATOM     11  C   UNL     1       1.674  -1.576  -0.666  0.00  0.00    +0.109 C 
ATOM     12  C   UNL     1       0.540  -0.725  -1.194  0.00  0.00    +0.009 C 
ATOM     13  C   UNL     1      -0.124  -0.244  -0.068  0.00  0.00    +0.005 A 
ATOM     14  C   UNL     1      -1.250   0.594   0.090  0.00  0.00    +0.010 A 
ATOM     15  C   UNL     1      -1.688   0.905   1.336  0.00  0.00    +0.001 A 
ATOM     16  C   UNL     1      -1.050   0.417   2.479  0.00  0.00    +0.002 A 
ATOM     17  C   UNL     1       0.036  -0.391   2.402  0.00  0.00    +0.026 A 
ATOM     18  C   UNL     1       0.552  -0.761   1.133  0.00  0.00    +0.043 A 
ATOM     19  N   UNL     1       1.577  -1.520   0.796  0.00  0.00    -0.377 N 
ATOM     20  H   UNL     1       2.173  -1.970   1.415  0.00  0.00    +0.160 HD
ENDBRANCH   1  12
BRANCH   7  21
ATOM     21  C   UNL     1      -3.451   1.928  -6.691  0.00  0.00    +0.123 C 
BRANCH  21  22
ATOM     22  C   UNL     1      -3.304   1.908  -8.213  0.00  0.00    +0.112 C 
BRANCH  22  23
ATOM     23  C   UNL     1      -4.397   2.740  -8.834  0.00  0.00    -0.027 A 
ATOM     24  C   UNL     1      -4.104   3.986  -9.356  0.00  0.00    +0.009 A 
ATOM     25  C   UNL     1      -5.104   4.751  -9.925  0.00  0.00    +0.046 A 
ATOM     26  C   UNL     1      -6.403   4.267  -9.973  0.00  0.00    +0.120 A 
ATOM     27  C   UNL     1      -6.695   3.015  -9.449  0.00  0.00    +0.046 A 
ATOM     28  C   UNL     1      -5.690   2.253  -8.886  0.00  0.00    +0.009 A 
BRANCH  26  29
ATOM     29  O   UNL     1      -7.389   5.017 -10.532  0.00  0.00    -0.495 OA
ATOM     30  C   UNL     1      -8.703   4.455 -10.547  0.00  0.00    +0.277 C 
ENDBRANCH  26  29
ENDBRANCH  22  23
BRANCH  22  31
ATOM     31  N   UNL     1      -3.407   0.529  -8.696  0.00  0.00    -0.308 N 
ATOM     32  C   UNL     1      -2.771   0.161  -9.826  0.00  0.00    +0.210 C 
ATOM     33  O   UNL     1      -2.192   0.991 -10.493  0.00  0.00    -0.276 OA
ATOM     34  C   UNL     1      -2.780  -1.282 -10.260  0.00  0.00    +0.109 C 
ATOM     35  H   UNL     1      -3.932  -0.120  -8.202  0.00  0.00    +0.149 HD
ENDBRANCH  22  31
ENDBRANCH  21  22
ENDBRANCH   7  21
TORSDOF 6
