REMARK  Name = ZINC16115455
REMARK  13 active torsions:
REMARK  status: ('A' for Active; 'I' for Inactive)
REMARK    1  A    between atoms: C_1  and  C_2
REMARK    2  A    between atoms: C_2  and  O_3
REMARK    3  A    between atoms: O_3  and  C_4
REMARK    4  A    between atoms: C_4  and  C_6
REMARK    5  A    between atoms: C_8  and  C_31
REMARK    6  A    between atoms: C_15  and  C_26
REMARK    7  A    between atoms: C_17  and  C_21
REMARK    8  A    between atoms: C_18  and  C_20
REMARK    9  A    between atoms: C_21  and  O_23
REMARK   10  A    between atoms: O_23  and  C_24
REMARK   11  A    between atoms: C_24  and  C_25
REMARK   12  A    between atoms: C_36  and  O_37
REMARK   13  A    between atoms: O_37  and  C_38
REMARK                            x       y       z     vdW  Elec       q    Type
REMARK                         _______ _______ _______ _____ _____    ______ ____
ROOT
ATOM      1  C   UNL     1       0.304   4.392  -1.381  0.00  0.00    +0.176 C 
ATOM      2  C   UNL     1       1.206   3.750  -2.439  0.00  0.00    +0.049 C 
ATOM      3  C   UNL     1       1.438   2.286  -2.057  0.00  0.00    +0.060 C 
ATOM      4  C   UNL     1       2.063   2.214  -0.686  0.00  0.00    +0.016 C 
ATOM      5  C   UNL     1       1.799   3.151   0.249  0.00  0.00    +0.025 C 
ATOM      6  C   UNL     1       0.944   4.232  -0.029  0.00  0.00    +0.176 C 
ATOM      7  O   UNL     1       0.719   5.053   0.838  0.00  0.00    -0.291 OA
ATOM      8  C   UNL     1       2.417   3.066   1.622  0.00  0.00    +0.099 C 
ATOM      9  C   UNL     1       3.601   2.144   1.622  0.00  0.00    +0.066 C 
ATOM     10  C   UNL     1       3.793   1.254   0.633  0.00  0.00    +0.016 C 
ATOM     11  N   UNL     1       2.910   1.175  -0.408  0.00  0.00    -0.321 N 
ATOM     12  C   UNL     1       4.989   0.339   0.671  0.00  0.00    +0.061 C 
ATOM     13  H   UNL     1       2.885   0.265  -1.025  0.00  0.00    +0.152 HD
ENDROOT
BRANCH   2  14
ATOM     14  C   UNL     1       0.536   3.821  -3.787  0.00  0.00    -0.001 A 
ATOM     15  C   UNL     1      -0.572   3.039  -4.050  0.00  0.00    +0.007 A 
ATOM     16  C   UNL     1      -1.188   3.104  -5.286  0.00  0.00    +0.001 A 
ATOM     17  C   UNL     1      -0.697   3.951  -6.262  0.00  0.00    +0.004 A 
ATOM     18  C   UNL     1       0.411   4.735  -6.004  0.00  0.00    +0.046 A 
ATOM     19  C   UNL     1       1.030   4.672  -4.764  0.00  0.00    +0.124 A 
BRANCH  19  20
ATOM     20  O   UNL     1       2.120   5.443  -4.508  0.00  0.00    -0.495 OA
ATOM     21  C   UNL     1       2.574   6.296  -5.561  0.00  0.00    +0.277 C 
ENDBRANCH  19  20
ENDBRANCH   2  14
BRANCH   8  22
ATOM     22  C   UNL     1       1.389   2.550   2.596  0.00  0.00    +0.002 A 
ATOM     23  C   UNL     1       0.896   3.144   3.710  0.00  0.00    +0.012 A 
ATOM     24  C   UNL     1      -0.053   2.477   4.461  0.00  0.00    +0.008 A 
ATOM     25  C   UNL     1      -0.462   1.248   4.062  0.00  0.00    +0.045 A 
ATOM     26  S   UNL     1       0.501   1.002   2.579  0.00  0.00    -0.101 S 
ENDBRANCH   8  22
BRANCH   1  27
ATOM     27  C   UNL     1      -1.041   3.712  -1.385  0.00  0.00    +0.318 C 
ATOM     28  O   UNL     1      -1.230   2.742  -0.690  0.00  0.00    -0.250 OA
BRANCH  27  29
ATOM     29  O   UNL     1      -2.029   4.184  -2.162  0.00  0.00    -0.464 OA
BRANCH  29  31
ATOM     30  C   UNL     1      -4.293   4.157  -3.059  0.00  0.00    +0.048 C 
ATOM     31  C   UNL     1      -3.298   3.479  -2.115  0.00  0.00    +0.229 C 
ENDBRANCH  29  31
ENDBRANCH  27  29
ENDBRANCH   1  27
BRANCH   9  32
ATOM     32  C   UNL     1       4.532   2.211   2.685  0.00  0.00    +0.338 C 
ATOM     33  O   UNL     1       5.394   3.070   2.684  0.00  0.00    -0.245 OA
BRANCH  32  34
ATOM     34  O   UNL     1       4.465   1.323   3.699  0.00  0.00    -0.462 OA
BRANCH  34  35
ATOM     35  C   UNL     1       5.438   1.451   4.738  0.00  0.00    +0.229 C 
ATOM     36  C   UNL     1       5.204   0.366   5.791  0.00  0.00    +0.048 C 
ENDBRANCH  34  35
ENDBRANCH  32  34
ENDBRANCH   9  32
TORSDOF 9
