REMARK  Name = ZINC05238971
REMARK  7 active torsions:
REMARK  status: ('A' for Active; 'I' for Inactive)
REMARK    1  A    between atoms: C_1  and  C_2
REMARK    2  A    between atoms: C_2  and  C_3
REMARK    3  A    between atoms: C_4  and  C_24
REMARK    4  A    between atoms: C_9  and  S_11
REMARK    5  A    between atoms: S_11  and  C_12
REMARK    6  A    between atoms: C_12  and  C_13
REMARK    7  A    between atoms: N_15  and  C_16
REMARK                            x       y       z     vdW  Elec       q    Type
REMARK                         _______ _______ _______ _____ _____    ______ ____
ROOT
ATOM      1  S   UNL     1       1.088  -2.444   0.003  0.00  0.00    -0.078 S 
ENDROOT
BRANCH   1   8
ATOM      2  C   UNL     1      -0.013   1.319   0.059  0.00  0.00    +0.066 A 
ATOM      3  C   UNL     1       1.189   2.027   0.060  0.00  0.00    +0.137 A 
ATOM      4  C   UNL     1       2.406   1.295   0.043  0.00  0.00    +0.270 A 
ATOM      5  O   UNL     1       3.480   1.871   0.044  0.00  0.00    -0.266 OA
ATOM      6  N   UNL     1       2.346  -0.054   0.026  0.00  0.00    -0.301 N 
ATOM      7  H   UNL     1       3.189  -0.592   0.013  0.00  0.00    +0.171 HD
ATOM      8  C   UNL     1       1.139  -0.682   0.026  0.00  0.00    +0.170 A 
ATOM      9  N   UNL     1       0.004  -0.005   0.042  0.00  0.00    -0.227 NA
BRANCH   2  11
ATOM     10  C   UNL     1      -1.836   2.217  -1.362  0.00  0.00    +0.010 C 
ATOM     11  C   UNL     1      -1.327   2.058   0.072  0.00  0.00    +0.053 C 
ENDBRANCH   2  11
BRANCH   3  12
ATOM     12  C   UNL     1       1.195   3.459   0.078  0.00  0.00    +0.106 C 
ATOM     13  N   UNL     1       1.201   4.595   0.092  0.00  0.00    -0.191 NA
ENDBRANCH   3  12
ENDBRANCH   1   8
BRANCH   1  14
ATOM     14  C   UNL     1      -0.703  -2.706   0.013  0.00  0.00    +0.173 C 
BRANCH  14  15
ATOM     15  C   UNL     1      -0.994  -4.184  -0.004  0.00  0.00    +0.228 C 
ATOM     16  O   UNL     1      -0.081  -4.982  -0.021  0.00  0.00    -0.275 OA
ATOM     17  N   UNL     1      -2.269  -4.620  -0.001  0.00  0.00    -0.284 N 
ATOM     18  H   UNL     1      -2.999  -3.986   0.078  0.00  0.00    +0.155 HD
BRANCH  17  19
ATOM     19  C   UNL     1      -2.542  -5.989  -0.112  0.00  0.00    +0.052 A 
ATOM     20  C   UNL     1      -1.686  -6.918   0.467  0.00  0.00    +0.026 A 
ATOM     21  C   UNL     1      -1.957  -8.267   0.357  0.00  0.00    +0.022 A 
ATOM     22  C   UNL     1      -3.081  -8.696  -0.329  0.00  0.00    +0.042 A 
ATOM     23  C   UNL     1      -3.936  -7.774  -0.906  0.00  0.00    +0.041 A 
ATOM     24  C   UNL     1      -3.672  -6.421  -0.795  0.00  0.00    +0.064 A 
ATOM     25 CL   UNL     1      -4.748  -5.264  -1.514  0.00  0.00    -0.082 Cl
ATOM     26 CL   UNL     1      -3.418 -10.393  -0.464  0.00  0.00    -0.083 Cl
ENDBRANCH  17  19
ENDBRANCH  14  15
ENDBRANCH   1  14
TORSDOF 6
