REMARK  Name = ZINC23647416
REMARK  7 active torsions:
REMARK  status: ('A' for Active; 'I' for Inactive)
REMARK    1  A    between atoms: C_4  and  N_7
REMARK    2  A    between atoms: C_11  and  S_13
REMARK    3  A    between atoms: S_13  and  C_14
REMARK    4  A    between atoms: C_14  and  C_15
REMARK    5  A    between atoms: C_15  and  N_17
REMARK    6  A    between atoms: C_20  and  C_23
REMARK    7  A    between atoms: C_27  and  N_29
REMARK                            x       y       z     vdW  Elec       q    Type
REMARK                         _______ _______ _______ _____ _____    ______ ____
ROOT
ATOM      1  C   UNL     1       3.607  -8.792   0.525  0.00  0.00    +0.249 C 
ATOM      2  O   UNL     1       4.778  -9.113   0.595  0.00  0.00    -0.273 OA
ENDROOT
BRANCH   1   3
ATOM      3  N   UNL     1       2.661  -9.723   0.551  0.00  0.00    -0.156 NA
ATOM      4  C   UNL     1       2.995 -11.010   0.654  0.00  0.00    +0.163 A 
ATOM      5  N   UNL     1       2.172 -12.092   0.690  0.00  0.00    -0.335 N 
ATOM      6  C   UNL     1       2.725 -13.337   0.799  0.00  0.00    +0.055 A 
ATOM      7  C   UNL     1       4.074 -13.401   0.865  0.00  0.00    +0.074 A 
ATOM      8  S   UNL     1       4.532 -11.681   0.762  0.00  0.00    -0.060 S 
ATOM      9  H   UNL     1       1.210 -11.982   0.638  0.00  0.00    +0.168 HD
BRANCH   6  10
ATOM     10  C   UNL     1       1.888 -14.556   0.844  0.00  0.00    +0.001 A 
ATOM     11  C   UNL     1       0.498 -14.454   0.768  0.00  0.00    +0.010 A 
ATOM     12  C   UNL     1      -0.277 -15.595   0.811  0.00  0.00    +0.003 A 
ATOM     13  C   UNL     1       0.321 -16.837   0.928  0.00  0.00    +0.033 A 
ATOM     14  C   UNL     1       1.698 -16.945   1.004  0.00  0.00    +0.127 A 
ATOM     15  C   UNL     1       2.485 -15.812   0.956  0.00  0.00    +0.042 A 
BRANCH  14  16
ATOM     16  N   UNL     1       2.329 -18.278   1.130  0.00  0.00    +0.056 N 
ATOM     17  O   UNL     1       1.641 -19.271   1.167  0.00  0.00    -0.126 OA
ATOM     18  O   UNL     1       3.533 -18.373   1.196  0.00  0.00    -0.126 OA
ENDBRANCH  14  16
ENDBRANCH   6  10
ENDBRANCH   1   3
BRANCH   1  19
ATOM     19  C   UNL     1       3.230  -7.338   0.410  0.00  0.00    +0.174 C 
BRANCH  19  20
ATOM     20  S   UNL     1       4.734  -6.322   0.400  0.00  0.00    -0.088 S 
BRANCH  20  25
ATOM     21  N   UNL     1       3.620  -0.649  -0.037  0.00  0.00    -0.292 N 
ATOM     22  C   UNL     1       3.644  -2.036   0.060  0.00  0.00    +0.187 A 
ATOM     23  N   UNL     1       2.639  -2.890   0.079  0.00  0.00    -0.125 NA
ATOM     24  N   UNL     1       2.889  -4.239   0.182  0.00  0.00    -0.133 NA
ATOM     25  C   UNL     1       4.133  -4.672   0.262  0.00  0.00    +0.160 A 
ATOM     26  S   UNL     1       5.045  -3.138   0.185  0.00  0.00    -0.024 S 
ATOM     27  H   UNL     1       4.450  -0.155  -0.124  0.00  0.00    +0.154 HD
BRANCH  21  31
ATOM     28  C   UNL     1      -0.015   1.381   0.044  0.00  0.00    +0.000 A 
ATOM     29  C   UNL     1       0.092   0.135   0.633  0.00  0.00    +0.002 A 
ATOM     30  C   UNL     1       1.296  -0.541   0.608  0.00  0.00    +0.023 A 
ATOM     31  C   UNL     1       2.401   0.032  -0.011  0.00  0.00    +0.033 A 
ATOM     32  C   UNL     1       2.289   1.284  -0.602  0.00  0.00    +0.023 A 
ATOM     33  C   UNL     1       1.083   1.955  -0.573  0.00  0.00    +0.002 A 
ENDBRANCH  21  31
ENDBRANCH  20  25
ENDBRANCH  19  20
ENDBRANCH   1  19
TORSDOF 7
