REMARK  Name = ZINC39521639
REMARK  6 active torsions:
REMARK  status: ('A' for Active; 'I' for Inactive)
REMARK    1  A    between atoms: C_1  and  C_2
REMARK    2  A    between atoms: C_2  and  C_3
REMARK    3  A    between atoms: C_2  and  S_4
REMARK    4  A    between atoms: S_4  and  C_7
REMARK    5  A    between atoms: N_13  and  C_14
REMARK    6  A    between atoms: C_19  and  O_20
REMARK                            x       y       z     vdW  Elec       q    Type
REMARK                         _______ _______ _______ _____ _____    ______ ____
ROOT
ATOM      1  C   UNL     1      -1.070  -2.492   0.220  0.00  0.00    +0.217 C 
ATOM      2  C   UNL     1      -2.541  -2.894   0.371  0.00  0.00    +0.046 C 
ATOM      3  C   UNL     1      -2.706  -4.366  -0.015  0.00  0.00    +0.006 C 
ATOM      4  C   UNL     1      -2.301  -4.560  -1.478  0.00  0.00    +0.026 C 
ATOM      5  C   UNL     1      -0.830  -4.174  -1.652  0.00  0.00    +0.038 C 
ATOM      6  N   UNL     1      -0.628  -2.810  -1.145  0.00  0.00    -0.300 N 
ATOM      7  C   UNL     1      -0.456  -4.228  -3.133  0.00  0.00    +0.026 C 
ATOM      8  C   UNL     1       1.014  -3.837  -3.303  0.00  0.00    +0.003 C 
ATOM      9  C   UNL     1       1.895  -4.808  -2.515  0.00  0.00    +0.019 C 
ATOM     10  C   UNL     1       1.520  -4.750  -1.033  0.00  0.00    +0.083 C 
ATOM     11  C   UNL     1       0.051  -5.143  -0.862  0.00  0.00    +0.045 C 
ATOM     12 CL   UNL     1       2.559  -5.894  -0.104  0.00  0.00    -0.122 Cl
ENDROOT
BRANCH   6  13
ATOM     13  C   UNL     1      -0.032  -1.831  -1.948  0.00  0.00    +0.074 A 
ATOM     14  C   UNL     1       1.273  -1.429  -1.701  0.00  0.00    +0.027 A 
ATOM     15  C   UNL     1       1.861  -0.463  -2.495  0.00  0.00    +0.002 A 
ATOM     16  C   UNL     1       1.151   0.106  -3.537  0.00  0.00    +0.004 A 
ATOM     17  C   UNL     1      -0.150  -0.290  -3.789  0.00  0.00    +0.047 A 
ATOM     18  C   UNL     1      -0.744  -1.261  -3.001  0.00  0.00    +0.138 A 
BRANCH  18  19
ATOM     19  O   UNL     1      -2.022  -1.655  -3.251  0.00  0.00    -0.505 OA
ATOM     20  H   UNL     1      -2.691  -1.140  -2.780  0.00  0.00    +0.292 HD
ENDBRANCH  18  19
ENDBRANCH   6  13
BRANCH   1  21
ATOM     21  S   UNL     1      -0.893  -0.712   0.517  0.00  0.00    -0.010 S 
ATOM     22  O   UNL     1      -1.789  -0.338   1.555  0.00  0.00    -0.172 OA
ATOM     23  O   UNL     1      -0.963  -0.038  -0.732  0.00  0.00    -0.172 OA
BRANCH  21  25
ATOM     24  C   UNL     1       1.107   0.883   1.487  0.00  0.00    +0.031 C 
ATOM     25  C   UNL     1       0.803  -0.578   1.148  0.00  0.00    +0.126 C 
ATOM     26  C   UNL     1       0.948  -1.435   2.407  0.00  0.00    +0.031 C 
ENDBRANCH  21  25
ENDBRANCH   1  21
TORSDOF 4
