REMARK  Name = ZINC36648082
REMARK  8 active torsions:
REMARK  status: ('A' for Active; 'I' for Inactive)
REMARK    1  A    between atoms: C_1  and  N_2
REMARK    2  A    between atoms: N_2  and  C_3
REMARK    3  A    between atoms: N_2  and  C_4
REMARK    4  A    between atoms: C_4  and  C_5
REMARK    5  A    between atoms: C_5  and  N_6
REMARK    6  A    between atoms: C_18  and  C_20
REMARK    7  A    between atoms: N_26  and  S_27
REMARK    8  A    between atoms: S_27  and  C_30
REMARK                            x       y       z     vdW  Elec       q    Type
REMARK                         _______ _______ _______ _____ _____    ______ ____
ROOT
ATOM      1  N   UNL     1      -2.360  -2.568   0.074  0.00  0.00    -0.251 N 
ATOM      2  C   UNL     1      -3.030  -2.748  -1.125  0.00  0.00    +0.168 A 
ATOM      3  N   UNL     1      -2.576  -2.618  -2.349  0.00  0.00    -0.221 NA
ATOM      4  C   UNL     1      -3.350  -2.827  -3.437  0.00  0.00    +0.116 A 
ATOM      5  C   UNL     1      -2.987  -2.721  -4.802  0.00  0.00    +0.152 A 
ATOM      6  C   UNL     1      -3.904  -2.968  -5.793  0.00  0.00    +0.079 A 
ATOM      7  C   UNL     1      -5.212  -3.328  -5.496  0.00  0.00    +0.127 A 
ATOM      8  C   UNL     1      -5.600  -3.441  -4.172  0.00  0.00    +0.055 A 
ATOM      9  C   UNL     1      -4.688  -3.196  -3.175  0.00  0.00    +0.046 A 
ATOM     10  S   UNL     1      -4.731  -3.223  -1.399  0.00  0.00    -0.052 S 
ATOM     11  F   UNL     1      -6.097  -3.566  -6.489  0.00  0.00    -0.205 F 
ATOM     12  F   UNL     1      -1.724  -2.372  -5.132  0.00  0.00    -0.203 F 
ATOM     13  C   UNL     1      -3.005  -2.757   1.242  0.00  0.00    +0.240 C 
ATOM     14  O   UNL     1      -4.142  -3.179   1.245  0.00  0.00    -0.273 OA
ENDROOT
BRANCH  13  15
ATOM     15  C   UNL     1      -2.314  -2.444   2.545  0.00  0.00    +0.166 C 
ATOM     16  C   UNL     1      -3.079  -1.337   3.278  0.00  0.00    +0.030 C 
ATOM     17  C   UNL     1      -2.455  -1.121   4.659  0.00  0.00    +0.003 C 
ATOM     18  C   UNL     1      -2.566  -2.409   5.478  0.00  0.00    +0.017 C 
ATOM     19  C   UNL     1      -1.796  -3.528   4.769  0.00  0.00    +0.110 C 
ATOM     20  N   UNL     1      -2.289  -3.646   3.390  0.00  0.00    -0.164 NA
BRANCH  20  21
ATOM     21  S   UNL     1      -2.811  -5.103   2.801  0.00  0.00    +0.068 S 
ATOM     22  O   UNL     1      -2.701  -5.032   1.386  0.00  0.00    -0.152 OA
ATOM     23  O   UNL     1      -2.160  -6.107   3.567  0.00  0.00    -0.152 OA
BRANCH  21  24
ATOM     24  C   UNL     1      -4.531  -5.227   3.167  0.00  0.00    +0.143 A 
ATOM     25  C   UNL     1      -5.594  -4.970   2.366  0.00  0.00    +0.036 A 
ATOM     26  C   UNL     1      -6.870  -5.138   2.872  0.00  0.00    +0.010 A 
ATOM     27  C   UNL     1      -7.019  -5.556   4.152  0.00  0.00    +0.047 A 
ATOM     28  S   UNL     1      -5.324  -5.731   4.684  0.00  0.00    -0.077 S 
ENDBRANCH  21  24
ENDBRANCH  20  21
ENDBRANCH  13  15
BRANCH   1  29
ATOM     29  C   UNL     1      -0.949  -2.173   0.073  0.00  0.00    +0.097 C 
BRANCH  29  30
ATOM     30  C   UNL     1      -0.845  -0.653   0.212  0.00  0.00    -0.060 C 
BRANCH  30  32
ATOM     31  C   UNL     1       0.675   1.200   0.325  0.00  0.00    -0.097 C 
ATOM     32  N   UNL     1       0.568  -0.266   0.312  0.00  0.00    +0.377 N 
ATOM     33  C   UNL     1       1.138  -0.809   1.552  0.00  0.00    -0.097 C 
ATOM     34  H   UNL     1       1.075  -0.633  -0.480  0.00  0.00    -0.083 HD
ENDBRANCH  30  32
ENDBRANCH  29  30
ENDBRANCH   1  29
TORSDOF 6
