REMARK  Name = ZINC37624895
REMARK  15 active torsions:
REMARK  status: ('A' for Active; 'I' for Inactive)
REMARK    1  A    between atoms: C_1  and  C_2
REMARK    2  A    between atoms: C_3  and  C_32
REMARK    3  A    between atoms: C_4  and  C_31
REMARK    4  A    between atoms: C_7  and  C_8
REMARK    5  A    between atoms: C_8  and  C_9
REMARK    6  A    between atoms: C_8  and  C_20
REMARK    7  A    between atoms: C_10  and  C_19
REMARK    8  A    between atoms: C_11  and  C_16
REMARK    9  A    between atoms: C_12  and  C_15
REMARK   10  A    between atoms: C_16  and  C_18
REMARK   11  A    between atoms: C_21  and  C_30
REMARK   12  A    between atoms: C_22  and  C_27
REMARK   13  A    between atoms: C_23  and  C_26
REMARK   14  A    between atoms: C_27  and  C_29
REMARK   15  A    between atoms: C_32  and  C_34
REMARK                            x       y       z     vdW  Elec       q    Type
REMARK                         _______ _______ _______ _____ _____    ______ ____
ROOT
ATOM      1  C   UNL     1      -0.022  -0.354   2.513  0.00  0.00    +0.129 C 
ENDROOT
BRANCH   1   8
ATOM      2  C   UNL     1      -0.084   1.517   0.017  0.00  0.00    +0.046 C 
ATOM      3  C   UNL     1      -0.016   0.011   0.005  0.00  0.00    -0.018 A 
ATOM      4  C   UNL     1       0.041  -0.858  -1.178  0.00  0.00    +0.041 A 
ATOM      5  C   UNL     1       0.093  -2.152  -0.694  0.00  0.00    +0.024 A 
ATOM      6  N   UNL     1       0.071  -2.098   0.650  0.00  0.00    -0.360 N 
ATOM      7  H   UNL     1       0.097  -2.871   1.235  0.00  0.00    +0.165 HD
ATOM      8  C   UNL     1       0.011  -0.802   1.074  0.00  0.00    +0.035 A 
ATOM      9  C   UNL     1       0.162  -3.405  -1.527  0.00  0.00    +0.064 C 
BRANCH   4  10
ATOM     10  C   UNL     1       0.043  -0.440  -2.581  0.00  0.00    +0.162 C 
ATOM     11  O   UNL     1      -0.999  -0.387  -3.200  0.00  0.00    -0.292 OA
ATOM     12  C   UNL     1       1.340  -0.075  -3.257  0.00  0.00    +0.091 C 
ENDBRANCH   4  10
ENDBRANCH   1   8
BRANCH   1  13
ATOM     13  C   UNL     1      -1.234  -0.939   3.192  0.00  0.00    +0.035 A 
ATOM     14  C   UNL     1      -2.227  -0.232   3.757  0.00  0.00    -0.018 A 
ATOM     15  C   UNL     1      -3.182  -1.212   4.289  0.00  0.00    +0.041 A 
ATOM     16  C   UNL     1      -2.658  -2.455   3.985  0.00  0.00    +0.024 A 
ATOM     17  N   UNL     1      -1.500  -2.271   3.327  0.00  0.00    -0.360 N 
ATOM     18  H   UNL     1      -0.932  -2.985   2.996  0.00  0.00    +0.165 HD
ATOM     19  C   UNL     1      -3.279  -3.784   4.328  0.00  0.00    +0.064 C 
ATOM     20  C   UNL     1      -2.338   1.269   3.830  0.00  0.00    +0.046 C 
BRANCH  15  21
ATOM     21  C   UNL     1      -4.433  -0.931   4.997  0.00  0.00    +0.162 C 
ATOM     22  O   UNL     1      -4.424  -0.750   6.197  0.00  0.00    -0.292 OA
ATOM     23  C   UNL     1      -5.732  -0.868   4.235  0.00  0.00    +0.091 C 
ENDBRANCH  15  21
ENDBRANCH   1  13
BRANCH   1  24
ATOM     24  C   UNL     1       1.224  -0.827   3.215  0.00  0.00    +0.035 A 
ATOM     25  C   UNL     1       2.133  -0.034   3.807  0.00  0.00    -0.018 A 
ATOM     26  C   UNL     1       3.166  -0.924   4.354  0.00  0.00    +0.041 A 
ATOM     27  C   UNL     1       2.769  -2.207   4.030  0.00  0.00    +0.024 A 
ATOM     28  N   UNL     1       1.607  -2.130   3.357  0.00  0.00    -0.360 N 
ATOM     29  H   UNL     1       1.113  -2.892   3.017  0.00  0.00    +0.165 HD
ATOM     30  C   UNL     1       3.507  -3.475   4.376  0.00  0.00    +0.064 C 
ATOM     31  C   UNL     1       2.099   1.471   3.893  0.00  0.00    +0.046 C 
BRANCH  26  32
ATOM     32  C   UNL     1       4.369  -0.531   5.091  0.00  0.00    +0.162 C 
ATOM     33  O   UNL     1       5.380  -0.236   4.489  0.00  0.00    -0.292 OA
ATOM     34  C   UNL     1       4.351  -0.494   6.598  0.00  0.00    +0.091 C 
ENDBRANCH  26  32
ENDBRANCH   1  24
TORSDOF 6
