REMARK  Name = ZINC21255250
REMARK  5 active torsions:
REMARK  status: ('A' for Active; 'I' for Inactive)
REMARK    1  A    between atoms: C_1  and  O_2
REMARK    2  A    between atoms: O_2  and  C_3
REMARK    3  A    between atoms: C_8  and  C_9
REMARK    4  A    between atoms: C_14  and  C_24
REMARK    5  A    between atoms: C_28  and  O_30
REMARK                            x       y       z     vdW  Elec       q    Type
REMARK                         _______ _______ _______ _____ _____    ______ ____
ROOT
ATOM      1  C   UNL     1      -0.116   5.346  -0.057  0.00  0.00    +0.035 C 
ATOM      2  C   UNL     1      -0.861   5.892  -1.274  0.00  0.00    +0.060 C 
ATOM      3  C   UNL     1      -0.887   7.411  -1.227  0.00  0.00    +0.017 C 
ATOM      4  C   UNL     1      -0.934   8.054  -0.049  0.00  0.00    +0.036 C 
ATOM      5  C   UNL     1      -0.987   9.551   0.142  0.00  0.00    +0.136 C 
ATOM      6  N   UNL     1      -0.719  10.318  -1.056  0.00  0.00    -0.331 N 
ATOM      7  C   UNL     1      -1.575  10.259  -2.154  0.00  0.00    +0.049 A 
ATOM      8  C   UNL     1      -2.296  11.366  -2.571  0.00  0.00    +0.025 A 
ATOM      9  C   UNL     1      -3.168  11.248  -3.639  0.00  0.00    +0.002 A 
ATOM     10  C   UNL     1      -3.324  10.034  -4.285  0.00  0.00    +0.002 A 
ATOM     11  C   UNL     1      -2.592   8.930  -3.882  0.00  0.00    +0.025 A 
ATOM     12  C   UNL     1      -1.704   9.053  -2.828  0.00  0.00    +0.052 A 
ATOM     13  N   UNL     1      -0.863   8.015  -2.442  0.00  0.00    -0.316 N 
ATOM     14  C   UNL     1      -0.935   7.323   1.163  0.00  0.00    +0.163 C 
ATOM     15  O   UNL     1      -1.001   7.930   2.213  0.00  0.00    -0.292 OA
ATOM     16  C   UNL     1      -0.855   5.826   1.198  0.00  0.00    +0.088 C 
ATOM     17  H   UNL     1       0.172  10.960  -1.110  0.00  0.00    +0.147 HD
ATOM     18  H   UNL     1      -0.140   7.690  -3.204  0.00  0.00    +0.152 HD
ENDROOT
BRANCH   1  24
ATOM     19  C   UNL     1       1.104   3.156  -0.121  0.00  0.00    +0.124 A 
ATOM     20  C   UNL     1       1.112   1.770  -0.160  0.00  0.00    +0.046 A 
ATOM     21  C   UNL     1      -0.081   1.073  -0.175  0.00  0.00    +0.004 A 
ATOM     22  C   UNL     1      -1.283   1.757  -0.158  0.00  0.00    +0.001 A 
ATOM     23  C   UNL     1      -1.294   3.139  -0.114  0.00  0.00    +0.007 A 
ATOM     24  C   UNL     1      -0.103   3.840  -0.098  0.00  0.00    -0.002 A 
BRANCH  19  26
ATOM     25  C   UNL     1       3.480   3.074  -0.133  0.00  0.00    +0.277 C 
ATOM     26  O   UNL     1       2.276   3.844  -0.107  0.00  0.00    -0.495 OA
ENDBRANCH  19  26
ENDBRANCH   1  24
BRANCH   5  27
ATOM     27  C   UNL     1      -2.358   9.920   0.649  0.00  0.00    -0.019 A 
ATOM     28  C   UNL     1      -3.470   9.692  -0.140  0.00  0.00    +0.006 A 
ATOM     29  C   UNL     1      -4.729  10.030   0.323  0.00  0.00    +0.004 A 
ATOM     30  C   UNL     1      -4.878  10.595   1.575  0.00  0.00    +0.045 A 
ATOM     31  C   UNL     1      -3.763  10.823   2.368  0.00  0.00    +0.117 A 
ATOM     32  C   UNL     1      -2.502  10.479   1.904  0.00  0.00    +0.051 A 
BRANCH  31  33
ATOM     33  O   UNL     1      -3.907  11.378   3.600  0.00  0.00    -0.507 OA
ATOM     34  H   UNL     1      -3.023  11.559   4.229  0.00  0.00    +0.292 HD
ENDBRANCH  31  33
ENDBRANCH   5  27
TORSDOF 4
