REMARK  Name = ZINC19971994
REMARK  6 active torsions:
REMARK  status: ('A' for Active; 'I' for Inactive)
REMARK    1  A    between atoms: C_1  and  O_2
REMARK    2  A    between atoms: O_2  and  C_3
REMARK    3  A    between atoms: C_6  and  N_19
REMARK    4  A    between atoms: C_8  and  C_9
REMARK    5  A    between atoms: C_9  and  C_11
REMARK    6  A    between atoms: C_9  and  N_18
REMARK                            x       y       z     vdW  Elec       q    Type
REMARK                         _______ _______ _______ _____ _____    ______ ____
ROOT
ATOM      1  C   UNL     1       1.157   3.588  -0.004  0.00  0.00    -0.009 C 
ENDROOT
BRANCH   1   2
ATOM      2  C   UNL     1      -0.199   4.218  -0.190  0.00  0.00    -0.044 A 
ATOM      3  C   UNL     1      -0.842   4.805   0.884  0.00  0.00    +0.003 A 
ATOM      4  C   UNL     1      -2.084   5.386   0.712  0.00  0.00    +0.000 A 
ATOM      5  C   UNL     1      -2.689   5.372  -0.531  0.00  0.00    +0.001 A 
ATOM      6  C   UNL     1      -2.049   4.780  -1.604  0.00  0.00    +0.014 A 
ATOM      7  C   UNL     1      -0.803   4.203  -1.433  0.00  0.00    +0.015 A 
ATOM      8  I   UNL     1       0.167   3.307  -3.059  0.00  0.00    -0.044 I 
ENDBRANCH   1   2
BRANCH   1  14
ATOM      9  C   UNL     1       2.094   1.264   0.074  0.00  0.00    +0.122 A 
ATOM     10  C   UNL     1       1.944  -0.102   0.267  0.00  0.00    +0.048 A 
ATOM     11  C   UNL     1       0.705  -0.621   0.589  0.00  0.00    +0.036 A 
ATOM     12  C   UNL     1      -0.385   0.219   0.721  0.00  0.00    +0.127 A 
ATOM     13  C   UNL     1      -0.238   1.581   0.529  0.00  0.00    +0.038 A 
ATOM     14  C   UNL     1       0.998   2.104   0.206  0.00  0.00    -0.014 A 
BRANCH  12  15
ATOM     15  N   UNL     1      -1.711  -0.339   1.067  0.00  0.00    +0.056 N 
ATOM     16  O   UNL     1      -2.672   0.400   1.182  0.00  0.00    -0.126 OA
ATOM     17  O   UNL     1      -1.842  -1.539   1.236  0.00  0.00    -0.126 OA
ENDBRANCH  12  15
BRANCH   9  19
ATOM     18  C   UNL     1       4.415   0.869  -0.254  0.00  0.00    +0.277 C 
ATOM     19  O   UNL     1       3.312   1.777  -0.243  0.00  0.00    -0.495 OA
ENDBRANCH   9  19
ENDBRANCH   1  14
BRANCH   1  20
ATOM     20  N   UNL     1       1.815   4.181   1.169  0.00  0.00    +0.385 N 
ATOM     21  H   UNL     1       1.931   5.264   1.016  0.00  0.00    -0.089 HD
ATOM     22  H   UNL     1       2.805   3.721   1.305  0.00  0.00    -0.089 HD
ATOM     23  H   UNL     1       1.201   4.000   2.064  0.00  0.00    -0.089 HD
ENDBRANCH   1  20
TORSDOF 5
