REMARK  Name = ZINC09434015
REMARK  6 active torsions:
REMARK  status: ('A' for Active; 'I' for Inactive)
REMARK    1  A    between atoms: C_1  and  C_2
REMARK    2  A    between atoms: C_2  and  C_30
REMARK    3  A    between atoms: N_3  and  N_4
REMARK    4  A    between atoms: C_5  and  C_7
REMARK    5  A    between atoms: C_7  and  N_71
REMARK    6  A    between atoms: C_14  and  C_24
REMARK                            x       y       z     vdW  Elec       q    Type
REMARK                         _______ _______ _______ _____ _____    ______ ____
ROOT
ATOM      1  C   UNL     1      -4.021   3.866   7.014  0.00  0.00    -0.055 C 
ATOM      2  C   UNL     1      -2.601   3.386   6.690  0.00  0.00    +0.103 C 
ATOM      3  N   UNL     1      -2.499   3.210   5.233  0.00  0.00    -0.347 N 
ATOM      4  C   UNL     1      -1.582   2.530   4.467  0.00  0.00    +0.049 A 
ATOM      5  C   UNL     1      -0.458   1.785   4.818  0.00  0.00    +0.027 A 
ATOM      6  C   UNL     1       0.279   1.227   3.790  0.00  0.00    +0.006 A 
ATOM      7  C   UNL     1      -0.064   1.400   2.459  0.00  0.00    -0.044 A 
ATOM      8  C   UNL     1      -1.163   2.127   2.078  0.00  0.00    +0.014 A 
ATOM      9  C   UNL     1      -1.935   2.700   3.095  0.00  0.00    +0.003 A 
ATOM     10  C   UNL     1      -3.125   3.506   3.087  0.00  0.00    -0.020 A 
ATOM     11  C   UNL     1      -3.433   3.747   4.378  0.00  0.00    +0.009 A 
ATOM     12  C   UNL     1      -4.643   4.561   4.774  0.00  0.00    -0.020 C 
ATOM     13  C   UNL     1      -4.735   5.758   3.841  0.00  0.00    -0.009 C 
ATOM     14  C   UNL     1      -4.392   5.506   2.394  0.00  0.00    +0.003 C 
ATOM     15  C   UNL     1      -4.001   4.086   2.012  0.00  0.00    +0.037 C 
ATOM     16  N   UNL     1      -4.385   5.019   6.164  0.00  0.00    +0.392 N 
ATOM     17  H   UNL     1      -3.605   5.687   6.156  0.00  0.00    -0.080 HD
ENDROOT
BRANCH   7  18
ATOM     18  C   UNL     1       0.794   0.765   1.395  0.00  0.00    +0.019 C 
ATOM     19  C   UNL     1       2.219   1.314   1.494  0.00  0.00    +0.008 C 
ATOM     20  C   UNL     1       3.090   0.669   0.415  0.00  0.00    +0.001 C 
ATOM     21  C   UNL     1       3.113  -0.848   0.617  0.00  0.00    +0.000 C 
ATOM     22  C   UNL     1       1.689  -1.397   0.518  0.00  0.00    +0.001 C 
ATOM     23  C   UNL     1       0.817  -0.752   1.597  0.00  0.00    +0.008 C 
ENDBRANCH   7  18
BRANCH  16  24
ATOM     24  C   UNL     1      -5.586   5.689   6.707  0.00  0.00    +0.021 C 
BRANCH  24  26
ATOM     25  N   UNL     1      -7.882   5.090   7.406  0.00  0.00    -0.208 N 
ATOM     26  C   UNL     1      -6.728   4.712   6.820  0.00  0.00    +0.216 C 
ATOM     27  O   UNL     1      -6.609   3.587   6.384  0.00  0.00    -0.276 OA
ATOM     28  H   UNL     1      -7.977   5.990   7.755  0.00  0.00    +0.177 HD
BRANCH  25  31
ATOM     29  C   UNL     1     -10.202   5.944   8.617  0.00  0.00    +0.068 C 
ATOM     30  C   UNL     1     -10.054   4.545   8.075  0.00  0.00    +0.063 C 
ATOM     31  N   UNL     1      -8.944   4.182   7.511  0.00  0.00    -0.185 NA
BRANCH  30  32
ATOM     32  C   UNL     1     -11.172   3.590   8.186  0.00  0.00    -0.002 A 
ATOM     33  C   UNL     1     -12.367   3.976   8.798  0.00  0.00    +0.012 A 
ATOM     34  C   UNL     1     -13.411   3.080   8.893  0.00  0.00    +0.039 A 
ATOM     35  C   UNL     1     -13.272   1.794   8.394  0.00  0.00    +0.123 A 
ATOM     36  C   UNL     1     -12.086   1.403   7.791  0.00  0.00    +0.039 A 
ATOM     37  C   UNL     1     -11.038   2.292   7.685  0.00  0.00    +0.012 A 
ATOM     38  F   UNL     1     -14.296   0.919   8.495  0.00  0.00    -0.205 F 
ENDBRANCH  30  32
ENDBRANCH  25  31
ENDBRANCH  24  26
ENDBRANCH  16  24
TORSDOF 5
