REMARK  Name = ZINC22035386
REMARK  11 active torsions:
REMARK  status: ('A' for Active; 'I' for Inactive)
REMARK    1  A    between atoms: C_1  and  C_2
REMARK    2  A    between atoms: C_2  and  O_3
REMARK    3  A    between atoms: O_3  and  C_4
REMARK    4  A    between atoms: C_9  and  N_10
REMARK    5  A    between atoms: C_11  and  C_13
REMARK    6  A    between atoms: C_13  and  C_15
REMARK    7  A    between atoms: C_13  and  O_21
REMARK    8  A    between atoms: O_21  and  C_22
REMARK    9  A    between atoms: C_22  and  C_24
REMARK   10  A    between atoms: C_24  and  N_25
REMARK   11  A    between atoms: C_33  and  C_35
REMARK                            x       y       z     vdW  Elec       q    Type
REMARK                         _______ _______ _______ _____ _____    ______ ____
ROOT
ATOM      1  C   UNL     1       1.158   3.578   0.013  0.00  0.00    +0.292 C 
ENDROOT
BRANCH   1   2
ATOM      2  C   UNL     1       1.184   2.072   0.016  0.00  0.00    +0.002 A 
ATOM      3  C   UNL     1      -0.002   1.360   0.025  0.00  0.00    +0.008 A 
ATOM      4  C   UNL     1       0.022  -0.022   0.027  0.00  0.00    +0.000 A 
ATOM      5  C   UNL     1       1.231  -0.693   0.019  0.00  0.00    +0.000 A 
ATOM      6  C   UNL     1       2.416   0.019   0.010  0.00  0.00    +0.000 A 
ATOM      7  C   UNL     1       2.392   1.401   0.008  0.00  0.00    +0.008 A 
ENDBRANCH   1   2
BRANCH   1   9
ATOM      8  N   UNL     1       0.513   3.833   2.388  0.00  0.00    -0.279 N 
ATOM      9  C   UNL     1       1.405   4.087   1.410  0.00  0.00    +0.263 C 
ATOM     10  O   UNL     1       2.407   4.726   1.654  0.00  0.00    -0.271 OA
ATOM     11  H   UNL     1      -0.438   3.334   2.149  0.00  0.00    +0.155 HD
BRANCH   8  17
ATOM     12  C   UNL     1      -0.242   4.429   4.609  0.00  0.00    +0.142 A 
ATOM     13  C   UNL     1       0.044   4.796   5.915  0.00  0.00    +0.047 A 
ATOM     14  C   UNL     1       1.358   4.939   6.320  0.00  0.00    +0.004 A 
ATOM     15  C   UNL     1       2.390   4.716   5.427  0.00  0.00    +0.002 A 
ATOM     16  C   UNL     1       2.113   4.345   4.125  0.00  0.00    +0.027 A 
ATOM     17  C   UNL     1       0.797   4.205   3.709  0.00  0.00    +0.076 A 
BRANCH  12  18
ATOM     18  O   UNL     1      -1.534   4.287   4.209  0.00  0.00    -0.490 OA
BRANCH  18  20
ATOM     19  C   UNL     1      -3.925   4.325   4.556  0.00  0.00    +0.048 C 
ATOM     20  C   UNL     1      -2.546   4.533   5.187  0.00  0.00    +0.226 C 
ENDBRANCH  18  20
ENDBRANCH  12  18
ENDBRANCH   8  17
ENDBRANCH   1   9
BRANCH   1  21
ATOM     21  O   UNL     1       2.192   4.079  -0.875  0.00  0.00    -0.446 OA
BRANCH  21  22
ATOM     22  C   UNL     1       1.851   4.274  -2.158  0.00  0.00    +0.326 C 
ATOM     23  O   UNL     1       0.726   4.035  -2.528  0.00  0.00    -0.249 OA
BRANCH  22  24
ATOM     24  C   UNL     1       2.872   4.791  -3.138  0.00  0.00    +0.238 C 
BRANCH  24  25
ATOM     25  N   UNL     1       2.258   4.917  -4.462  0.00  0.00    -0.213 N 
ATOM     26  C   UNL     1       2.246   3.936  -5.389  0.00  0.00    +0.247 C 
ATOM     27  O   UNL     1       2.723   2.826  -5.289  0.00  0.00    -0.273 OA
ATOM     28  C   UNL     1       1.511   4.513  -6.577  0.00  0.00    +0.115 C 
ATOM     29  C   UNL     1       0.249   3.709  -6.869  0.00  0.00    +0.035 C 
ATOM     30  C   UNL     1       0.631   2.283  -7.274  0.00  0.00    +0.003 C 
ATOM     31  C   UNL     1       1.526   2.328  -8.515  0.00  0.00    +0.000 C 
ATOM     32  C   UNL     1       2.798   3.117  -8.199  0.00  0.00    +0.006 C 
ATOM     33  C   UNL     1       2.425   4.546  -7.798  0.00  0.00    +0.018 C 
ATOM     34  C   UNL     1       3.695   5.330  -7.462  0.00  0.00    +0.010 C 
ATOM     35  N   UNL     1       1.166   5.877  -6.156  0.00  0.00    -0.285 N 
ATOM     36  C   UNL     1       1.644   6.021  -4.905  0.00  0.00    +0.310 C 
ATOM     37  O   UNL     1       1.530   7.040  -4.252  0.00  0.00    -0.252 OA
ATOM     38  H   UNL     1       0.618   6.541  -6.840  0.00  0.00    +0.151 HD
ENDBRANCH  24  25
ENDBRANCH  22  24
ENDBRANCH  21  22
ENDBRANCH   1  21
TORSDOF 9
