REMARK  Name = ZINC65341717
REMARK  5 active torsions:
REMARK  status: ('A' for Active; 'I' for Inactive)
REMARK    1  A    between atoms: C_3  and  C_15
REMARK    2  A    between atoms: C_5  and  S_7
REMARK    3  A    between atoms: S_7  and  N_10
REMARK    4  A    between atoms: C_18  and  O_23
REMARK    5  A    between atoms: C_19  and  C_21
REMARK                            x       y       z     vdW  Elec       q    Type
REMARK                         _______ _______ _______ _____ _____    ______ ____
ROOT
ATOM      1  C   UNL     1      -0.017   1.379   0.010  0.00  0.00    +0.002 A 
ATOM      2  C   UNL     1       1.168   2.088   0.002  0.00  0.00    +0.008 A 
ATOM      3  C   UNL     1       2.384   1.407  -0.013  0.00  0.00    -0.016 A 
ATOM      4  C   UNL     1       2.397   0.014  -0.021  0.00  0.00    +0.037 A 
ATOM      5  C   UNL     1       1.206  -0.685  -0.013  0.00  0.00    +0.106 A 
ATOM      6  C   UNL     1       0.002  -0.004   0.002  0.00  0.00    +0.028 A 
ENDROOT
BRANCH   3   7
ATOM      7  C   UNL     1       3.660   2.164  -0.022  0.00  0.00    -0.016 A 
ATOM      8  C   UNL     1       4.876   1.480  -0.043  0.00  0.00    +0.012 A 
ATOM      9  C   UNL     1       6.066   2.176  -0.051  0.00  0.00    +0.047 A 
ATOM     10  C   UNL     1       6.063   3.564  -0.038  0.00  0.00    +0.134 A 
ATOM     11  C   UNL     1       4.846   4.261  -0.017  0.00  0.00    +0.094 A 
ATOM     12  C   UNL     1       3.643   3.554  -0.015  0.00  0.00    +0.031 A 
BRANCH  11  13
ATOM     13  C   UNL     1       4.838   5.693  -0.003  0.00  0.00    +0.103 C 
ATOM     14  N   UNL     1       4.832   6.829   0.007  0.00  0.00    -0.191 NA
ENDBRANCH  11  13
BRANCH  10  15
ATOM     15  O   UNL     1       7.236   4.245  -0.046  0.00  0.00    -0.505 OA
ATOM     16  H   UNL     1       7.565   4.451  -0.931  0.00  0.00    +0.292 HD
ENDBRANCH  10  15
ENDBRANCH   3   7
BRANCH   5  17
ATOM     17  S   UNL     1       1.221  -2.446  -0.023  0.00  0.00    +0.061 S 
ATOM     18  O   UNL     1      -0.026  -2.860  -0.565  0.00  0.00    -0.153 OA
ATOM     19  O   UNL     1       2.464  -2.839  -0.589  0.00  0.00    -0.153 OA
BRANCH  17  20
ATOM     20  N   UNL     1       1.240  -2.945   1.556  0.00  0.00    -0.177 NA
ATOM     21  C   UNL     1       2.445  -3.187   2.363  0.00  0.00    +0.109 C 
ATOM     22  C   UNL     1       1.976  -3.660   3.755  0.00  0.00    +0.018 C 
ATOM     23  C   UNL     1       0.549  -4.200   3.476  0.00  0.00    +0.018 C 
ATOM     24  C   UNL     1       0.053  -3.214   2.386  0.00  0.00    +0.109 C 
ENDBRANCH  17  20
ENDBRANCH   5  17
TORSDOF 5
