REMARK  Name = ZINC09541546
REMARK  12 active torsions:
REMARK  status: ('A' for Active; 'I' for Inactive)
REMARK    1  A    between atoms: C_1  and  C_2
REMARK    2  A    between atoms: C_2  and  O_3
REMARK    3  A    between atoms: O_3  and  C_4
REMARK    4  A    between atoms: C_7  and  C_10
REMARK    5  A    between atoms: C_12  and  C_27
REMARK    6  A    between atoms: C_14  and  C_17
REMARK    7  A    between atoms: C_21  and  O_24
REMARK    8  A    between atoms: C_22  and  O_23
REMARK    9  A    between atoms: O_24  and  C_25
REMARK   10  A    between atoms: C_25  and  C_26
REMARK   11  A    between atoms: C_32  and  O_33
REMARK   12  A    between atoms: O_33  and  C_34
REMARK                            x       y       z     vdW  Elec       q    Type
REMARK                         _______ _______ _______ _____ _____    ______ ____
ROOT
ATOM      1  C   UNL     1       5.251   3.408  -1.497  0.00  0.00    +0.040 C 
ATOM      2  N   UNL     1       5.482   4.216  -0.530  0.00  0.00    -0.298 NA
ATOM      3  C   UNL     1       4.728   4.236   0.717  0.00  0.00    +0.084 C 
ATOM      4  C   UNL     1       3.670   2.198  -0.021  0.00  0.00    -0.028 C 
ATOM      5  C   UNL     1       4.156   2.378  -1.462  0.00  0.00    +0.044 C 
ATOM      6  N   UNL     1       3.445   3.535   0.562  0.00  0.00    +0.401 N 
ATOM      7  H   UNL     1       2.833   4.078  -0.058  0.00  0.00    -0.081 HD
ATOM      8  H   UNL     1       2.998   3.435   1.482  0.00  0.00    -0.081 HD
ENDROOT
BRANCH   1  12
ATOM      9  C   UNL     1       7.694   3.647  -4.961  0.00  0.00    +0.121 A 
ATOM     10  C   UNL     1       7.918   4.509  -3.894  0.00  0.00    +0.046 A 
ATOM     11  C   UNL     1       7.128   4.435  -2.768  0.00  0.00    +0.013 A 
ATOM     12  C   UNL     1       6.099   3.491  -2.700  0.00  0.00    -0.004 A 
ATOM     13  C   UNL     1       5.881   2.622  -3.772  0.00  0.00    +0.013 A 
ATOM     14  C   UNL     1       6.673   2.706  -4.896  0.00  0.00    +0.046 A 
BRANCH   9  15
ATOM     15  O   UNL     1       8.475   3.724  -6.069  0.00  0.00    -0.492 OA
BRANCH  15  17
ATOM     16  C   UNL     1       9.166   3.043  -8.282  0.00  0.00    +0.048 C 
ATOM     17  C   UNL     1       8.190   2.808  -7.128  0.00  0.00    +0.225 C 
ENDBRANCH  15  17
ENDBRANCH   9  15
ENDBRANCH   1  12
BRANCH   4  18
ATOM     18  C   UNL     1       2.379   1.420  -0.013  0.00  0.00    -0.016 A 
ATOM     19  C   UNL     1       1.169   2.089   0.002  0.00  0.00    +0.006 A 
ATOM     20  C   UNL     1      -0.017   1.379   0.010  0.00  0.00    +0.004 A 
ATOM     21  C   UNL     1       0.002  -0.004   0.002  0.00  0.00    +0.049 A 
ATOM     22  C   UNL     1       1.211  -0.680  -0.013  0.00  0.00    +0.162 A 
ATOM     23  C   UNL     1       2.405   0.035  -0.021  0.00  0.00    +0.160 A 
BRANCH  23  24
ATOM     24  O   UNL     1       3.594  -0.624  -0.035  0.00  0.00    -0.503 OA
ATOM     25  H   UNL     1       3.930  -0.810  -0.923  0.00  0.00    +0.292 HD
ENDBRANCH  23  24
BRANCH  22  26
ATOM     26  O   UNL     1       1.231  -2.040  -0.020  0.00  0.00    -0.489 OA
BRANCH  26  27
ATOM     27  C   UNL     1      -0.032  -2.708  -0.011  0.00  0.00    +0.226 C 
ATOM     28  C   UNL     1       0.191  -4.221  -0.021  0.00  0.00    +0.048 C 
ENDBRANCH  26  27
ENDBRANCH  22  26
ENDBRANCH   4  18
BRANCH   3  29
ATOM     29  C   UNL     1       4.464   5.665   1.115  0.00  0.00    +0.001 A 
ATOM     30  C   UNL     1       3.287   5.997   1.758  0.00  0.00    +0.007 A 
ATOM     31  C   UNL     1       3.046   7.308   2.127  0.00  0.00    +0.000 A 
ATOM     32  C   UNL     1       3.978   8.290   1.846  0.00  0.00    +0.004 A 
ATOM     33  C   UNL     1       5.153   7.964   1.198  0.00  0.00    +0.046 A 
ATOM     34  C   UNL     1       5.400   6.649   0.831  0.00  0.00    +0.123 A 
BRANCH  34  35
ATOM     35  O   UNL     1       6.556   6.325   0.195  0.00  0.00    -0.495 OA
ATOM     36  C   UNL     1       7.473   7.390  -0.065  0.00  0.00    +0.277 C 
ENDBRANCH  34  35
ENDBRANCH   3  29
TORSDOF 9
