REMARK  Name = ZINC63162806
REMARK  2 active torsions:
REMARK  status: ('A' for Active; 'I' for Inactive)
REMARK    1  A    between atoms: C_5  and  C_7
REMARK    2  A    between atoms: C_24  and  C_26
REMARK                            x       y       z     vdW  Elec       q    Type
REMARK                         _______ _______ _______ _____ _____    ______ ____
ROOT
ATOM      1  C   UNL     1       1.228  -2.186  -0.022  0.00  0.00    +0.218 C 
ATOM      2  C   UNL     1       1.219  -2.688  -1.466  0.00  0.00    +0.113 C 
ATOM      3  C   UNL     1      -0.056  -2.132  -2.079  0.00  0.00    +0.065 C 
ATOM      4  C   UNL     1      -1.280  -2.251  -1.278  0.00  0.00    +0.039 A 
ATOM      5  C   UNL     1      -2.543  -2.104  -1.848  0.00  0.00    +0.013 A 
ATOM      6  C   UNL     1      -3.666  -2.216  -1.055  0.00  0.00    +0.001 A 
ATOM      7  C   UNL     1      -3.538  -2.473   0.300  0.00  0.00    +0.004 A 
ATOM      8  C   UNL     1      -2.292  -2.624   0.876  0.00  0.00    +0.046 A 
ATOM      9  C   UNL     1      -1.148  -2.520   0.097  0.00  0.00    +0.130 A 
ATOM     10  O   UNL     1       0.074  -2.683   0.659  0.00  0.00    -0.483 OA
ATOM     11  N   UNL     1      -0.014  -1.531  -3.221  0.00  0.00    -0.215 NA
ATOM     12  C   UNL     1       1.125  -1.253  -3.903  0.00  0.00    +0.249 A 
ATOM     13  N   UNL     1       1.293  -0.676  -5.088  0.00  0.00    -0.198 NA
ATOM     14  C   UNL     1       2.589  -0.567  -5.360  0.00  0.00    +0.247 A 
ATOM     15  N   UNL     1       3.284  -1.073  -4.374  0.00  0.00    -0.156 NA
ATOM     16  N   UNL     1       2.363  -1.543  -3.429  0.00  0.00    -0.221 N 
ATOM     17  C   UNL     1       2.527  -2.248  -2.149  0.00  0.00    +0.155 C 
ENDROOT
BRANCH  17  18
ATOM     18  C   UNL     1       3.370  -3.474  -2.389  0.00  0.00    -0.004 A 
ATOM     19  C   UNL     1       2.891  -4.498  -3.184  0.00  0.00    +0.008 A 
ATOM     20  C   UNL     1       3.664  -5.622  -3.404  0.00  0.00    +0.020 A 
ATOM     21  C   UNL     1       4.919  -5.723  -2.830  0.00  0.00    +0.042 A 
ATOM     22  C   UNL     1       5.399  -4.698  -2.035  0.00  0.00    +0.040 A 
ATOM     23  C   UNL     1       4.627  -3.571  -1.818  0.00  0.00    +0.048 A 
ATOM     24 CL   UNL     1       5.231  -2.281  -0.826  0.00  0.00    -0.083 Cl
ATOM     25 CL   UNL     1       5.890  -7.135  -3.106  0.00  0.00    -0.083 Cl
ENDBRANCH  17  18
BRANCH   1  30
ATOM     26  C   UNL     1      -0.017   1.378  -0.024  0.00  0.00    +0.001 A 
ATOM     27  C   UNL     1       1.171   2.087   0.002  0.00  0.00    +0.003 A 
ATOM     28  C   UNL     1       2.377   1.413   0.021  0.00  0.00    +0.039 A 
ATOM     29  C   UNL     1       2.397   0.029   0.013  0.00  0.00    +0.130 A 
ATOM     30  C   UNL     1       1.208  -0.679  -0.013  0.00  0.00    +0.029 A 
ATOM     31  C   UNL     1       0.002  -0.004  -0.032  0.00  0.00    +0.010 A 
ATOM     32  F   UNL     1       3.576  -0.630   0.031  0.00  0.00    -0.205 F 
ENDBRANCH   1  30
TORSDOF 2
