REMARK  Name = ZINC59153453
REMARK  10 active torsions:
REMARK  status: ('A' for Active; 'I' for Inactive)
REMARK    1  A    between atoms: C_1  and  C_2
REMARK    2  A    between atoms: C_5  and  O_9
REMARK    3  A    between atoms: O_9  and  C_10
REMARK    4  A    between atoms: C_10  and  C_11
REMARK    5  A    between atoms: N_13  and  N_14
REMARK    6  A    between atoms: C_15  and  C_16
REMARK    7  A    between atoms: C_17  and  C_30
REMARK    8  A    between atoms: N_19  and  C_22
REMARK    9  A    between atoms: C_20  and  C_21
REMARK   10  A    between atoms: C_22  and  C_23
REMARK                            x       y       z     vdW  Elec       q    Type
REMARK                         _______ _______ _______ _____ _____    ______ ____
ROOT
ATOM      1  N   UNL     1       0.219  -8.693   1.390  0.00  0.00    -0.188 NA
ATOM      2  C   UNL     1       0.324  -9.396   2.475  0.00  0.00    +0.141 C 
ENDROOT
BRANCH   2   3
ATOM      3  C   UNL     1       0.229 -10.867   2.414  0.00  0.00    +0.038 A 
ATOM      4  C   UNL     1       0.032 -11.646   1.253  0.00  0.00    +0.069 A 
ATOM      5  N   UNL     1       0.003 -12.902   1.607  0.00  0.00    -0.175 NA
ATOM      6  N   UNL     1       0.177 -12.986   2.993  0.00  0.00    -0.263 N 
ATOM      7  C   UNL     1       0.320 -11.737   3.479  0.00  0.00    +0.045 A 
ATOM      8  C   UNL     1       0.538 -11.362   4.922  0.00  0.00    +0.066 C 
ATOM      9  C   UNL     1      -0.119 -11.118  -0.151  0.00  0.00    +0.068 C 
BRANCH   6  10
ATOM     10  C   UNL     1       0.204 -14.221   3.780  0.00  0.00    +0.180 C 
BRANCH  10  11
ATOM     11  C   UNL     1      -1.205 -14.632   4.119  0.00  0.00    -0.008 A 
ATOM     12  C   UNL     1      -1.758 -14.269   5.333  0.00  0.00    +0.007 A 
ATOM     13  C   UNL     1      -3.051 -14.646   5.644  0.00  0.00    +0.000 A 
ATOM     14  C   UNL     1      -3.792 -15.386   4.741  0.00  0.00    +0.001 A 
ATOM     15  C   UNL     1      -3.240 -15.750   3.527  0.00  0.00    +0.020 A 
ATOM     16  C   UNL     1      -1.948 -15.368   3.213  0.00  0.00    +0.046 A 
ATOM     17 CL   UNL     1      -1.256 -15.818   1.685  0.00  0.00    -0.083 Cl
ENDBRANCH  10  11
ENDBRANCH   6  10
ENDBRANCH   2   3
BRANCH   1  20
ATOM     18  C   UNL     1       0.201  -6.567   0.320  0.00  0.00    +0.270 C 
ATOM     19  O   UNL     1       0.025  -7.119  -0.745  0.00  0.00    -0.270 OA
ATOM     20  N   UNL     1       0.310  -7.297   1.448  0.00  0.00    -0.204 N 
ATOM     21  H   UNL     1       0.451  -6.855   2.300  0.00  0.00    +0.177 HD
BRANCH  18  22
ATOM     22  C   UNL     1       0.299  -5.064   0.383  0.00  0.00    +0.326 C 
BRANCH  22  23
ATOM     23  O   UNL     1       0.154  -4.522  -0.931  0.00  0.00    -0.483 OA
BRANCH  23  28
ATOM     24  C   UNL     1       0.416   1.083  -1.432  0.00  0.00    +0.045 C 
ATOM     25  C   UNL     1       0.347  -0.417  -1.298  0.00  0.00    -0.032 A 
ATOM     26  C   UNL     1       0.150  -1.202  -2.419  0.00  0.00    +0.008 A 
ATOM     27  C   UNL     1       0.085  -2.576  -2.299  0.00  0.00    +0.046 A 
ATOM     28  C   UNL     1       0.218  -3.170  -1.052  0.00  0.00    +0.123 A 
ATOM     29  C   UNL     1       0.416  -2.381   0.072  0.00  0.00    +0.066 A 
ATOM     30  C   UNL     1       0.485  -1.006  -0.054  0.00  0.00    +0.047 A 
ATOM     31 CL   UNL     1       0.740  -0.018   1.351  0.00  0.00    -0.083 Cl
ENDBRANCH  23  28
ENDBRANCH  22  23
ENDBRANCH  18  22
ENDBRANCH   1  20
TORSDOF 7
