REMARK  Name = ZINC08720997
REMARK  9 active torsions:
REMARK  status: ('A' for Active; 'I' for Inactive)
REMARK    1  A    between atoms: C_4  and  C_7
REMARK    2  A    between atoms: C_8  and  C_9
REMARK    3  A    between atoms: C_10  and  C_11
REMARK    4  A    between atoms: C_10  and  N_18
REMARK    5  A    between atoms: N_13  and  C_14
REMARK    6  A    between atoms: C_14  and  C_15
REMARK    7  A    between atoms: C_15  and  C_16
REMARK    8  A    between atoms: C_16  and  O_17
REMARK    9  A    between atoms: C_19  and  C_21
REMARK                            x       y       z     vdW  Elec       q    Type
REMARK                         _______ _______ _______ _____ _____    ______ ____
ROOT
ATOM      1  C   UNL     1       0.779   2.626  -0.100  0.00  0.00    +0.028 C 
ATOM      2  C   UNL     1       1.915   3.352   0.086  0.00  0.00    +0.096 C 
ENDROOT
BRANCH   2   3
ATOM      3  C   UNL     1       1.833   4.805   0.278  0.00  0.00    +0.258 C 
ATOM      4  O   UNL     1       0.750   5.360   0.272  0.00  0.00    -0.269 OA
ATOM      5  N   UNL     1       2.958   5.524   0.462  0.00  0.00    -0.310 N 
ATOM      6  H   UNL     1       3.821   5.082   0.467  0.00  0.00    +0.149 HD
BRANCH   5   7
ATOM      7  C   UNL     1       2.877   6.974   0.654  0.00  0.00    +0.107 C 
BRANCH   7   8
ATOM      8  C   UNL     1       4.285   7.544   0.839  0.00  0.00    +0.046 C 
BRANCH   8   9
ATOM      9  C   UNL     1       4.199   9.059   1.039  0.00  0.00    +0.157 C 
BRANCH   9  10
ATOM     10  O   UNL     1       5.514   9.591   1.212  0.00  0.00    -0.395 OA
ATOM     11  H   UNL     1       5.537  10.549   1.344  0.00  0.00    +0.209 HD
ENDBRANCH   9  10
ENDBRANCH   8   9
ENDBRANCH   7   8
ENDBRANCH   5   7
ENDBRANCH   2   3
BRANCH   2  12
ATOM     12  N   UNL     1       3.158   2.716   0.093  0.00  0.00    -0.275 N 
ATOM     13  C   UNL     1       4.090   3.046  -0.822  0.00  0.00    +0.284 C 
ATOM     14  O   UNL     1       3.878   3.954  -1.606  0.00  0.00    -0.266 OA
ATOM     15  H   UNL     1       3.350   2.035   0.757  0.00  0.00    +0.155 HD
BRANCH  13  16
ATOM     16  C   UNL     1       5.358   2.314  -0.875  0.00  0.00    +0.191 A 
ATOM     17  C   UNL     1       6.381   2.542  -1.751  0.00  0.00    +0.056 A 
ATOM     18  C   UNL     1       7.391   1.619  -1.442  0.00  0.00    +0.058 A 
ATOM     19  C   UNL     1       6.943   0.870  -0.407  0.00  0.00    +0.171 A 
ATOM     20  O   UNL     1       5.718   1.293  -0.069  0.00  0.00    -0.444 OA
ATOM     21 BR   UNL     1       7.891  -0.540   0.423  0.00  0.00    -0.008 Br
ENDBRANCH  13  16
ENDBRANCH   2  12
BRANCH   1  23
ATOM     22  C   UNL     1      -0.266   0.523  -0.563  0.00  0.00    +0.008 C 
ATOM     23  C   UNL     1       0.863   1.248  -0.393  0.00  0.00    +0.003 C 
BRANCH  22  27
ATOM     24  C   UNL     1      -4.027   2.471  -0.770  0.00  0.00    +0.000 A 
ATOM     25  C   UNL     1      -2.931   3.020  -1.413  0.00  0.00    +0.001 A 
ATOM     26  C   UNL     1      -1.705   2.392  -1.351  0.00  0.00    +0.008 A 
ATOM     27  C   UNL     1      -1.570   1.198  -0.635  0.00  0.00    -0.025 A 
ATOM     28  C   UNL     1      -2.683   0.648   0.009  0.00  0.00    +0.008 A 
ATOM     29  C   UNL     1      -3.901   1.290  -0.058  0.00  0.00    +0.001 A 
ENDBRANCH  22  27
ENDBRANCH   1  23
TORSDOF 9
