REMARK  Name = ZINC11558189
REMARK  10 active torsions:
REMARK  status: ('A' for Active; 'I' for Inactive)
REMARK    1  A    between atoms: C_1  and  C_2
REMARK    2  A    between atoms: C_2  and  C_3
REMARK    3  A    between atoms: C_2  and  C_4
REMARK    4  A    between atoms: C_4  and  C_6
REMARK    5  A    between atoms: C_4  and  N_21
REMARK    6  A    between atoms: N_8  and  C_9
REMARK    7  A    between atoms: C_9  and  C_10
REMARK    8  A    between atoms: C_10  and  C_12
REMARK    9  A    between atoms: C_10  and  N_57
REMARK   10  A    between atoms: C_22  and  C_24
REMARK                            x       y       z     vdW  Elec       q    Type
REMARK                         _______ _______ _______ _____ _____    ______ ____
ROOT
ATOM      1  C   UNL     1      -0.453   1.327   4.022  0.00  0.00    +0.234 C 
ATOM      2  O   UNL     1      -1.372   2.022   4.401  0.00  0.00    -0.274 OA
ATOM      3  N   UNL     1      -0.329   1.029   2.713  0.00  0.00    -0.315 N 
ATOM      4  H   UNL     1       0.444   0.535   2.400  0.00  0.00    +0.149 HD
ENDROOT
BRANCH   1   5
ATOM      5  C   UNL     1       0.549   0.795   5.014  0.00  0.00    +0.162 C 
BRANCH   5   6
ATOM      6  N   UNL     1      -0.047   0.785   6.353  0.00  0.00    -0.300 N 
ATOM      7  C   UNL     1       0.411  -0.070   7.288  0.00  0.00    +0.246 C 
ATOM      8  O   UNL     1       1.319  -0.834   7.020  0.00  0.00    -0.270 OA
ATOM      9  H   UNL     1      -0.771   1.395   6.566  0.00  0.00    +0.150 HD
BRANCH   7  10
ATOM     10  C   UNL     1      -0.189  -0.080   8.637  0.00  0.00    +0.055 A 
ATOM     11  C   UNL     1      -1.232   0.796   8.947  0.00  0.00    +0.016 A 
ATOM     12  C   UNL     1      -1.788   0.782  10.208  0.00  0.00    +0.021 A 
ATOM     13  C   UNL     1      -1.316  -0.099  11.168  0.00  0.00    +0.042 A 
ATOM     14  C   UNL     1      -0.282  -0.970  10.869  0.00  0.00    +0.040 A 
ATOM     15  C   UNL     1       0.280  -0.970   9.607  0.00  0.00    +0.054 A 
ATOM     16 CL   UNL     1       1.570  -2.069   9.230  0.00  0.00    -0.083 Cl
ATOM     17 CL   UNL     1      -2.022  -0.109  12.754  0.00  0.00    -0.083 Cl
ENDBRANCH   7  10
ENDBRANCH   5   6
BRANCH   5  19
ATOM     18  C   UNL     1       2.441   1.660   3.630  0.00  0.00    +0.009 C 
ATOM     19  C   UNL     1       1.790   1.690   5.014  0.00  0.00    +0.012 C 
ATOM     20  C   UNL     1       1.384   3.125   5.356  0.00  0.00    +0.009 C 
ENDBRANCH   5  19
ENDBRANCH   1   5
BRANCH   3  21
ATOM     21  C   UNL     1      -1.363   1.451   1.765  0.00  0.00    +0.096 C 
BRANCH  21  22
ATOM     22  C   UNL     1      -1.049   0.881   0.381  0.00  0.00    +0.016 C 
BRANCH  22  27
ATOM     23  C   UNL     1      -1.952   2.897  -0.642  0.00  0.00    -0.078 C 
ATOM     24  C   UNL     1      -2.581   3.233  -2.018  0.00  0.00    -0.020 C 
ATOM     25  C   UNL     1      -2.053   2.099  -2.926  0.00  0.00    -0.020 C 
ATOM     26  C   UNL     1      -1.677   0.956  -1.965  0.00  0.00    -0.078 C 
ATOM     27  N   UNL     1      -2.013   1.427  -0.621  0.00  0.00    +0.387 N 
ATOM     28  H   UNL     1      -2.963   1.123  -0.374  0.00  0.00    -0.081 HD
ENDBRANCH  22  27
BRANCH  22  29
ATOM     29  C   UNL     1      -1.155  -0.622   0.421  0.00  0.00    +0.093 A 
ATOM     30  C   UNL     1      -0.124  -1.481   0.516  0.00  0.00    +0.043 A 
ATOM     31  C   UNL     1      -0.676  -2.783   0.523  0.00  0.00    +0.041 A 
ATOM     32  C   UNL     1      -2.010  -2.642   0.423  0.00  0.00    +0.195 A 
ATOM     33  O   UNL     1      -2.294  -1.331   0.362  0.00  0.00    -0.469 OA
ENDBRANCH  22  29
ENDBRANCH  21  22
ENDBRANCH   3  21
TORSDOF 8
