REMARK  Name = ZINC38701940
REMARK  11 active torsions:
REMARK  status: ('A' for Active; 'I' for Inactive)
REMARK    1  A    between atoms: C_1  and  C_2
REMARK    2  A    between atoms: C_2  and  C_3
REMARK    3  A    between atoms: C_3  and  C_4
REMARK    4  A    between atoms: C_4  and  C_5
REMARK    5  A    between atoms: C_5  and  O_6
REMARK    6  A    between atoms: O_6  and  C_7
REMARK    7  A    between atoms: C_10  and  C_13
REMARK    8  A    between atoms: C_16  and  C_32
REMARK    9  A    between atoms: N_23  and  C_24
REMARK   10  A    between atoms: C_34  and  C_39
REMARK   11  A    between atoms: C_37  and  O_38
REMARK                            x       y       z     vdW  Elec       q    Type
REMARK                         _______ _______ _______ _____ _____    ______ ____
ROOT
ATOM      1  C   UNL     1       3.936  -6.545   6.607  0.00  0.00    +0.142 C 
ATOM      2  C   UNL     1       3.025  -6.953   7.732  0.00  0.00    +0.035 A 
ATOM      3  C   UNL     1       2.105  -6.555   8.708  0.00  0.00    +0.102 A 
ATOM      4  N   UNL     1       1.724  -7.638   9.357  0.00  0.00    -0.173 NA
ATOM      5  N   UNL     1       2.312  -8.680   8.887  0.00  0.00    -0.272 N 
ATOM      6  H   UNL     1       2.184  -9.585   9.211  0.00  0.00    +0.189 HD
ATOM      7  C   UNL     1       3.144  -8.323   7.864  0.00  0.00    +0.126 A 
ATOM      8  C   UNL     1       4.101  -8.807   6.862  0.00  0.00    +0.266 C 
ATOM      9  O   UNL     1       4.426  -9.970   6.718  0.00  0.00    -0.268 OA
ATOM     10  N   UNL     1       4.569  -7.781   6.126  0.00  0.00    -0.280 N 
ENDROOT
BRANCH  10  11
ATOM     11  C   UNL     1       5.540  -7.879   5.034  0.00  0.00    +0.100 C 
ATOM     12  C   UNL     1       5.000  -8.818   3.942  0.00  0.00    +0.047 C 
ATOM     13  C   UNL     1       6.132  -9.180   2.951  0.00  0.00    +0.168 C 
ATOM     14  S   UNL     1       7.640  -9.050   3.995  0.00  0.00    -0.029 S 
ATOM     15  O   UNL     1       8.471  -8.018   3.481  0.00  0.00    -0.174 OA
ATOM     16  O   UNL     1       8.180 -10.349   4.191  0.00  0.00    -0.174 OA
ATOM     17  C   UNL     1       6.873  -8.474   5.568  0.00  0.00    +0.188 C 
ENDBRANCH  10  11
BRANCH   3  18
ATOM     18  C   UNL     1       1.643  -5.168   8.966  0.00  0.00    +0.044 A 
ATOM     19  C   UNL     1       2.561  -4.122   9.010  0.00  0.00    +0.017 A 
ATOM     20  C   UNL     1       2.126  -2.834   9.251  0.00  0.00    -0.050 A 
ATOM     21  C   UNL     1       0.781  -2.578   9.448  0.00  0.00    +0.007 A 
ATOM     22  C   UNL     1      -0.139  -3.609   9.406  0.00  0.00    +0.046 A 
ATOM     23  C   UNL     1       0.284  -4.906   9.160  0.00  0.00    +0.126 A 
ATOM     24  C   UNL     1       3.121  -1.703   9.299  0.00  0.00    +0.044 C 
BRANCH  23  25
ATOM     25  O   UNL     1      -0.620  -5.920   9.112  0.00  0.00    -0.506 OA
ATOM     26  H   UNL     1      -0.841  -6.290   9.977  0.00  0.00    +0.292 HD
ENDBRANCH  23  25
ENDBRANCH   3  18
BRANCH   1  30
ATOM     27  C   UNL     1       1.677  -4.731   3.466  0.00  0.00    +0.121 A 
ATOM     28  C   UNL     1       2.517  -3.957   4.255  0.00  0.00    +0.046 A 
ATOM     29  C   UNL     1       3.246  -4.546   5.270  0.00  0.00    +0.009 A 
ATOM     30  C   UNL     1       3.140  -5.905   5.500  0.00  0.00    -0.022 A 
ATOM     31  C   UNL     1       2.304  -6.679   4.715  0.00  0.00    +0.009 A 
ATOM     32  C   UNL     1       1.569  -6.093   3.703  0.00  0.00    +0.046 A 
BRANCH  27  33
ATOM     33  O   UNL     1       0.959  -4.153   2.467  0.00  0.00    -0.492 OA
BRANCH  33  34
ATOM     34  C   UNL     1       1.121  -2.746   2.281  0.00  0.00    +0.229 C 
BRANCH  34  35
ATOM     35  C   UNL     1       0.240  -2.280   1.121  0.00  0.00    +0.041 C 
BRANCH  35  36
ATOM     36  C   UNL     1       0.413  -0.773   0.922  0.00  0.00    +0.003 C 
BRANCH  36  38
ATOM     37  C   UNL     1      -0.295   1.200  -0.438  0.00  0.00    +0.004 C 
ATOM     38  C   UNL     1      -0.468  -0.307  -0.239  0.00  0.00    -0.003 C 
ENDBRANCH  36  38
ENDBRANCH  35  36
ENDBRANCH  34  35
ENDBRANCH  33  34
ENDBRANCH  27  33
ENDBRANCH   1  30
TORSDOF 9
