REMARK  Name = ZINC03997578
REMARK  6 active torsions:
REMARK  status: ('A' for Active; 'I' for Inactive)
REMARK    1  A    between atoms: C_1  and  C_2
REMARK    2  A    between atoms: C_5  and  S_8
REMARK    3  A    between atoms: S_8  and  N_11
REMARK    4  A    between atoms: N_11  and  C_12
REMARK    5  A    between atoms: C_15  and  C_18
REMARK    6  A    between atoms: C_19  and  C_20
REMARK                            x       y       z     vdW  Elec       q    Type
REMARK                         _______ _______ _______ _____ _____    ______ ____
ROOT
ATOM      1  C   UNL     1       0.845  -0.448   0.723  0.00  0.00    +0.048 A 
ATOM      2  C   UNL     1       2.037   0.162   1.103  0.00  0.00    +0.025 A 
ATOM      3  C   UNL     1       2.836  -0.422   2.060  0.00  0.00    +0.010 A 
ATOM      4  C   UNL     1       2.453  -1.635   2.643  0.00  0.00    -0.025 A 
ATOM      5  C   UNL     1       1.257  -2.247   2.254  0.00  0.00    +0.010 A 
ATOM      6  C   UNL     1       0.461  -1.655   1.300  0.00  0.00    +0.025 A 
ENDROOT
BRANCH   1   7
ATOM      7  N   UNL     1       0.037   0.148  -0.243  0.00  0.00    -0.216 N 
ATOM      8  H   UNL     1       0.292   0.113  -1.179  0.00  0.00    +0.174 HD
BRANCH   7   9
ATOM      9  S   UNL     1      -1.359   0.918   0.205  0.00  0.00    +0.072 S 
ATOM     10  O   UNL     1      -1.922   1.462  -0.980  0.00  0.00    -0.150 OA
ATOM     11  O   UNL     1      -2.070   0.015   1.042  0.00  0.00    -0.150 OA
BRANCH   9  16
ATOM     12  C   UNL     1       0.218   5.599   3.670  0.00  0.00    +0.044 C 
ATOM     13  C   UNL     1      -0.176   4.430   2.805  0.00  0.00    -0.050 A 
ATOM     14  C   UNL     1      -0.176   4.558   1.429  0.00  0.00    +0.005 A 
ATOM     15  C   UNL     1      -0.538   3.486   0.635  0.00  0.00    +0.029 A 
ATOM     16  C   UNL     1      -0.898   2.285   1.217  0.00  0.00    +0.109 A 
ATOM     17  C   UNL     1      -0.903   2.158   2.594  0.00  0.00    +0.029 A 
ATOM     18  C   UNL     1      -0.537   3.229   3.388  0.00  0.00    +0.005 A 
ENDBRANCH   9  16
ENDBRANCH   7   9
ENDBRANCH   1   7
BRANCH   4  19
ATOM     19  C   UNL     1       3.307  -2.265   3.662  0.00  0.00    +0.010 C 
ATOM     20  C   UNL     1       4.459  -1.674   4.036  0.00  0.00    +0.035 C 
BRANCH  20  21
ATOM     21  C   UNL     1       5.309  -2.302   5.051  0.00  0.00    +0.102 A 
ATOM     22  N   UNL     1       5.117  -3.428   5.711  0.00  0.00    -0.240 NA
ATOM     23  C   UNL     1       5.990  -3.891   6.618  0.00  0.00    +0.079 A 
ATOM     24  C   UNL     1       5.905  -5.078   7.386  0.00  0.00    +0.029 A 
ATOM     25  C   UNL     1       6.880  -5.403   8.276  0.00  0.00    +0.002 A 
ATOM     26  C   UNL     1       7.991  -4.593   8.469  0.00  0.00    +0.001 A 
ATOM     27  C   UNL     1       8.113  -3.424   7.740  0.00  0.00    +0.017 A 
ATOM     28  C   UNL     1       7.134  -3.086   6.838  0.00  0.00    +0.040 A 
ATOM     29  S   UNL     1       6.867  -1.734   5.717  0.00  0.00    -0.068 S 
ENDBRANCH  20  21
ENDBRANCH   4  19
TORSDOF 5
