REMARK  Name = ZINC57174139
REMARK  5 active torsions:
REMARK  status: ('A' for Active; 'I' for Inactive)
REMARK    1  A    between atoms: C_4  and  C_7
REMARK    2  A    between atoms: C_7  and  N_8
REMARK    3  A    between atoms: C_12  and  C_15
REMARK    4  A    between atoms: N_17  and  N_18
REMARK    5  A    between atoms: C_19  and  C_21
REMARK                            x       y       z     vdW  Elec       q    Type
REMARK                         _______ _______ _______ _____ _____    ______ ____
ROOT
ATOM      1  C   UNL     1       7.041  -2.939   2.741  0.00  0.00    +0.230 C 
ATOM      2  O   UNL     1       7.547  -3.249   1.683  0.00  0.00    -0.274 OA
ATOM      3  N   UNL     1       7.598  -3.345   3.899  0.00  0.00    -0.234 N 
ATOM      4  H   UNL     1       7.193  -3.097   4.745  0.00  0.00    +0.173 HD
ENDROOT
BRANCH   1   9
ATOM      5  N   UNL     1       4.153  -0.953   1.342  0.00  0.00    +0.383 N 
ATOM      6  C   UNL     1       4.424   0.329   2.003  0.00  0.00    -0.078 C 
ATOM      7  C   UNL     1       4.807   0.083   3.464  0.00  0.00    -0.018 C 
ATOM      8  C   UNL     1       6.060  -0.796   3.517  0.00  0.00    +0.009 C 
ATOM      9  C   UNL     1       5.790  -2.099   2.760  0.00  0.00    +0.060 C 
ATOM     10  C   UNL     1       5.371  -1.772   1.325  0.00  0.00    -0.066 C 
ATOM     11  H   UNL     1       3.427  -1.441   1.844  0.00  0.00    -0.081 HD
BRANCH   5  12
ATOM     12  C   UNL     1       3.711  -0.707  -0.038  0.00  0.00    -0.043 C 
BRANCH  12  16
ATOM     13  C   UNL     1      -0.017   1.378   0.010  0.00  0.00    +0.000 A 
ATOM     14  C   UNL     1       1.171   2.086   0.002  0.00  0.00    +0.000 A 
ATOM     15  C   UNL     1       2.377   1.411  -0.013  0.00  0.00    +0.002 A 
ATOM     16  C   UNL     1       2.396   0.029  -0.020  0.00  0.00    -0.064 A 
ATOM     17  C   UNL     1       1.208  -0.679  -0.012  0.00  0.00    +0.002 A 
ATOM     18  C   UNL     1       0.002  -0.004   0.002  0.00  0.00    +0.000 A 
ENDBRANCH  12  16
ENDBRANCH   5  12
ENDBRANCH   1   9
BRANCH   3  19
ATOM     19  N   UNL     1       8.761  -4.126   3.881  0.00  0.00    -0.230 N 
ATOM     20  C   UNL     1       9.318  -4.532   5.040  0.00  0.00    +0.262 C 
ATOM     21  O   UNL     1       8.811  -4.221   6.100  0.00  0.00    -0.269 OA
ATOM     22  H   UNL     1       9.166  -4.374   3.035  0.00  0.00    +0.173 HD
BRANCH  20  23
ATOM     23  C   UNL     1      10.545  -5.355   5.021  0.00  0.00    +0.056 A 
ATOM     24  C   UNL     1      11.130  -5.788   6.218  0.00  0.00    +0.017 A 
ATOM     25  C   UNL     1      12.277  -6.556   6.146  0.00  0.00    +0.041 A 
ATOM     26  C   UNL     1      12.807  -6.870   4.905  0.00  0.00    +0.129 A 
ATOM     27  N   UNL     1      12.233  -6.447   3.793  0.00  0.00    -0.243 NA
ATOM     28  C   UNL     1      11.136  -5.719   3.811  0.00  0.00    +0.125 A 
ATOM     29 CL   UNL     1      14.248  -7.833   4.810  0.00  0.00    -0.062 Cl
ENDBRANCH  20  23
ENDBRANCH   3  19
TORSDOF 5
