REMARK  Name = ZINC27519290
REMARK  4 active torsions:
REMARK  status: ('A' for Active; 'I' for Inactive)
REMARK    1  A    between atoms: C_4  and  C_7
REMARK    2  A    between atoms: C_8  and  C_18
REMARK    3  A    between atoms: N_20  and  N_21
REMARK    4  A    between atoms: C_22  and  C_23
REMARK                            x       y       z     vdW  Elec       q    Type
REMARK                         _______ _______ _______ _____ _____    ______ ____
ROOT
ATOM      1  C   UNL     1      -3.729   1.420   0.033  0.00  0.00    +0.109 A 
ATOM      2  C   UNL     1      -2.452   0.871   0.018  0.00  0.00    +0.177 A 
ATOM      3  N   UNL     1      -2.573  -0.467   0.012  0.00  0.00    -0.124 NA
ATOM      4  N   UNL     1      -3.815  -0.798   0.017  0.00  0.00    -0.058 NA
ATOM      5  N   UNL     1      -4.597   0.365   0.027  0.00  0.00    -0.187 N 
ATOM      6  C   UNL     1      -5.994   0.433   0.034  0.00  0.00    +0.241 A 
ATOM      7  C   UNL     1      -6.908  -0.713   0.033  0.00  0.00    +0.206 A 
ATOM      8  N   UNL     1      -8.132  -0.261   0.042  0.00  0.00    -0.032 NA
ATOM      9  O   UNL     1      -8.072   1.155   0.050  0.00  0.00    -0.239 OA
ATOM     10  N   UNL     1      -6.705   1.525   0.050  0.00  0.00    -0.027 NA
ATOM     11  N   UNL     1      -6.535  -2.052   0.023  0.00  0.00    -0.337 N 
ATOM     12  H   UNL     1      -7.305  -2.838   0.022  0.00  0.00    +0.144 HD
ATOM     13  H   UNL     1      -5.470  -2.326   0.015  0.00  0.00    +0.144 HD
ENDROOT
BRANCH   1  17
ATOM     14  C   UNL     1      -4.730   5.547   0.079  0.00  0.00    +0.000 A 
ATOM     15  C   UNL     1      -3.736   5.070   0.915  0.00  0.00    +0.001 A 
ATOM     16  C   UNL     1      -3.406   3.731   0.905  0.00  0.00    +0.010 A 
ATOM     17  C   UNL     1      -4.077   2.856   0.049  0.00  0.00    +0.003 A 
ATOM     18  C   UNL     1      -5.075   3.344  -0.797  0.00  0.00    +0.010 A 
ATOM     19  C   UNL     1      -5.399   4.685  -0.772  0.00  0.00    +0.001 A 
ENDBRANCH   1  17
BRANCH   2  20
ATOM     20  C   UNL     1      -1.187   1.624   0.017  0.00  0.00    +0.286 C 
ATOM     21  O   UNL     1      -1.204   2.840   0.023  0.00  0.00    -0.267 OA
ATOM     22  N   UNL     1      -0.011   0.966   0.007  0.00  0.00    -0.202 N 
ATOM     23  H   UNL     1       0.004  -0.134   0.006  0.00  0.00    +0.178 HD
BRANCH  22  24
ATOM     24  N   UNL     1       1.193   1.683  -0.000  0.00  0.00    -0.187 NA
ATOM     25  C   UNL     1       2.328   1.048  -0.015  0.00  0.00    +0.146 C 
BRANCH  25  26
ATOM     26  C   UNL     1       3.588   1.798  -0.022  0.00  0.00    +0.047 A 
ATOM     27  C   UNL     1       4.858   1.313  -0.032  0.00  0.00    +0.041 A 
ATOM     28  C   UNL     1       5.968   2.248  -0.043  0.00  0.00    +0.004 A 
ATOM     29  C   UNL     1       7.358   1.971  -0.058  0.00  0.00    +0.010 A 
ATOM     30  C   UNL     1       8.267   2.981  -0.061  0.00  0.00    +0.001 A 
ATOM     31  C   UNL     1       7.873   4.313  -0.049  0.00  0.00    +0.001 A 
ATOM     32  C   UNL     1       6.528   4.626  -0.034  0.00  0.00    +0.016 A 
ATOM     33  C   UNL     1       5.594   3.612  -0.032  0.00  0.00    +0.021 A 
ATOM     34  S   UNL     1       3.821   3.566  -0.015  0.00  0.00    -0.086 S 
ATOM     35 BR   UNL     1       5.173  -0.552  -0.036  0.00  0.00    -0.048 Br
ENDBRANCH  25  26
ENDBRANCH  22  24
ENDBRANCH   2  20
TORSDOF 4
