REMARK  Name = ZINC23438422
REMARK  8 active torsions:
REMARK  status: ('A' for Active; 'I' for Inactive)
REMARK    1  A    between atoms: C_1  and  N_2
REMARK    2  A    between atoms: C_6  and  C_8
REMARK    3  A    between atoms: C_8  and  C_9
REMARK    4  A    between atoms: C_9  and  N_10
REMARK    5  A    between atoms: C_11  and  C_13
REMARK    6  A    between atoms: C_13  and  C_14
REMARK    7  A    between atoms: C_14  and  C_15
REMARK    8  A    between atoms: N_19  and  C_20
REMARK                            x       y       z     vdW  Elec       q    Type
REMARK                         _______ _______ _______ _____ _____    ______ ____
ROOT
ATOM      1  C   UNL     1       2.954   0.369   0.983  0.00  0.00    +0.025 A 
ATOM      2  C   UNL     1       4.124  -0.243   0.678  0.00  0.00    +0.030 A 
ATOM      3  C   UNL     1       4.535   0.231  -0.562  0.00  0.00    +0.016 A 
ATOM      4  C   UNL     1       3.582   1.129  -0.995  0.00  0.00    +0.064 A 
ATOM      5  N   UNL     1       2.618   1.209  -0.048  0.00  0.00    -0.312 N 
ATOM      6  C   UNL     1       3.758   1.787  -2.304  0.00  0.00    +0.041 A 
ATOM      7  C   UNL     1       3.006   2.880  -2.703  0.00  0.00    +0.013 A 
ATOM      8  C   UNL     1       3.240   3.453  -3.940  0.00  0.00    +0.001 A 
ATOM      9  C   UNL     1       4.221   2.935  -4.768  0.00  0.00    +0.004 A 
ATOM     10  C   UNL     1       4.971   1.841  -4.379  0.00  0.00    +0.046 A 
ATOM     11  C   UNL     1       4.748   1.248  -3.148  0.00  0.00    +0.130 A 
ATOM     12  O   UNL     1       5.448   0.150  -2.772  0.00  0.00    -0.487 OA
ATOM     13  C   UNL     1       5.751  -0.079  -1.394  0.00  0.00    +0.266 C 
ENDROOT
BRANCH   5  14
ATOM     14  C   UNL     1       1.474   2.018  -0.107  0.00  0.00    +0.047 A 
ATOM     15  C   UNL     1       0.214   1.437  -0.170  0.00  0.00    +0.027 A 
ATOM     16  C   UNL     1      -0.910   2.236  -0.234  0.00  0.00    +0.022 A 
ATOM     17  C   UNL     1      -0.783   3.614  -0.224  0.00  0.00    +0.041 A 
ATOM     18  C   UNL     1       0.471   4.195  -0.162  0.00  0.00    +0.022 A 
ATOM     19  C   UNL     1       1.599   3.400  -0.103  0.00  0.00    +0.027 A 
ATOM     20 CL   UNL     1      -2.200   4.615  -0.298  0.00  0.00    -0.084 Cl
ENDBRANCH   5  14
BRANCH   1  21
ATOM     21  C   UNL     1       2.154   0.158   2.243  0.00  0.00    +0.063 C 
BRANCH  21  22
ATOM     22  C   UNL     1       2.689   1.073   3.346  0.00  0.00    +0.102 C 
BRANCH  22  24
ATOM     23  N   UNL     1       2.184   1.566   5.717  0.00  0.00    -0.315 N 
ATOM     24  C   UNL     1       1.889   0.863   4.606  0.00  0.00    +0.213 C 
ATOM     25  O   UNL     1       0.980   0.060   4.620  0.00  0.00    -0.276 OA
ATOM     26  H   UNL     1       3.008   2.294   5.704  0.00  0.00    +0.149 HD
BRANCH  23  27
ATOM     27  C   UNL     1       1.406   1.361   6.941  0.00  0.00    +0.102 C 
BRANCH  27  28
ATOM     28  C   UNL     1       1.942   2.276   8.045  0.00  0.00    +0.003 C 
BRANCH  28  34
ATOM     29  C   UNL     1       2.933   3.572   9.971  0.00  0.00    -0.096 C 
ATOM     30  N   UNL     1       1.786   2.786  10.446  0.00  0.00    +0.380 N 
ATOM     31  C   UNL     1       0.726   3.667  10.981  0.00  0.00    -0.079 C 
ATOM     32  C   UNL     1      -0.601   2.948  10.628  0.00  0.00    -0.020 C 
ATOM     33  C   UNL     1      -0.274   2.355   9.232  0.00  0.00    -0.017 C 
ATOM     34  C   UNL     1       1.216   1.972   9.356  0.00  0.00    -0.068 C 
ATOM     35  H   UNL     1       2.161   2.127  11.242  0.00  0.00    -0.082 HD
ENDBRANCH  28  34
ENDBRANCH  27  28
ENDBRANCH  23  27
ENDBRANCH  22  24
ENDBRANCH  21  22
ENDBRANCH   1  21
TORSDOF 7
