REMARK  Name = ZINC09903093
REMARK  10 active torsions:
REMARK  status: ('A' for Active; 'I' for Inactive)
REMARK    1  A    between atoms: C_1  and  C_2
REMARK    2  A    between atoms: C_2  and  C_3
REMARK    3  A    between atoms: C_2  and  C_4
REMARK    4  A    between atoms: C_4  and  C_6
REMARK    5  A    between atoms: C_4  and  N_17
REMARK    6  A    between atoms: C_18  and  C_20
REMARK    7  A    between atoms: C_20  and  N_66
REMARK    8  A    between atoms: C_24  and  C_26
REMARK    9  A    between atoms: C_30  and  O_32
REMARK   10  A    between atoms: O_32  and  C_33
REMARK                            x       y       z     vdW  Elec       q    Type
REMARK                         _______ _______ _______ _____ _____    ______ ____
ROOT
ATOM      1  N   UNL     1      -1.426   5.794  -1.937  0.00  0.00    -0.310 N 
ATOM      2  C   UNL     1      -1.271   4.603  -1.325  0.00  0.00    +0.197 C 
ATOM      3  O   UNL     1      -0.317   4.412  -0.602  0.00  0.00    -0.278 OA
ATOM      4  H   UNL     1      -2.190   5.946  -2.515  0.00  0.00    +0.149 HD
ENDROOT
BRANCH   1   5
ATOM      5  C   UNL     1      -0.440   6.857  -1.730  0.00  0.00    +0.106 C 
BRANCH   5   6
ATOM      6  C   UNL     1      -0.457   7.795  -2.909  0.00  0.00    -0.023 A 
ATOM      7  C   UNL     1      -1.660   8.143  -3.495  0.00  0.00    +0.009 A 
ATOM      8  C   UNL     1      -1.684   9.009  -4.574  0.00  0.00    +0.050 A 
ATOM      9  C   UNL     1      -0.496   9.516  -5.074  0.00  0.00    +0.162 A 
ATOM     10  C   UNL     1       0.711   9.162  -4.489  0.00  0.00    +0.162 A 
ATOM     11  C   UNL     1       0.731   8.300  -3.405  0.00  0.00    +0.055 A 
ATOM     12  O   UNL     1       1.876   9.669  -4.988  0.00  0.00    -0.488 OA
ATOM     13  C   UNL     1       2.251   9.209  -6.288  0.00  0.00    +0.232 C 
ATOM     14  C   UNL     1       1.562  10.027  -7.369  0.00  0.00    +0.082 C 
ATOM     15  C   UNL     1       0.051   9.853  -7.353  0.00  0.00    +0.232 C 
ATOM     16  O   UNL     1      -0.505  10.366  -6.141  0.00  0.00    -0.488 OA
ENDBRANCH   5   6
BRANCH   5  18
ATOM     17  C   UNL     1      -0.769   6.680   0.741  0.00  0.00    +0.009 C 
ATOM     18  C   UNL     1      -0.787   7.633  -0.457  0.00  0.00    +0.008 C 
ATOM     19  C   UNL     1       0.243   8.743  -0.240  0.00  0.00    +0.009 C 
ENDBRANCH   5  18
ENDBRANCH   1   5
BRANCH   2  20
ATOM     20  C   UNL     1      -2.285   3.509  -1.538  0.00  0.00    +0.019 C 
BRANCH  20  25
ATOM     21  C   UNL     1      -2.145   2.750   0.765  0.00  0.00    -0.077 C 
ATOM     22  C   UNL     1      -2.659   1.500   1.503  0.00  0.00    -0.020 C 
ATOM     23  C   UNL     1      -2.801   0.414   0.412  0.00  0.00    -0.013 C 
ATOM     24  C   UNL     1      -2.912   1.247  -0.891  0.00  0.00    -0.037 C 
ATOM     25  N   UNL     1      -1.982   2.358  -0.635  0.00  0.00    +0.390 N 
ATOM     26  H   UNL     1      -1.017   2.047  -0.798  0.00  0.00    -0.080 HD
BRANCH  24  27
ATOM     27  C   UNL     1      -2.475   0.433  -2.082  0.00  0.00    -0.057 A 
ATOM     28  C   UNL     1      -1.133   0.171  -2.284  0.00  0.00    +0.002 A 
ATOM     29  C   UNL     1      -0.728  -0.575  -3.376  0.00  0.00    +0.004 A 
ATOM     30  C   UNL     1      -1.665  -1.060  -4.267  0.00  0.00    +0.045 A 
ATOM     31  C   UNL     1      -3.013  -0.799  -4.066  0.00  0.00    +0.120 A 
ATOM     32  C   UNL     1      -3.416  -0.055  -2.967  0.00  0.00    +0.047 A 
BRANCH  31  33
ATOM     33  O   UNL     1      -3.937  -1.276  -4.942  0.00  0.00    -0.495 OA
ATOM     34  C   UNL     1      -3.449  -2.038  -6.048  0.00  0.00    +0.277 C 
ENDBRANCH  31  33
ENDBRANCH  24  27
ENDBRANCH  20  25
ENDBRANCH   2  20
TORSDOF 7
