REMARK  Name = ZINC44024123
REMARK  4 active torsions:
REMARK  status: ('A' for Active; 'I' for Inactive)
REMARK    1  A    between atoms: C_1  and  O_2
REMARK    2  A    between atoms: O_2  and  C_3
REMARK    3  A    between atoms: C_6  and  N_9
REMARK    4  A    between atoms: C_13  and  C_14
REMARK                            x       y       z     vdW  Elec       q    Type
REMARK                         _______ _______ _______ _____ _____    ______ ____
ROOT
ATOM      1  N   UNL     1       1.744  -2.638   4.612  0.00  0.00    -0.224 N 
ATOM      2  C   UNL     1       2.042  -3.924   4.539  0.00  0.00    +0.263 C 
ATOM      3  O   UNL     1       1.647  -4.621   3.622  0.00  0.00    -0.269 OA
ATOM      4  C   UNL     1       2.878  -4.473   5.625  0.00  0.00    +0.078 C 
ATOM      5  C   UNL     1       3.335  -5.737   5.811  0.00  0.00    +0.032 C 
ATOM      6  S   UNL     1       3.124  -3.013   6.628  0.00  0.00    -0.061 S 
ATOM      7  C   UNL     1       2.189  -1.868   5.627  0.00  0.00    +0.125 C 
ATOM      8  S   UNL     1       1.919  -0.199   5.892  0.00  0.00    -0.027 S 
ENDROOT
BRANCH   5   9
ATOM      9  C   UNL     1       3.986  -6.104   7.074  0.00  0.00    +0.022 A 
ATOM     10  C   UNL     1       3.827  -5.298   8.209  0.00  0.00    +0.012 A 
ATOM     11  C   UNL     1       4.440  -5.648   9.392  0.00  0.00    +0.004 A 
ATOM     12  C   UNL     1       5.215  -6.794   9.467  0.00  0.00    +0.049 A 
ATOM     13  C   UNL     1       5.383  -7.602   8.355  0.00  0.00    +0.167 A 
ATOM     14  C   UNL     1       4.767  -7.267   7.153  0.00  0.00    +0.173 A 
ATOM     15  O   UNL     1       5.077  -8.213   6.223  0.00  0.00    -0.452 OA
ATOM     16  C   UNL     1       6.216  -8.916   6.755  0.00  0.00    +0.466 C 
ATOM     17  O   UNL     1       6.084  -8.760   8.177  0.00  0.00    -0.453 OA
ENDBRANCH   5   9
BRANCH   1  21
ATOM     18  C   UNL     1      -0.610  -0.918   1.629  0.00  0.00    +0.120 A 
ATOM     19  C   UNL     1       0.721  -0.550   1.760  0.00  0.00    +0.047 A 
ATOM     20  C   UNL     1       1.501  -1.119   2.748  0.00  0.00    +0.027 A 
ATOM     21  C   UNL     1       0.953  -2.059   3.609  0.00  0.00    +0.043 A 
ATOM     22  C   UNL     1      -0.380  -2.428   3.477  0.00  0.00    +0.027 A 
ATOM     23  C   UNL     1      -1.160  -1.854   2.492  0.00  0.00    +0.047 A 
BRANCH  18  25
ATOM     24  C   UNL     1      -0.746   0.599  -0.198  0.00  0.00    +0.277 C 
ATOM     25  O   UNL     1      -1.377  -0.357   0.656  0.00  0.00    -0.495 OA
ENDBRANCH  18  25
ENDBRANCH   1  21
TORSDOF 3
