REMARK  Name = ZINC23259675
REMARK  10 active torsions:
REMARK  status: ('A' for Active; 'I' for Inactive)
REMARK    1  A    between atoms: C_1  and  C_2
REMARK    2  A    between atoms: C_6  and  N_9
REMARK    3  A    between atoms: C_7  and  C_8
REMARK    4  A    between atoms: C_10  and  C_12
REMARK    5  A    between atoms: C_12  and  N_13
REMARK    6  A    between atoms: N_16  and  C_19
REMARK    7  A    between atoms: C_19  and  C_20
REMARK    8  A    between atoms: C_20  and  C_21
REMARK    9  A    between atoms: N_23  and  C_24
REMARK   10  A    between atoms: C_25  and  C_33
REMARK                            x       y       z     vdW  Elec       q    Type
REMARK                         _______ _______ _______ _____ _____    ______ ____
ROOT
ATOM      1  N   UNL     1      -4.860  12.049  -6.416  0.00  0.00    +0.387 N 
ATOM      2  C   UNL     1      -3.467  11.804  -6.814  0.00  0.00    -0.063 C 
ATOM      3  C   UNL     1      -3.087  10.362  -6.469  0.00  0.00    +0.066 C 
ATOM      4  N   UNL     1      -3.266  10.143  -5.027  0.00  0.00    -0.305 NA
ATOM      5  C   UNL     1      -4.659  10.388  -4.629  0.00  0.00    +0.066 C 
ATOM      6  C   UNL     1      -5.039  11.830  -4.974  0.00  0.00    -0.063 C 
ATOM      7  H   UNL     1      -5.498  11.330  -6.951  0.00  0.00    -0.081 HD
ENDROOT
BRANCH   1   8
ATOM      8  C   UNL     1      -5.287  13.401  -6.800  0.00  0.00    +0.019 C 
BRANCH   8  10
ATOM      9  N   UNL     1      -5.579  14.694  -8.889  0.00  0.00    -0.287 N 
ATOM     10  C   UNL     1      -5.336  13.505  -8.303  0.00  0.00    +0.201 C 
ATOM     11  O   UNL     1      -5.158  12.518  -8.985  0.00  0.00    -0.278 OA
ATOM     12  H   UNL     1      -5.669  15.602  -8.274  0.00  0.00    +0.155 HD
BRANCH   9  18
ATOM     13  C   UNL     1      -7.667  16.774 -12.824  0.00  0.00    +0.044 C 
ATOM     14  C   UNL     1      -6.720  15.773 -12.213  0.00  0.00    -0.046 A 
ATOM     15  C   UNL     1      -5.984  14.933 -13.028  0.00  0.00    +0.004 A 
ATOM     16  C   UNL     1      -5.114  14.013 -12.472  0.00  0.00    +0.002 A 
ATOM     17  C   UNL     1      -4.977  13.932 -11.100  0.00  0.00    +0.023 A 
ATOM     18  C   UNL     1      -5.715  14.774 -10.279  0.00  0.00    +0.036 A 
ATOM     19  C   UNL     1      -6.592  15.693 -10.841  0.00  0.00    -0.026 A 
ATOM     20  C   UNL     1      -7.399  16.605  -9.953  0.00  0.00    +0.046 C 
ENDBRANCH   9  18
ENDBRANCH   8  10
ENDBRANCH   1   8
BRANCH   4  21
ATOM     21  C   UNL     1      -2.839   8.791  -4.643  0.00  0.00    +0.093 C 
BRANCH  21  22
ATOM     22  C   UNL     1      -2.803   8.681  -3.117  0.00  0.00    +0.111 C 
BRANCH  22  23
ATOM     23  C   UNL     1      -2.365   7.294  -2.723  0.00  0.00    +0.219 C 
ATOM     24  O   UNL     1      -2.107   6.474  -3.579  0.00  0.00    -0.275 OA
ATOM     25  N   UNL     1      -2.260   6.965  -1.421  0.00  0.00    -0.279 N 
ATOM     26  H   UNL     1      -2.494   7.709  -0.645  0.00  0.00    +0.155 HD
BRANCH  25  27
ATOM     27  C   UNL     1      -1.857   5.687  -1.058  0.00  0.00    +0.090 A 
ATOM     28  C   UNL     1      -1.691   5.165   0.216  0.00  0.00    +0.084 A 
ATOM     29  C   UNL     1      -1.256   3.784   0.325  0.00  0.00    -0.018 A 
ATOM     30  C   UNL     1      -1.056   3.149  -0.851  0.00  0.00    -0.004 A 
ATOM     31  S   UNL     1      -1.439   4.358  -2.087  0.00  0.00    -0.077 S 
ATOM     32  C   UNL     1      -0.609   1.734  -1.049  0.00  0.00    +0.043 C 
ATOM     33  C   UNL     1      -0.047   1.214   0.282  0.00  0.00    +0.005 C 
ATOM     34  C   UNL     1      -1.030   1.559   1.405  0.00  0.00    +0.005 C 
ATOM     35  C   UNL     1      -1.030   3.068   1.651  0.00  0.00    +0.037 C 
BRANCH  28  36
ATOM     36  C   UNL     1      -1.941   5.959   1.382  0.00  0.00    +0.102 C 
ATOM     37  N   UNL     1      -2.139   6.589   2.306  0.00  0.00    -0.191 NA
ENDBRANCH  28  36
ENDBRANCH  25  27
ENDBRANCH  22  23
ENDBRANCH  21  22
ENDBRANCH   4  21
TORSDOF 8
