REMARK  Name = ZINC59331514
REMARK  8 active torsions:
REMARK  status: ('A' for Active; 'I' for Inactive)
REMARK    1  A    between atoms: C_1  and  C_2
REMARK    2  A    between atoms: C_2  and  O_3
REMARK    3  A    between atoms: O_3  and  C_4
REMARK    4  A    between atoms: N_13  and  C_14
REMARK    5  A    between atoms: C_14  and  N_16
REMARK    6  A    between atoms: C_17  and  C_19
REMARK    7  A    between atoms: C_28  and  O_29
REMARK    8  A    between atoms: O_29  and  C_30
REMARK                            x       y       z     vdW  Elec       q    Type
REMARK                         _______ _______ _______ _____ _____    ______ ____
ROOT
ATOM      1  N   UNL     1      -3.687  -9.966  -0.142  0.00  0.00    -0.262 N 
ATOM      2  C   UNL     1      -2.913 -11.068  -0.199  0.00  0.00    +0.253 C 
ATOM      3  O   UNL     1      -1.702 -10.961  -0.182  0.00  0.00    -0.270 OA
ATOM      4  H   UNL     1      -4.654 -10.052  -0.155  0.00  0.00    +0.157 HD
ENDROOT
BRANCH   2   5
ATOM      5  C   UNL     1      -3.534 -12.403  -0.283  0.00  0.00    +0.080 A 
ATOM      6  C   UNL     1      -4.915 -12.520  -0.308  0.00  0.00    +0.025 A 
ATOM      7  C   UNL     1      -5.500 -13.791  -0.388  0.00  0.00    -0.016 A 
ATOM      8  C   UNL     1      -6.898 -13.946  -0.415  0.00  0.00    +0.008 A 
ATOM      9  C   UNL     1      -7.436 -15.193  -0.494  0.00  0.00    +0.001 A 
ATOM     10  C   UNL     1      -6.622 -16.324  -0.546  0.00  0.00    +0.001 A 
ATOM     11  C   UNL     1      -5.266 -16.213  -0.521  0.00  0.00    +0.010 A 
ATOM     12  C   UNL     1      -4.671 -14.942  -0.442  0.00  0.00    -0.000 A 
ATOM     13  C   UNL     1      -3.274 -14.797  -0.414  0.00  0.00    +0.068 A 
ATOM     14  C   UNL     1      -2.719 -13.553  -0.343  0.00  0.00    +0.147 A 
ATOM     15 BR   UNL     1      -2.163 -16.326  -0.486  0.00  0.00    -0.046 Br
BRANCH  14  16
ATOM     16  O   UNL     1      -1.368 -13.420  -0.323  0.00  0.00    -0.493 OA
ATOM     17  C   UNL     1      -0.734 -13.431   0.958  0.00  0.00    +0.277 C 
ENDBRANCH  14  16
ENDBRANCH   2   5
BRANCH   1  18
ATOM     18  C   UNL     1      -3.120  -8.746  -0.066  0.00  0.00    +0.163 C 
ATOM     19  S   UNL     1      -1.415  -8.596  -0.042  0.00  0.00    -0.016 S 
BRANCH  18  29
ATOM     20  C   UNL     1      -3.646  -3.547  -4.750  0.00  0.00    +0.122 A 
ATOM     21  C   UNL     1      -2.671  -4.491  -5.047  0.00  0.00    +0.048 A 
ATOM     22  C   UNL     1      -2.438  -5.559  -4.214  0.00  0.00    +0.030 A 
ATOM     23  C   UNL     1      -3.180  -5.730  -3.032  0.00  0.00    +0.055 A 
ATOM     24  C   UNL     1      -4.157  -4.761  -2.759  0.00  0.00    +0.042 A 
ATOM     25  C   UNL     1      -4.389  -3.689  -3.587  0.00  0.00    +0.062 A 
ATOM     26  S   UNL     1      -4.861  -5.309  -1.223  0.00  0.00    -0.052 S 
ATOM     27  C   UNL     1      -3.860  -6.770  -0.999  0.00  0.00    +0.163 A 
ATOM     28  N   UNL     1      -3.058  -6.748  -2.101  0.00  0.00    -0.335 N 
ATOM     29  N   UNL     1      -3.888  -7.654  -0.009  0.00  0.00    -0.169 NA
ATOM     30  H   UNL     1      -2.400  -7.448  -2.234  0.00  0.00    +0.168 HD
BRANCH  20  31
ATOM     31  O   UNL     1      -3.865  -2.496  -5.585  0.00  0.00    -0.492 OA
BRANCH  31  33
ATOM     32  C   UNL     1      -3.446  -1.183  -7.570  0.00  0.00    +0.048 C 
ATOM     33  C   UNL     1      -3.058  -2.423  -6.762  0.00  0.00    +0.225 C 
ENDBRANCH  31  33
ENDBRANCH  20  31
ENDBRANCH  18  29
ENDBRANCH   1  18
TORSDOF 6
