REMARK  Name = ZINC35913869
REMARK  9 active torsions:
REMARK  status: ('A' for Active; 'I' for Inactive)
REMARK    1  A    between atoms: C_1  and  C_2
REMARK    2  A    between atoms: C_4  and  O_9
REMARK    3  A    between atoms: O_9  and  C_10
REMARK    4  A    between atoms: C_10  and  C_12
REMARK    5  A    between atoms: C_10  and  C_30
REMARK    6  A    between atoms: C_12  and  C_13
REMARK    7  A    between atoms: C_13  and  N_14
REMARK    8  A    between atoms: N_17  and  C_20
REMARK    9  A    between atoms: C_20  and  C_21
REMARK                            x       y       z     vdW  Elec       q    Type
REMARK                         _______ _______ _______ _____ _____    ______ ____
ROOT
ATOM      1  C   UNL     1       0.976  -4.663  -3.516  0.00  0.00    +0.031 C 
ENDROOT
BRANCH   1   2
ATOM      2  C   UNL     1       0.158  -4.171  -2.320  0.00  0.00    +0.205 C 
BRANCH   2   3
ATOM      3  C   UNL     1      -1.209  -4.803  -2.352  0.00  0.00    +0.028 A 
ATOM      4  C   UNL     1      -2.267  -4.133  -2.938  0.00  0.00    +0.010 A 
ATOM      5  C   UNL     1      -3.522  -4.713  -2.968  0.00  0.00    +0.001 A 
ATOM      6  C   UNL     1      -3.720  -5.963  -2.412  0.00  0.00    +0.003 A 
ATOM      7  C   UNL     1      -2.664  -6.635  -1.826  0.00  0.00    +0.039 A 
ATOM      8  C   UNL     1      -1.405  -6.057  -1.800  0.00  0.00    +0.130 A 
ATOM      9  F   UNL     1      -0.371  -6.715  -1.232  0.00  0.00    -0.205 F 
ENDBRANCH   2   3
BRANCH   2  10
ATOM     10  O   UNL     1       0.028  -2.749  -2.386  0.00  0.00    -0.484 OA
BRANCH  10  14
ATOM     11  C   UNL     1      -0.483   1.460   0.032  0.00  0.00    +0.045 C 
ATOM     12  C   UNL     1      -0.455  -0.047   0.002  0.00  0.00    -0.029 A 
ATOM     13  C   UNL     1      -0.225  -0.709  -1.188  0.00  0.00    +0.050 A 
ATOM     14  C   UNL     1      -0.198  -2.096  -1.216  0.00  0.00    +0.122 A 
ATOM     15  C   UNL     1      -0.403  -2.815  -0.047  0.00  0.00    +0.047 A 
ATOM     16  C   UNL     1      -0.633  -2.149   1.141  0.00  0.00    +0.024 A 
ATOM     17  C   UNL     1      -0.653  -0.765   1.167  0.00  0.00    +0.044 A 
ATOM     18 CL   UNL     1      -0.935   0.070   2.663  0.00  0.00    -0.083 Cl
ENDBRANCH  10  14
ENDBRANCH   2  10
ENDBRANCH   1   2
BRANCH   1  19
ATOM     19  C   UNL     1       2.403  -4.121  -3.416  0.00  0.00    -0.075 C 
BRANCH  19  20
ATOM     20  N   UNL     1       3.188  -4.594  -4.564  0.00  0.00    +0.381 N 
ATOM     21  C   UNL     1       2.639  -4.023  -5.801  0.00  0.00    -0.063 C 
ATOM     22  C   UNL     1       3.445  -4.530  -6.999  0.00  0.00    +0.066 C 
ATOM     23  N   UNL     1       4.853  -4.138  -6.840  0.00  0.00    -0.302 NA
ATOM     24  C   UNL     1       5.409  -4.682  -5.593  0.00  0.00    +0.066 C 
ATOM     25  C   UNL     1       4.587  -4.173  -4.407  0.00  0.00    -0.063 C 
ATOM     26  H   UNL     1       3.143  -5.601  -4.610  0.00  0.00    -0.082 HD
BRANCH  23  27
ATOM     27  C   UNL     1       5.650  -4.558  -8.000  0.00  0.00    +0.119 C 
BRANCH  27  28
ATOM     28  C   UNL     1       7.019  -3.933  -7.921  0.00  0.00    -0.030 A 
ATOM     29  C   UNL     1       7.247  -2.697  -8.497  0.00  0.00    +0.009 A 
ATOM     30  C   UNL     1       8.501  -2.119  -8.428  0.00  0.00    +0.050 A 
ATOM     31  C   UNL     1       9.533  -2.778  -7.780  0.00  0.00    +0.166 A 
ATOM     32  C   UNL     1       9.304  -4.023  -7.200  0.00  0.00    +0.167 A 
ATOM     33  C   UNL     1       8.043  -4.594  -7.269  0.00  0.00    +0.054 A 
ATOM     34  O   UNL     1      10.465  -4.460  -6.630  0.00  0.00    -0.453 OA
ATOM     35  C   UNL     1      11.507  -3.659  -7.220  0.00  0.00    +0.466 C 
ATOM     36  O   UNL     1      10.838  -2.434  -7.574  0.00  0.00    -0.453 OA
ENDBRANCH  27  28
ENDBRANCH  23  27
ENDBRANCH  19  20
ENDBRANCH   1  19
TORSDOF 8
