REMARK  Name = ZINC20849662
REMARK  4 active torsions:
REMARK  status: ('A' for Active; 'I' for Inactive)
REMARK    1  A    between atoms: C_3  and  C_8
REMARK    2  A    between atoms: C_8  and  S_9
REMARK    3  A    between atoms: S_9  and  C_10
REMARK    4  A    between atoms: C_15  and  C_25
REMARK                            x       y       z     vdW  Elec       q    Type
REMARK                         _______ _______ _______ _____ _____    ______ ____
ROOT
ATOM      1  C   UNL     1      -4.054   1.546  -3.189  0.00  0.00    +0.211 A 
ATOM      2  N   UNL     1      -4.838   2.239  -2.351  0.00  0.00    -0.187 NA
ATOM      3  C   UNL     1      -4.391   2.115  -1.132  0.00  0.00    +0.219 A 
ATOM      4  N   UNL     1      -3.287   1.329  -1.166  0.00  0.00    -0.220 N 
ATOM      5  N   UNL     1      -3.092   0.972  -2.500  0.00  0.00    -0.141 NA
ATOM      6  C   UNL     1      -2.514   0.979   0.019  0.00  0.00    +0.175 C 
ATOM      7  C   UNL     1      -3.298   1.318   1.268  0.00  0.00    +0.041 C 
ATOM      8  C   UNL     1      -4.398   2.100   1.234  0.00  0.00    +0.020 C 
ATOM      9  N   UNL     1      -4.871   2.634   0.059  0.00  0.00    -0.287 N 
ATOM     10  C   UNL     1      -5.165   2.416   2.497  0.00  0.00    +0.052 C 
ATOM     11  C   UNL     1      -4.206   2.440   3.689  0.00  0.00    +0.014 C 
ATOM     12  C   UNL     1      -3.521   1.073   3.785  0.00  0.00    +0.080 C 
ATOM     13  C   UNL     1      -2.831   0.782   2.481  0.00  0.00    +0.163 C 
ATOM     14  O   UNL     1      -1.848   0.067   2.476  0.00  0.00    -0.292 OA
ATOM     15  H   UNL     1      -5.608   3.450   0.045  0.00  0.00    +0.155 HD
ENDROOT
BRANCH   6  16
ATOM     16  C   UNL     1      -1.219   1.751   0.017  0.00  0.00    -0.018 A 
ATOM     17  C   UNL     1      -0.013   1.076   0.008  0.00  0.00    +0.007 A 
ATOM     18  C   UNL     1       1.175   1.783   0.000  0.00  0.00    +0.015 A 
ATOM     19  C   UNL     1       1.156   3.166   0.008  0.00  0.00    +0.018 A 
ATOM     20  C   UNL     1      -0.051   3.841   0.022  0.00  0.00    +0.015 A 
ATOM     21  C   UNL     1      -1.238   3.133   0.030  0.00  0.00    +0.007 A 
ATOM     22 BR   UNL     1       2.780   4.134  -0.003  0.00  0.00    -0.050 Br
ENDBRANCH   6  16
BRANCH   1  23
ATOM     23  S   UNL     1      -4.277   1.422  -4.933  0.00  0.00    -0.080 S 
BRANCH  23  24
ATOM     24  C   UNL     1      -5.755   2.423  -5.258  0.00  0.00    +0.112 C 
BRANCH  24  27
ATOM     25  C   UNL     1      -7.172   1.405  -8.607  0.00  0.00    +0.003 A 
ATOM     26  C   UNL     1      -6.890   1.425  -7.253  0.00  0.00    +0.004 A 
ATOM     27  C   UNL     1      -6.061   2.402  -6.733  0.00  0.00    -0.034 A 
ATOM     28  C   UNL     1      -5.518   3.362  -7.566  0.00  0.00    +0.042 A 
ATOM     29  C   UNL     1      -5.795   3.340  -8.922  0.00  0.00    +0.124 A 
ATOM     30  C   UNL     1      -6.626   2.361  -9.441  0.00  0.00    +0.038 A 
ATOM     31  F   UNL     1      -5.260   4.275  -9.737  0.00  0.00    -0.205 F 
ENDBRANCH  24  27
ENDBRANCH  23  24
ENDBRANCH   1  23
TORSDOF 4
