REMARK  Name = ZINC10061294
REMARK  8 active torsions:
REMARK  status: ('A' for Active; 'I' for Inactive)
REMARK    1  A    between atoms: C_1  and  C_2
REMARK    2  A    between atoms: C_2  and  O_3
REMARK    3  A    between atoms: O_3  and  C_4
REMARK    4  A    between atoms: C_7  and  C_9
REMARK    5  A    between atoms: C_13  and  N_14
REMARK    6  A    between atoms: C_15  and  C_17
REMARK    7  A    between atoms: C_17  and  C_18
REMARK    8  A    between atoms: C_25  and  C_29
REMARK                            x       y       z     vdW  Elec       q    Type
REMARK                         _______ _______ _______ _____ _____    ______ ____
ROOT
ATOM      1  C   UNL     1       2.166   0.884  -3.672  0.00  0.00    +0.069 A 
ATOM      2  C   UNL     1       1.339   1.061  -2.490  0.00  0.00    -0.023 A 
ATOM      3  C   UNL     1       2.009   1.379  -1.361  0.00  0.00    -0.004 A 
ATOM      4  S   UNL     1       3.710   1.446  -1.848  0.00  0.00    -0.077 S 
ATOM      5  C   UNL     1       3.537   1.057  -3.527  0.00  0.00    +0.084 A 
ATOM      6  C   UNL     1       1.427   1.620  -0.003  0.00  0.00    +0.046 C 
ATOM      7  C   UNL     1      -0.013   1.086   0.008  0.00  0.00    -0.009 C 
ATOM      8  C   UNL     1      -0.738   1.596  -1.241  0.00  0.00    +0.008 C 
ATOM      9  C   UNL     1      -0.177   0.907  -2.486  0.00  0.00    +0.037 C 
ATOM     10  C   UNL     1      -0.734   1.582   1.262  0.00  0.00    +0.008 C 
ENDROOT
BRANCH   1  14
ATOM     11  C   UNL     1       0.646   1.192  -7.006  0.00  0.00    +0.407 C 
ATOM     12  O   UNL     1       0.506   0.026  -7.316  0.00  0.00    -0.226 OA
ATOM     13  N   UNL     1       1.189   1.511  -5.814  0.00  0.00    -0.217 N 
ATOM     14  C   UNL     1       1.576   0.537  -4.967  0.00  0.00    +0.255 C 
ATOM     15  O   UNL     1       1.436  -0.631  -5.279  0.00  0.00    -0.270 OA
ATOM     16  H   UNL     1       1.301   2.442  -5.566  0.00  0.00    +0.161 HD
BRANCH  11  17
ATOM     17  O   UNL     1       0.260   2.165  -7.851  0.00  0.00    -0.450 OA
BRANCH  17  19
ATOM     18  C   UNL     1      -0.693   2.983  -9.938  0.00  0.00    +0.048 C 
ATOM     19  C   UNL     1      -0.317   1.748  -9.117  0.00  0.00    +0.230 C 
ENDBRANCH  17  19
ENDBRANCH  11  17
ENDBRANCH   1  14
BRANCH   5  20
ATOM     20  N   UNL     1       4.525   0.945  -4.492  0.00  0.00    -0.279 N 
ATOM     21  C   UNL     1       5.816   1.151  -4.162  0.00  0.00    +0.222 C 
ATOM     22  O   UNL     1       6.112   1.434  -3.021  0.00  0.00    -0.275 OA
ATOM     23  H   UNL     1       4.288   0.719  -5.405  0.00  0.00    +0.155 HD
BRANCH  21  24
ATOM     24  C   UNL     1       6.891   1.030  -5.211  0.00  0.00    +0.138 C 
BRANCH  24  25
ATOM     25  C   UNL     1       8.234   1.306  -4.588  0.00  0.00    -0.000 A 
ATOM     26  C   UNL     1       9.101   0.440  -4.009  0.00  0.00    +0.013 A 
ATOM     27  C   UNL     1      10.291   0.922  -3.498  0.00  0.00    +0.028 A 
ATOM     28  C   UNL     1      10.556   2.249  -3.591  0.00  0.00    +0.078 A 
ATOM     29  S   UNL     1       9.101   2.858  -4.428  0.00  0.00    -0.081 S 
ATOM     30 CL   UNL     1      11.951   3.127  -3.045  0.00  0.00    -0.076 Cl
ENDBRANCH  24  25
ENDBRANCH  21  24
ENDBRANCH   5  20
TORSDOF 6
