REMARK  Name = ZINC27606364
REMARK  6 active torsions:
REMARK  status: ('A' for Active; 'I' for Inactive)
REMARK    1  A    between atoms: C_4  and  N_7
REMARK    2  A    between atoms: C_8  and  C_14
REMARK    3  A    between atoms: N_16  and  C_17
REMARK    4  A    between atoms: C_17  and  C_18
REMARK    5  A    between atoms: C_18  and  C_20
REMARK    6  A    between atoms: C_18  and  N_25
REMARK                            x       y       z     vdW  Elec       q    Type
REMARK                         _______ _______ _______ _____ _____    ______ ____
ROOT
ATOM      1  C   UNL     1       2.723  -3.109  -0.162  0.00  0.00    +0.262 C 
ATOM      2  O   UNL     1       1.554  -2.781  -0.251  0.00  0.00    -0.269 OA
ATOM      3  N   UNL     1       3.044  -4.382   0.142  0.00  0.00    -0.311 N 
ATOM      4  H   UNL     1       3.975  -4.644   0.213  0.00  0.00    +0.149 HD
ENDROOT
BRANCH   1   6
ATOM      5  N   UNL     1       3.601  -0.761  -0.668  0.00  0.00    -0.284 N 
ATOM      6  C   UNL     1       3.781  -2.119  -0.386  0.00  0.00    +0.127 A 
ATOM      7  C   UNL     1       5.113  -2.349  -0.358  0.00  0.00    +0.116 A 
ATOM      8  N   UNL     1       5.750  -1.165  -0.616  0.00  0.00    -0.339 N 
ATOM      9  H   UNL     1       6.710  -1.037  -0.658  0.00  0.00    +0.167 HD
ATOM     10  C   UNL     1       4.822  -0.208  -0.809  0.00  0.00    +0.163 A 
ATOM     11  S   UNL     1       5.140   1.435  -1.167  0.00  0.00    -0.013 S 
BRANCH   5  15
ATOM     12  C   UNL     1      -0.051   1.213  -1.029  0.00  0.00    +0.000 A 
ATOM     13  C   UNL     1       0.557   0.677  -2.149  0.00  0.00    +0.002 A 
ATOM     14  C   UNL     1       1.768   0.022  -2.033  0.00  0.00    +0.026 A 
ATOM     15  C   UNL     1       2.374  -0.098  -0.790  0.00  0.00    +0.049 A 
ATOM     16  C   UNL     1       1.761   0.442   0.334  0.00  0.00    +0.026 A 
ATOM     17  C   UNL     1       0.550   1.095   0.211  0.00  0.00    +0.002 A 
ENDBRANCH   5  15
ENDBRANCH   1   6
BRANCH   3  18
ATOM     18  C   UNL     1       1.986  -5.371   0.366  0.00  0.00    +0.094 C 
BRANCH  18  19
ATOM     19  C   UNL     1       2.614  -6.706   0.771  0.00  0.00    -0.013 C 
BRANCH  19  20
ATOM     20  N   UNL     1       1.553  -7.658   1.127  0.00  0.00    +0.386 N 
ATOM     21  C   UNL     1       0.762  -7.122   2.255  0.00  0.00    -0.078 C 
ATOM     22  C   UNL     1       0.399  -8.362   3.109  0.00  0.00    -0.020 C 
ATOM     23  C   UNL     1       1.690  -9.213   2.989  0.00  0.00    -0.020 C 
ATOM     24  C   UNL     1       2.155  -8.938   1.543  0.00  0.00    -0.078 C 
ATOM     25  H   UNL     1       0.950  -7.809   0.333  0.00  0.00    -0.081 HD
ENDBRANCH  19  20
BRANCH  19  26
ATOM     26  C   UNL     1       3.415  -7.255  -0.382  0.00  0.00    -0.022 A 
ATOM     27  C   UNL     1       4.754  -7.216  -0.586  0.00  0.00    +0.009 A 
ATOM     28  C   UNL     1       5.275  -7.793  -1.729  0.00  0.00    +0.008 A 
ATOM     29  C   UNL     1       4.431  -8.379  -2.613  0.00  0.00    +0.045 A 
ATOM     30  S   UNL     1       2.846  -8.131  -1.829  0.00  0.00    -0.103 S 
ENDBRANCH  19  26
ENDBRANCH  18  19
ENDBRANCH   3  18
TORSDOF 6
