REMARK  Name = ZINC09222160
REMARK  3 active torsions:
REMARK  status: ('A' for Active; 'I' for Inactive)
REMARK    1  A    between atoms: C_2  and  C_24
REMARK    2  A    between atoms: C_10  and  C_13
REMARK    3  A    between atoms: C_19  and  C_21
REMARK                            x       y       z     vdW  Elec       q    Type
REMARK                         _______ _______ _______ _____ _____    ______ ____
ROOT
ATOM      1  C   UNL     1       2.238   1.100   0.782  0.00  0.00    +0.037 A 
ATOM      2  C   UNL     1       2.358  -0.013  -0.041  0.00  0.00    +0.072 A 
ATOM      3  C   UNL     1       1.279  -0.409  -0.804  0.00  0.00    +0.096 A 
ATOM      4  C   UNL     1      -0.016   1.319   0.009  0.00  0.00    +0.117 A 
ATOM      5  C   UNL     1       1.031   1.776   0.806  0.00  0.00    +0.079 A 
ATOM      6 CL   UNL     1       0.825   3.173   1.815  0.00  0.00    -0.080 Cl
ATOM      7  N   UNL     1      -1.233   1.992   0.019  0.00  0.00    -0.315 N 
ATOM      8  C   UNL     1      -1.279   3.011  -1.038  0.00  0.00    +0.107 C 
ATOM      9  C   UNL     1      -2.568   3.826  -0.906  0.00  0.00    +0.032 C 
ATOM     10  C   UNL     1      -3.773   2.889  -1.022  0.00  0.00    +0.078 C 
ATOM     11  C   UNL     1      -3.675   1.809   0.059  0.00  0.00    +0.032 C 
ATOM     12  C   UNL     1      -2.355   1.052  -0.101  0.00  0.00    +0.107 C 
ATOM     13  N   UNL     1       0.079   0.230  -0.806  0.00  0.00    -0.348 N 
ATOM     14  H   UNL     1      -0.708  -0.088  -1.385  0.00  0.00    +0.167 HD
ENDROOT
BRANCH  10  15
ATOM     15  C   UNL     1      -5.043   3.677  -0.833  0.00  0.00    +0.222 C 
ATOM     16  O   UNL     1      -5.798   3.403   0.076  0.00  0.00    -0.275 OA
ATOM     17  N   UNL     1      -5.342   4.687  -1.675  0.00  0.00    -0.263 N 
ATOM     18  C   UNL     1      -6.514   5.414  -1.500  0.00  0.00    +0.188 A 
ATOM     19  N   UNL     1      -7.460   5.281  -0.586  0.00  0.00    -0.126 NA
ATOM     20  N   UNL     1      -8.476   6.030  -0.564  0.00  0.00    -0.144 NA
ATOM     21  C   UNL     1      -8.629   6.982  -1.463  0.00  0.00    +0.107 A 
ATOM     22  S   UNL     1      -7.135   6.753  -2.421  0.00  0.00    -0.035 S 
ATOM     23  H   UNL     1      -4.739   4.906  -2.402  0.00  0.00    +0.157 HD
BRANCH  21  24
ATOM     24  C   UNL     1      -9.742   7.984  -1.631  0.00  0.00    +0.047 C 
ATOM     25  C   UNL     1     -10.790   8.069  -0.520  0.00  0.00    +0.011 C 
ATOM     26  C   UNL     1     -11.152   7.440  -1.868  0.00  0.00    +0.011 C 
ENDBRANCH  21  24
ENDBRANCH  10  15
BRANCH   2  27
ATOM     27  C   UNL     1       3.654  -0.780  -0.099  0.00  0.00    +0.419 C 
ATOM     28  F   UNL     1       3.524  -1.849  -0.992  0.00  0.00    -0.166 F 
ATOM     29  F   UNL     1       4.679   0.068  -0.533  0.00  0.00    -0.166 F 
ATOM     30  F   UNL     1       3.963  -1.271   1.174  0.00  0.00    -0.166 F 
ENDBRANCH   2  27
TORSDOF 3
