REMARK  Name = ZINC17083997
REMARK  10 active torsions:
REMARK  status: ('A' for Active; 'I' for Inactive)
REMARK    1  A    between atoms: C_1  and  C_2
REMARK    2  A    between atoms: C_2  and  C_3
REMARK    3  A    between atoms: C_2  and  C_4
REMARK    4  A    between atoms: C_7  and  O_11
REMARK    5  A    between atoms: O_11  and  C_12
REMARK    6  A    between atoms: C_12  and  C_13
REMARK    7  A    between atoms: C_13  and  O_15
REMARK    8  A    between atoms: O_15  and  N_16
REMARK    9  A    between atoms: C_17  and  C_18
REMARK   10  A    between atoms: C_18  and  C_19
REMARK                            x       y       z     vdW  Elec       q    Type
REMARK                         _______ _______ _______ _____ _____    ______ ____
ROOT
ATOM      1  O   UNL     1      -2.872   1.454   3.521  0.00  0.00    -0.312 OA
ENDROOT
BRANCH   1   2
ATOM      2  N   UNL     1      -2.426   1.497   2.388  0.00  0.00    -0.064 NA
ATOM      3  C   UNL     1      -3.065   0.925   1.420  0.00  0.00    +0.137 C 
ATOM      4  N   UNL     1      -4.248   0.269   1.669  0.00  0.00    -0.344 N 
ATOM      5  H   UNL     1      -4.727  -0.159   0.943  0.00  0.00    +0.144 HD
ATOM      6  H   UNL     1      -4.603   0.235   2.571  0.00  0.00    +0.144 HD
BRANCH   3   7
ATOM      7  C   UNL     1      -2.514   0.979   0.019  0.00  0.00    +0.111 C 
BRANCH   7   8
ATOM      8  C   UNL     1      -1.219   1.750   0.017  0.00  0.00    -0.022 A 
ATOM      9  C   UNL     1      -0.013   1.076   0.008  0.00  0.00    +0.007 A 
ATOM     10  C   UNL     1       1.175   1.783   0.000  0.00  0.00    +0.020 A 
ATOM     11  C   UNL     1       1.157   3.166   0.008  0.00  0.00    +0.042 A 
ATOM     12  C   UNL     1      -0.050   3.842   0.023  0.00  0.00    +0.040 A 
ATOM     13  C   UNL     1      -1.238   3.134   0.031  0.00  0.00    +0.046 A 
ATOM     14 CL   UNL     1      -2.754   3.981   0.049  0.00  0.00    -0.083 Cl
ATOM     15 CL   UNL     1       2.648   4.054  -0.001  0.00  0.00    -0.083 Cl
ENDBRANCH   7   8
ENDBRANCH   3   7
ENDBRANCH   1   2
BRANCH   1  16
ATOM     16  C   UNL     1      -2.161   2.066   4.479  0.00  0.00    +0.373 C 
ATOM     17  O   UNL     1      -1.125   2.629   4.198  0.00  0.00    -0.244 OA
BRANCH  16  18
ATOM     18  C   UNL     1      -2.650   2.054   5.904  0.00  0.00    +0.351 C 
BRANCH  18  19
ATOM     19  O   UNL     1      -1.727   2.767   6.730  0.00  0.00    -0.480 OA
BRANCH  19  23
ATOM     20  C   UNL     1      -2.621   3.022  10.750  0.00  0.00    -0.044 A 
ATOM     21  C   UNL     1      -3.473   2.348   9.895  0.00  0.00    +0.007 A 
ATOM     22  C   UNL     1      -3.175   2.261   8.549  0.00  0.00    +0.047 A 
ATOM     23  C   UNL     1      -2.022   2.852   8.055  0.00  0.00    +0.135 A 
ATOM     24  C   UNL     1      -1.166   3.524   8.916  0.00  0.00    +0.060 A 
ATOM     25  C   UNL     1      -1.471   3.613  10.261  0.00  0.00    +0.022 A 
ATOM     26 BR   UNL     1       0.412   4.325   8.248  0.00  0.00    -0.047 Br
BRANCH  20  28
ATOM     27  C   UNL     1      -1.826   2.468  13.033  0.00  0.00    +0.012 C 
ATOM     28  C   UNL     1      -2.948   3.115  12.219  0.00  0.00    +0.013 C 
ATOM     29  C   UNL     1      -3.087   4.585  12.619  0.00  0.00    +0.012 C 
ENDBRANCH  20  28
ENDBRANCH  19  23
ENDBRANCH  18  19
ENDBRANCH  16  18
ENDBRANCH   1  16
TORSDOF 8
