REMARK  Name = ZINC01150218
REMARK  5 active torsions:
REMARK  status: ('A' for Active; 'I' for Inactive)
REMARK    1  A    between atoms: C_1  and  O_2
REMARK    2  A    between atoms: O_2  and  C_3
REMARK    3  A    between atoms: C_3  and  C_5
REMARK    4  A    between atoms: C_12  and  C_21
REMARK    5  A    between atoms: C_24  and  N_27
REMARK                            x       y       z     vdW  Elec       q    Type
REMARK                         _______ _______ _______ _____ _____    ______ ____
ROOT
ATOM      1  C   UNL     1      -5.561   3.645  -1.973  0.00  0.00    +0.080 A 
ATOM      2  C   UNL     1      -6.902   4.028  -1.903  0.00  0.00    +0.017 A 
ATOM      3  C   UNL     1      -7.346   4.756  -0.822  0.00  0.00    +0.001 A 
ATOM      4  C   UNL     1      -6.470   5.108   0.189  0.00  0.00    +0.006 A 
ATOM      5  C   UNL     1      -5.134   4.739   0.138  0.00  0.00    -0.019 A 
ATOM      6  C   UNL     1      -4.672   4.004  -0.941  0.00  0.00    +0.045 A 
ATOM      7  N   UNL     1      -3.352   3.598  -1.049  0.00  0.00    -0.336 N 
ATOM      8  C   UNL     1      -2.439   4.481  -0.322  0.00  0.00    +0.105 C 
ATOM      9  C   UNL     1      -2.842   4.526   1.154  0.00  0.00    +0.029 C 
ATOM     10  C   UNL     1      -4.245   5.161   1.270  0.00  0.00    +0.049 C 
ATOM     11  C   UNL     1      -3.982   6.648   1.212  0.00  0.00    -0.023 C 
ATOM     12  C   UNL     1      -2.738   6.908   1.526  0.00  0.00    -0.030 C 
ATOM     13  C   UNL     1      -1.992   5.628   1.847  0.00  0.00    +0.033 C 
ATOM     14  H   UNL     1      -3.078   3.512  -2.016  0.00  0.00    +0.147 HD
ENDROOT
BRANCH   8  15
ATOM     15  C   UNL     1      -1.031   3.959  -0.442  0.00  0.00    -0.027 A 
ATOM     16  C   UNL     1      -0.790   2.599  -0.377  0.00  0.00    +0.008 A 
ATOM     17  C   UNL     1       0.502   2.120  -0.483  0.00  0.00    +0.033 A 
ATOM     18  C   UNL     1       1.553   2.999  -0.664  0.00  0.00    +0.126 A 
ATOM     19  C   UNL     1       1.312   4.359  -0.735  0.00  0.00    +0.033 A 
ATOM     20  C   UNL     1       0.020   4.838  -0.624  0.00  0.00    +0.008 A 
BRANCH  18  21
ATOM     21  N   UNL     1       2.936   2.486  -0.784  0.00  0.00    +0.056 N 
ATOM     22  O   UNL     1       3.148   1.288  -0.722  0.00  0.00    -0.126 OA
ATOM     23  O   UNL     1       3.861   3.261  -0.944  0.00  0.00    -0.126 OA
ENDBRANCH  18  21
ENDBRANCH   8  15
BRANCH   1  24
ATOM     24  C   UNL     1      -5.077   2.865  -3.124  0.00  0.00    +0.341 C 
ATOM     25  O   UNL     1      -3.943   2.428  -3.128  0.00  0.00    -0.245 OA
BRANCH  24  27
ATOM     26  C   UNL     1      -5.347   1.859  -5.273  0.00  0.00    +0.280 C 
ATOM     27  O   UNL     1      -5.891   2.635  -4.173  0.00  0.00    -0.464 OA
ENDBRANCH  24  27
ENDBRANCH   1  24
TORSDOF 4
