REMARK  Name = ZINC37573052
REMARK  9 active torsions:
REMARK  status: ('A' for Active; 'I' for Inactive)
REMARK    1  A    between atoms: C_1  and  C_2
REMARK    2  A    between atoms: C_2  and  N_3
REMARK    3  A    between atoms: C_7  and  C_9
REMARK    4  A    between atoms: C_9  and  N_10
REMARK    5  A    between atoms: N_10  and  S_11
REMARK    6  A    between atoms: S_11  and  C_14
REMARK    7  A    between atoms: C_17  and  C_20
REMARK    8  A    between atoms: C_20  and  N_21
REMARK    9  A    between atoms: N_21  and  C_22
REMARK                            x       y       z     vdW  Elec       q    Type
REMARK                         _______ _______ _______ _____ _____    ______ ____
ROOT
ATOM      1  S   UNL     1      -2.706  -2.877   0.807  0.00  0.00    +0.058 S 
ATOM      2  O   UNL     1      -3.933  -2.204   0.566  0.00  0.00    -0.153 OA
ATOM      3  O   UNL     1      -2.568  -4.285   0.667  0.00  0.00    -0.153 OA
ENDROOT
BRANCH   1   4
ATOM      4  C   UNL     1      -2.235  -2.488   2.460  0.00  0.00    +0.105 A 
ATOM      5  C   UNL     1      -1.389  -3.333   3.155  0.00  0.00    +0.029 A 
ATOM      6  C   UNL     1      -1.020  -3.027   4.451  0.00  0.00    +0.003 A 
ATOM      7  C   UNL     1      -1.495  -1.877   5.053  0.00  0.00    -0.064 A 
ATOM      8  C   UNL     1      -2.340  -1.032   4.358  0.00  0.00    +0.003 A 
ATOM      9  C   UNL     1      -2.706  -1.335   3.060  0.00  0.00    +0.029 A 
BRANCH   7  10
ATOM     10  C   UNL     1      -1.093  -1.544   6.467  0.00  0.00    -0.047 C 
BRANCH  10  11
ATOM     11  N   UNL     1       0.132  -0.735   6.450  0.00  0.00    +0.380 N 
ATOM     12  C   UNL     1       0.524  -0.411   7.828  0.00  0.00    -0.100 C 
ATOM     13  H   UNL     1       0.873  -1.255   6.003  0.00  0.00    -0.086 HD
ATOM     14  H   UNL     1      -0.035   0.119   5.938  0.00  0.00    -0.086 HD
ENDBRANCH  10  11
ENDBRANCH   7  10
ENDBRANCH   1   4
BRANCH   1  15
ATOM     15  N   UNL     1      -1.583  -2.190  -0.197  0.00  0.00    -0.191 NA
ATOM     16  H   UNL     1      -1.845  -1.480  -0.804  0.00  0.00    +0.148 HD
BRANCH  15  17
ATOM     17  C   UNL     1      -0.193  -2.653  -0.168  0.00  0.00    +0.090 C 
BRANCH  17  22
ATOM     18  N   UNL     1       1.940  -2.603  -1.392  0.00  0.00    +0.382 N 
ATOM     19  C   UNL     1       2.200  -3.514  -2.527  0.00  0.00    -0.078 C 
ATOM     20  C   UNL     1       1.118  -3.158  -3.577  0.00  0.00    -0.020 C 
ATOM     21  C   UNL     1      -0.108  -2.861  -2.674  0.00  0.00    -0.016 C 
ATOM     22  C   UNL     1       0.525  -2.190  -1.437  0.00  0.00    -0.053 C 
ATOM     23  H   UNL     1       2.533  -1.791  -1.468  0.00  0.00    -0.081 HD
BRANCH  18  25
ATOM     24  C   UNL     1       3.702  -3.634  -0.039  0.00  0.00    -0.017 C 
ATOM     25  C   UNL     1       2.211  -3.299  -0.127  0.00  0.00    -0.082 C 
ENDBRANCH  18  25
ENDBRANCH  17  22
ENDBRANCH  15  17
ENDBRANCH   1  15
TORSDOF 7
