REMARK  Name = ZINC38011139
REMARK  6 active torsions:
REMARK  status: ('A' for Active; 'I' for Inactive)
REMARK    1  A    between atoms: C_1  and  C_2
REMARK    2  A    between atoms: C_3  and  C_8
REMARK    3  A    between atoms: C_8  and  N_9
REMARK    4  A    between atoms: N_9  and  C_10
REMARK    5  A    between atoms: C_10  and  C_12
REMARK    6  A    between atoms: C_10  and  C_13
REMARK                            x       y       z     vdW  Elec       q    Type
REMARK                         _______ _______ _______ _____ _____    ______ ____
ROOT
ATOM      1  C   UNL     1       1.336   0.522  -4.356  0.00  0.00    -0.007 C 
ATOM      2  C   UNL     1       0.975  -0.645  -5.277  0.00  0.00    -0.006 C 
ENDROOT
BRANCH   1   3
ATOM      3  C   UNL     1       2.700   1.049  -4.723  0.00  0.00    +0.092 A 
ATOM      4  C   UNL     1       2.925   2.142  -5.465  0.00  0.00    +0.051 A 
ATOM      5  C   UNL     1       4.383   2.275  -5.566  0.00  0.00    +0.021 A 
ATOM      6  C   UNL     1       5.238   3.184  -6.187  0.00  0.00    +0.027 A 
ATOM      7  C   UNL     1       6.602   3.015  -6.084  0.00  0.00    +0.019 A 
ATOM      8  C   UNL     1       7.123   1.947  -5.366  0.00  0.00    +0.019 A 
ATOM      9  C   UNL     1       6.287   1.042  -4.747  0.00  0.00    +0.048 A 
ATOM     10  C   UNL     1       4.910   1.194  -4.839  0.00  0.00    +0.135 A 
ATOM     11  O   UNL     1       3.866   0.494  -4.350  0.00  0.00    -0.461 OA
ATOM     12 BR   UNL     1       7.769   4.244  -6.924  0.00  0.00    -0.050 Br
ENDBRANCH   1   3
BRANCH   1  13
ATOM     13  N   UNL     1       1.350   0.059  -2.961  0.00  0.00    +0.388 N 
ATOM     14  H   UNL     1       1.668   0.806  -2.362  0.00  0.00    -0.084 HD
ATOM     15  H   UNL     1       1.974  -0.730  -2.875  0.00  0.00    -0.084 HD
BRANCH  13  16
ATOM     16  C   UNL     1      -0.006  -0.343  -2.566  0.00  0.00    -0.042 C 
BRANCH  16  19
ATOM     17  C   UNL     1      -0.018   1.503   0.010  0.00  0.00    +0.068 C 
ATOM     18  C   UNL     1       0.002  -0.004   0.002  0.00  0.00    +0.061 A 
ATOM     19  C   UNL     1       0.008  -0.818  -1.135  0.00  0.00    -0.024 A 
ATOM     20  C   UNL     1       0.028  -2.107  -0.725  0.00  0.00    +0.106 A 
ATOM     21  N   UNL     1       0.034  -2.109   0.625  0.00  0.00    -0.284 N 
ATOM     22  H   UNL     1       0.048  -2.894   1.194  0.00  0.00    +0.188 HD
ATOM     23  N   UNL     1       0.023  -0.777   1.058  0.00  0.00    -0.179 NA
ENDBRANCH  16  19
ENDBRANCH  13  16
ENDBRANCH   1  13
TORSDOF 4
