REMARK  Name = ZINC39140859
REMARK  10 active torsions:
REMARK  status: ('A' for Active; 'I' for Inactive)
REMARK    1  A    between atoms: C_1  and  C_2
REMARK    2  A    between atoms: C_4  and  C_16
REMARK    3  A    between atoms: C_6  and  C_14
REMARK    4  A    between atoms: C_7  and  N_13
REMARK    5  A    between atoms: C_19  and  O_34
REMARK    6  A    between atoms: C_20  and  C_22
REMARK    7  A    between atoms: C_22  and  O_23
REMARK    8  A    between atoms: O_23  and  C_24
REMARK    9  A    between atoms: C_28  and  C_30
REMARK   10  A    between atoms: O_34  and  C_35
REMARK                            x       y       z     vdW  Elec       q    Type
REMARK                         _______ _______ _______ _____ _____    ______ ____
ROOT
ATOM      1  C   UNL     1      -3.212  -0.572  -1.199  0.00  0.00    -0.034 A 
ATOM      2  C   UNL     1      -3.176  -1.750  -1.923  0.00  0.00    +0.008 A 
ATOM      3  C   UNL     1      -3.795  -1.824  -3.155  0.00  0.00    +0.046 A 
ATOM      4  C   UNL     1      -4.454  -0.715  -3.667  0.00  0.00    +0.126 A 
ATOM      5  C   UNL     1      -4.490   0.465  -2.939  0.00  0.00    +0.032 A 
ATOM      6  C   UNL     1      -3.873   0.533  -1.704  0.00  0.00    +0.015 A 
ENDROOT
BRANCH   1  10
ATOM      7  C   UNL     1      -0.018   1.503   0.010  0.00  0.00    +0.067 C 
ATOM      8  C   UNL     1       0.002  -0.004   0.002  0.00  0.00    +0.066 C 
ATOM      9  C   UNL     1      -1.064  -0.768   0.003  0.00  0.00    +0.030 C 
ATOM     10  C   UNL     1      -2.536  -0.493   0.145  0.00  0.00    +0.098 C 
ATOM     11  C   UNL     1      -3.065  -1.577   1.066  0.00  0.00    +0.097 C 
ATOM     12  C   UNL     1      -2.303  -2.628   1.436  0.00  0.00    +0.195 C 
ATOM     13  O   UNL     1      -1.023  -2.853   1.091  0.00  0.00    -0.448 OA
ATOM     14  C   UNL     1      -0.529  -2.198  -0.081  0.00  0.00    +0.343 C 
ATOM     15  N   UNL     1       0.921  -1.985  -0.028  0.00  0.00    -0.138 NA
ATOM     16  N   UNL     1       1.127  -0.765  -0.013  0.00  0.00    -0.155 NA
BRANCH  12  17
ATOM     17  N   UNL     1      -2.896  -3.562   2.247  0.00  0.00    -0.329 N 
ATOM     18  H   UNL     1      -3.818  -3.448   2.526  0.00  0.00    +0.145 HD
ATOM     19  H   UNL     1      -2.393  -4.337   2.542  0.00  0.00    +0.145 HD
ENDBRANCH  12  17
BRANCH  11  20
ATOM     20  C   UNL     1      -4.407  -1.482   1.556  0.00  0.00    +0.101 C 
ATOM     21  N   UNL     1      -5.472  -1.407   1.944  0.00  0.00    -0.191 NA
ENDBRANCH  11  20
ENDBRANCH   1  10
BRANCH   4  22
ATOM     22  O   UNL     1      -5.064  -0.786  -4.880  0.00  0.00    -0.495 OA
ATOM     23  C   UNL     1      -4.987  -2.033  -5.573  0.00  0.00    +0.277 C 
ENDBRANCH   4  22
BRANCH   5  24
ATOM     24  C   UNL     1      -5.205   1.671  -3.492  0.00  0.00    +0.268 C 
BRANCH  24  25
ATOM     25  O   UNL     1      -5.101   2.753  -2.565  0.00  0.00    -0.487 OA
BRANCH  25  26
ATOM     26  C   UNL     1      -5.696   3.924  -2.913  0.00  0.00    +0.122 A 
ATOM     27  C   UNL     1      -6.372   4.027  -4.121  0.00  0.00    +0.046 A 
ATOM     28  C   UNL     1      -6.977   5.218  -4.473  0.00  0.00    +0.004 A 
ATOM     29  C   UNL     1      -6.910   6.307  -3.623  0.00  0.00    +0.012 A 
ATOM     30  C   UNL     1      -6.237   6.206  -2.419  0.00  0.00    +0.058 A 
ATOM     31  C   UNL     1      -5.635   5.016  -2.060  0.00  0.00    +0.058 A 
BRANCH  30  32
ATOM     32  C   UNL     1      -6.165   7.395  -1.496  0.00  0.00    +0.418 C 
ATOM     33  F   UNL     1      -6.848   8.473  -2.069  0.00  0.00    -0.166 F 
ATOM     34  F   UNL     1      -6.754   7.069  -0.270  0.00  0.00    -0.166 F 
ATOM     35  F   UNL     1      -4.826   7.746  -1.291  0.00  0.00    -0.166 F 
ENDBRANCH  30  32
ENDBRANCH  25  26
ENDBRANCH  24  25
ENDBRANCH   5  24
TORSDOF 8
