REMARK  Name = ZINC35452970
REMARK  13 active torsions:
REMARK  status: ('A' for Active; 'I' for Inactive)
REMARK    1  A    between atoms: C_1  and  C_2
REMARK    2  A    between atoms: C_10  and  C_13
REMARK    3  A    between atoms: C_13  and  N_14
REMARK    4  A    between atoms: N_14  and  C_15
REMARK    5  A    between atoms: C_15  and  C_16
REMARK    6  A    between atoms: C_22  and  C_24
REMARK    7  A    between atoms: C_24  and  N_25
REMARK    8  A    between atoms: N_25  and  C_26
REMARK    9  A    between atoms: C_26  and  C_27
REMARK   10  A    between atoms: C_27  and  C_28
REMARK   11  A    between atoms: C_28  and  C_29
REMARK   12  A    between atoms: C_28  and  C_30
REMARK   13  A    between atoms: N_33  and  C_34
REMARK                            x       y       z     vdW  Elec       q    Type
REMARK                         _______ _______ _______ _____ _____    ______ ____
ROOT
ATOM      1  N   UNL     1       1.470  -5.418   4.104  0.00  0.00    -0.291 N 
ATOM      2  C   UNL     1       2.072  -6.477   3.527  0.00  0.00    +0.234 C 
ATOM      3  O   UNL     1       1.439  -7.214   2.802  0.00  0.00    -0.274 OA
ENDROOT
BRANCH   1   4
ATOM      4  C   UNL     1       0.028  -5.219   3.945  0.00  0.00    +0.150 C 
BRANCH   4  14
ATOM      5  C   UNL     1      -0.655   1.358   0.330  0.00  0.00    +0.044 C 
ATOM      6  C   UNL     1      -0.678  -0.148   0.361  0.00  0.00    -0.050 A 
ATOM      7  C   UNL     1      -0.953  -0.859  -0.798  0.00  0.00    +0.007 A 
ATOM      8  C   UNL     1      -0.978  -2.238  -0.790  0.00  0.00    +0.047 A 
ATOM      9  C   UNL     1      -0.726  -2.928   0.390  0.00  0.00    +0.138 A 
ATOM     10  C   UNL     1      -0.448  -2.207   1.562  0.00  0.00    +0.065 A 
ATOM     11  C   UNL     1      -0.420  -0.814   1.540  0.00  0.00    +0.018 A 
ATOM     12  C   UNL     1      -0.184  -2.963   2.802  0.00  0.00    +0.197 A 
ATOM     13  O   UNL     1       0.063  -2.395   3.852  0.00  0.00    -0.287 OA
ATOM     14  C   UNL     1      -0.231  -4.380   2.720  0.00  0.00    +0.052 A 
ATOM     15  C   UNL     1      -0.508  -4.969   1.542  0.00  0.00    +0.204 A 
ATOM     16  O   UNL     1      -0.746  -4.276   0.423  0.00  0.00    -0.462 OA
ENDBRANCH   4  14
ENDBRANCH   1   4
BRANCH   1  17
ATOM     17  C   UNL     1       2.259  -4.466   4.890  0.00  0.00    +0.143 C 
BRANCH  17  18
ATOM     18  C   UNL     1       2.173  -4.828   6.351  0.00  0.00    -0.030 A 
ATOM     19  C   UNL     1       1.096  -4.404   7.106  0.00  0.00    +0.005 A 
ATOM     20  C   UNL     1       1.018  -4.737   8.446  0.00  0.00    +0.000 A 
ATOM     21  C   UNL     1       2.016  -5.493   9.030  0.00  0.00    +0.000 A 
ATOM     22  C   UNL     1       3.093  -5.918   8.274  0.00  0.00    +0.000 A 
ATOM     23  C   UNL     1       3.169  -5.589   6.933  0.00  0.00    +0.005 A 
ENDBRANCH  17  18
ENDBRANCH   1  17
BRANCH   2  24
ATOM     24  C   UNL     1       3.533  -6.746   3.784  0.00  0.00    +0.205 C 
BRANCH  24  25
ATOM     25  N   UNL     1       3.921  -7.998   3.131  0.00  0.00    -0.277 N 
ATOM     26  C   UNL     1       3.822  -9.165   3.798  0.00  0.00    +0.303 C 
ATOM     27  O   UNL     1       3.409  -9.178   4.941  0.00  0.00    -0.253 OA
ATOM     28  N   UNL     1       4.179 -10.317   3.197  0.00  0.00    -0.296 N 
ATOM     29  H   UNL     1       4.508 -10.307   2.285  0.00  0.00    +0.151 HD
BRANCH  28  30
ATOM     30  C   UNL     1       4.070 -11.586   3.922  0.00  0.00    +0.074 C 
ATOM     31  C   UNL     1       5.331 -11.803   4.761  0.00  0.00    +0.022 C 
ATOM     32  C   UNL     1       5.218 -13.128   5.518  0.00  0.00    +0.002 C 
ATOM     33  C   UNL     1       5.067 -14.276   4.518  0.00  0.00    +0.000 C 
ATOM     34  C   UNL     1       3.806 -14.058   3.679  0.00  0.00    +0.002 C 
ATOM     35  C   UNL     1       3.919 -12.733   2.922  0.00  0.00    +0.022 C 
ENDBRANCH  28  30
BRANCH  25  36
ATOM     36  C   UNL     1       4.418  -7.982   1.753  0.00  0.00    +0.110 C 
BRANCH  36  37
ATOM     37  C   UNL     1       5.939  -7.813   1.761  0.00  0.00    +0.022 C 
BRANCH  37  38
ATOM     38  C   UNL     1       6.458  -7.797   0.322  0.00  0.00    -0.016 C 
ATOM     39  C   UNL     1       5.918  -6.561  -0.401  0.00  0.00    +0.007 C 
ATOM     40  C   UNL     1       7.988  -7.753   0.332  0.00  0.00    +0.007 C 
ENDBRANCH  37  38
ENDBRANCH  36  37
ENDBRANCH  25  36
ENDBRANCH  24  25
ENDBRANCH   2  24
TORSDOF 10
