REMARK  Name = ZINC12054536
REMARK  8 active torsions:
REMARK  status: ('A' for Active; 'I' for Inactive)
REMARK    1  A    between atoms: C_1  and  C_2
REMARK    2  A    between atoms: C_2  and  O_3
REMARK    3  A    between atoms: O_3  and  C_4
REMARK    4  A    between atoms: C_4  and  C_6
REMARK    5  A    between atoms: C_10  and  N_11
REMARK    6  A    between atoms: C_12  and  C_14
REMARK    7  A    between atoms: C_14  and  S_15
REMARK    8  A    between atoms: S_15  and  C_16
REMARK                            x       y       z     vdW  Elec       q    Type
REMARK                         _______ _______ _______ _____ _____    ______ ____
ROOT
ATOM      1  S   UNL     1       1.004   3.772  -0.406  0.00  0.00    -0.077 S 
ENDROOT
BRANCH   1   2
ATOM      2  C   UNL     1       1.105   2.028  -0.178  0.00  0.00    +0.191 A 
ATOM      3  N   UNL     1      -0.011   1.307  -0.165  0.00  0.00    -0.207 NA
ATOM      4  C   UNL     1       0.002  -0.004   0.002  0.00  0.00    +0.129 A 
ATOM      5  C   UNL     1       1.247  -0.671   0.174  0.00  0.00    +0.051 A 
ATOM      6  C   UNL     1       1.500  -2.100   0.374  0.00  0.00    -0.025 A 
ATOM      7  C   UNL     1       2.786  -2.481   0.512  0.00  0.00    -0.004 A 
ATOM      8  S   UNL     1       3.727  -0.983   0.388  0.00  0.00    -0.073 S 
ATOM      9  C   UNL     1       2.388   0.155   0.149  0.00  0.00    +0.115 A 
ATOM     10  N   UNL     1       2.293   1.460  -0.022  0.00  0.00    -0.214 NA
ATOM     11  C   UNL     1       3.304  -3.870   0.726  0.00  0.00    +0.043 C 
ATOM     12  C   UNL     1       2.128  -4.768   1.137  0.00  0.00    +0.005 C 
ATOM     13  C   UNL     1       0.961  -4.518   0.178  0.00  0.00    +0.005 C 
ATOM     14  C   UNL     1       0.373  -3.129   0.425  0.00  0.00    +0.037 C 
ATOM     15  N   UNL     1      -1.181  -0.720   0.009  0.00  0.00    -0.343 N 
ATOM     16  H   UNL     1      -1.994  -0.317  -0.337  0.00  0.00    +0.144 HD
ATOM     17  H   UNL     1      -1.200  -1.624   0.359  0.00  0.00    +0.144 HD
ENDBRANCH   1   2
BRANCH   1  18
ATOM     18  C   UNL     1      -0.789   3.967  -0.557  0.00  0.00    +0.173 C 
BRANCH  18  20
ATOM     19  N   UNL     1      -2.405   5.808  -0.903  0.00  0.00    -0.279 N 
ATOM     20  C   UNL     1      -1.121   5.422  -0.764  0.00  0.00    +0.228 C 
ATOM     21  O   UNL     1      -0.232   6.247  -0.806  0.00  0.00    -0.275 OA
ATOM     22  H   UNL     1      -3.115   5.148  -0.870  0.00  0.00    +0.155 HD
BRANCH  19  27
ATOM     23  C   UNL     1      -3.960   7.732  -1.262  0.00  0.00    +0.087 A 
ATOM     24  C   UNL     1      -3.986   9.165  -1.441  0.00  0.00    +0.024 A 
ATOM     25  C   UNL     1      -2.804   9.806  -1.439  0.00  0.00    +0.048 A 
ATOM     26  S   UNL     1      -1.626   8.493  -1.190  0.00  0.00    -0.081 S 
ATOM     27  C   UNL     1      -2.710   7.146  -1.095  0.00  0.00    +0.086 A 
BRANCH  23  28
ATOM     28  C   UNL     1      -5.189   6.936  -1.254  0.00  0.00    +0.342 C 
ATOM     29  O   UNL     1      -5.132   5.731  -1.098  0.00  0.00    -0.245 OA
BRANCH  28  30
ATOM     30  O   UNL     1      -6.384   7.539  -1.420  0.00  0.00    -0.461 OA
BRANCH  30  32
ATOM     31  C   UNL     1      -8.812   7.543  -1.603  0.00  0.00    +0.048 C 
ATOM     32  C   UNL     1      -7.560   6.687  -1.401  0.00  0.00    +0.229 C 
ENDBRANCH  30  32
ENDBRANCH  28  30
ENDBRANCH  23  28
ENDBRANCH  19  27
ENDBRANCH  18  20
ENDBRANCH   1  18
TORSDOF 7
