REMARK  Name = ZINC63770014
REMARK  10 active torsions:
REMARK  status: ('A' for Active; 'I' for Inactive)
REMARK    1  A    between atoms: C_1  and  C_2
REMARK    2  A    between atoms: C_2  and  C_3
REMARK    3  A    between atoms: C_2  and  C_19
REMARK    4  A    between atoms: C_3  and  N_4
REMARK    5  A    between atoms: C_5  and  C_7
REMARK    6  A    between atoms: C_9  and  S_15
REMARK    7  A    between atoms: C_12  and  O_13
REMARK    8  A    between atoms: O_13  and  C_14
REMARK    9  A    between atoms: S_15  and  N_18
REMARK   10  A    between atoms: C_19  and  N_20
REMARK                            x       y       z     vdW  Elec       q    Type
REMARK                         _______ _______ _______ _____ _____    ______ ____
ROOT
ATOM      1  N   UNL     1      -1.975  -0.182  -1.333  0.00  0.00    -0.311 N 
ATOM      2  C   UNL     1      -3.231  -0.600  -1.587  0.00  0.00    +0.248 C 
ATOM      3  O   UNL     1      -3.806  -1.317  -0.790  0.00  0.00    -0.270 OA
ATOM      4  H   UNL     1      -1.516   0.389  -1.968  0.00  0.00    +0.149 HD
ENDROOT
BRANCH   2   5
ATOM      5  C   UNL     1      -3.907  -0.189  -2.832  0.00  0.00    +0.080 A 
ATOM      6  C   UNL     1      -3.248   0.629  -3.752  0.00  0.00    +0.045 A 
ATOM      7  C   UNL     1      -3.885   1.009  -4.913  0.00  0.00    +0.106 A 
ATOM      8  C   UNL     1      -5.178   0.584  -5.173  0.00  0.00    +0.032 A 
ATOM      9  C   UNL     1      -5.841  -0.225  -4.271  0.00  0.00    +0.048 A 
ATOM     10  C   UNL     1      -5.213  -0.622  -3.100  0.00  0.00    +0.132 A 
BRANCH   7  11
ATOM     11  S   UNL     1      -3.053   2.042  -6.073  0.00  0.00    +0.056 S 
ATOM     12  O   UNL     1      -4.061   2.703  -6.825  0.00  0.00    -0.153 OA
ATOM     13  O   UNL     1      -2.057   2.748  -5.346  0.00  0.00    -0.153 OA
BRANCH  11  14
ATOM     14  N   UNL     1      -2.252   1.047  -7.128  0.00  0.00    -0.204 NA
ATOM     15  H   UNL     1      -2.105   1.329  -8.044  0.00  0.00    +0.144 HD
ATOM     16  H   UNL     1      -1.931   0.182  -6.829  0.00  0.00    +0.144 HD
ENDBRANCH  11  14
ENDBRANCH   7  11
BRANCH  10  17
ATOM     17  O   UNL     1      -5.861  -1.421  -2.216  0.00  0.00    -0.494 OA
ATOM     18  C   UNL     1      -7.190  -1.822  -2.557  0.00  0.00    +0.277 C 
ENDBRANCH  10  17
ENDBRANCH   2   5
BRANCH   1  19
ATOM     19  C   UNL     1      -1.303  -0.590  -0.097  0.00  0.00    +0.106 C 
BRANCH  19  21
ATOM     20  C   UNL     1      -0.005   1.541   0.026  0.00  0.00    +0.007 C 
ATOM     21  C   UNL     1       0.101   0.017  -0.055  0.00  0.00    -0.014 C 
BRANCH  21  22
ATOM     22  C   UNL     1       0.848  -0.509   1.173  0.00  0.00    -0.074 C 
BRANCH  22  23
ATOM     23  N   UNL     1       1.067  -1.955   1.031  0.00  0.00    +0.380 N 
ATOM     24  C   UNL     1       2.047  -2.220  -0.053  0.00  0.00    -0.079 C 
ATOM     25  C   UNL     1       2.581  -3.633   0.290  0.00  0.00    -0.020 C 
ATOM     26  C   UNL     1       2.649  -3.612   1.834  0.00  0.00    -0.020 C 
ATOM     27  C   UNL     1       1.671  -2.502   2.264  0.00  0.00    -0.079 C 
ATOM     28  H   UNL     1       0.195  -2.422   0.834  0.00  0.00    -0.082 HD
ENDBRANCH  22  23
ENDBRANCH  21  22
ENDBRANCH  19  21
ENDBRANCH   1  19
TORSDOF 8
