REMARK  Name = ZINC36609624
REMARK  11 active torsions:
REMARK  status: ('A' for Active; 'I' for Inactive)
REMARK    1  A    between atoms: C_1  and  C_2
REMARK    2  A    between atoms: C_2  and  C_3
REMARK    3  A    between atoms: C_2  and  C_4
REMARK    4  A    between atoms: C_2  and  N_5
REMARK    5  A    between atoms: C_6  and  C_8
REMARK    6  A    between atoms: C_8  and  C_10
REMARK    7  A    between atoms: C_8  and  N_20
REMARK    8  A    between atoms: C_12  and  N_17
REMARK    9  A    between atoms: N_20  and  C_21
REMARK   10  A    between atoms: C_27  and  C_29
REMARK   11  A    between atoms: C_30  and  C_31
REMARK                            x       y       z     vdW  Elec       q    Type
REMARK                         _______ _______ _______ _____ _____    ______ ____
ROOT
ATOM      1  C   UNL     1       2.673  -0.816  -2.218  0.00  0.00    +0.199 C 
ENDROOT
BRANCH   1   2
ATOM      2  C   UNL     1       1.530  -0.470  -3.138  0.00  0.00    +0.003 A 
ATOM      3  C   UNL     1       0.678   0.571  -2.821  0.00  0.00    +0.040 A 
ATOM      4  C   UNL     1      -0.370   0.888  -3.664  0.00  0.00    +0.127 A 
ATOM      5  C   UNL     1      -0.567   0.164  -4.825  0.00  0.00    +0.034 A 
ATOM      6  C   UNL     1       0.284  -0.877  -5.143  0.00  0.00    +0.022 A 
ATOM      7  C   UNL     1       1.337  -1.191  -4.303  0.00  0.00    +0.047 A 
ATOM      8 CL   UNL     1       2.411  -2.494  -4.705  0.00  0.00    -0.083 Cl
BRANCH   4   9
ATOM      9  N   UNL     1      -1.282   2.003  -3.324  0.00  0.00    +0.056 N 
ATOM     10  O   UNL     1      -1.110   2.636  -2.308  0.00  0.00    -0.126 OA
ATOM     11  O   UNL     1      -2.199   2.280  -4.061  0.00  0.00    -0.126 OA
ENDBRANCH   4   9
ENDBRANCH   1   2
BRANCH   1  13
ATOM     12  N   UNL     1       1.477  -0.699  -0.056  0.00  0.00    -0.309 N 
ATOM     13  C   UNL     1       2.432  -0.199  -0.864  0.00  0.00    +0.239 C 
ATOM     14  O   UNL     1       3.099   0.747  -0.502  0.00  0.00    -0.273 OA
ATOM     15  H   UNL     1       0.899  -1.412  -0.371  0.00  0.00    +0.149 HD
BRANCH  12  17
ATOM     16  C   UNL     1       0.987   1.326   1.224  0.00  0.00    +0.031 C 
ATOM     17  C   UNL     1       1.311  -0.167   1.299  0.00  0.00    +0.026 C 
ATOM     18  C   UNL     1       2.606  -0.370   2.088  0.00  0.00    +0.031 C 
ATOM     19  C   UNL     1       0.167  -0.903   1.999  0.00  0.00    +0.031 C 
ENDBRANCH  12  17
ENDBRANCH   1  13
BRANCH   1  20
ATOM     20  N   UNL     1       3.924  -0.296  -2.776  0.00  0.00    -0.245 N 
ATOM     21  C   UNL     1       4.974  -1.120  -2.958  0.00  0.00    +0.297 C 
ATOM     22  O   UNL     1       4.860  -2.311  -2.734  0.00  0.00    -0.260 OA
BRANCH  20  23
ATOM     23  C   UNL     1       4.027   1.055  -3.121  0.00  0.00    +0.038 A 
ATOM     24  C   UNL     1       4.806   1.911  -2.353  0.00  0.00    +0.023 A 
ATOM     25  C   UNL     1       4.907   3.245  -2.696  0.00  0.00    +0.002 A 
ATOM     26  C   UNL     1       4.232   3.729  -3.802  0.00  0.00    +0.000 A 
ATOM     27  C   UNL     1       3.455   2.880  -4.568  0.00  0.00    +0.002 A 
ATOM     28  C   UNL     1       3.355   1.543  -4.234  0.00  0.00    +0.023 A 
ENDBRANCH  20  23
BRANCH  21  29
ATOM     29  C   UNL     1       6.226  -0.594  -3.415  0.00  0.00    -0.002 C 
ATOM     30  C   UNL     1       7.252  -0.164  -3.789  0.00  0.00    -0.057 C 
BRANCH  30  31
ATOM     31  C   UNL     1       8.503   0.362  -4.245  0.00  0.00    +0.025 A 
ATOM     32  C   UNL     1       8.641   1.731  -4.498  0.00  0.00    +0.017 A 
ATOM     33  C   UNL     1       9.849   2.229  -4.937  0.00  0.00    +0.001 A 
ATOM     34  C   UNL     1      10.924   1.379  -5.128  0.00  0.00    +0.000 A 
ATOM     35  C   UNL     1      10.796   0.023  -4.880  0.00  0.00    +0.001 A 
ATOM     36  C   UNL     1       9.596  -0.490  -4.435  0.00  0.00    +0.017 A 
ENDBRANCH  30  31
ENDBRANCH  21  29
ENDBRANCH   1  20
TORSDOF 8
