REMARK  Name = ZINC39201171
REMARK  6 active torsions:
REMARK  status: ('A' for Active; 'I' for Inactive)
REMARK    1  A    between atoms: C_1  and  C_2
REMARK    2  A    between atoms: C_7  and  N_10
REMARK    3  A    between atoms: C_11  and  C_13
REMARK    4  A    between atoms: C_31  and  N_34
REMARK    5  A    between atoms: C_35  and  C_37
REMARK    6  A    between atoms: C_37  and  N_38
REMARK                            x       y       z     vdW  Elec       q    Type
REMARK                         _______ _______ _______ _____ _____    ______ ____
ROOT
ATOM      1  C   UNL     1       1.936  -4.254   4.128  0.00  0.00    +0.167 C 
ATOM      2  C   UNL     1       3.446  -4.310   3.848  0.00  0.00    +0.069 C 
ATOM      3  C   UNL     1       3.745  -5.487   2.955  0.00  0.00    -0.015 A 
ATOM      4  C   UNL     1       4.907  -5.689   2.111  0.00  0.00    +0.003 A 
ATOM      5  C   UNL     1       6.041  -4.911   1.864  0.00  0.00    +0.010 A 
ATOM      6  C   UNL     1       6.965  -5.424   0.986  0.00  0.00    +0.001 A 
ATOM      7  C   UNL     1       6.793  -6.652   0.370  0.00  0.00    +0.002 A 
ATOM      8  C   UNL     1       5.679  -7.442   0.597  0.00  0.00    +0.026 A 
ATOM      9  C   UNL     1       4.724  -6.947   1.483  0.00  0.00    +0.047 A 
ATOM     10  N   UNL     1       3.536  -7.453   1.924  0.00  0.00    -0.356 N 
ATOM     11  C   UNL     1       2.954  -6.574   2.799  0.00  0.00    +0.041 A 
ATOM     12  H   UNL     1       3.159  -8.306   1.659  0.00  0.00    +0.166 HD
ATOM     13  C   UNL     1       1.626  -6.741   3.495  0.00  0.00    +0.126 C 
ATOM     14  N   UNL     1       1.494  -5.621   4.451  0.00  0.00    -0.280 N 
ATOM     15  C   UNL     1       0.976  -6.044   5.613  0.00  0.00    +0.237 C 
ATOM     16  O   UNL     1       0.697  -5.326   6.550  0.00  0.00    -0.274 OA
ATOM     17  C   UNL     1       0.789  -7.546   5.588  0.00  0.00    +0.161 C 
ATOM     18  C   UNL     1       1.616  -8.021   4.349  0.00  0.00    +0.060 C 
ENDROOT
BRANCH   1  20
ATOM     19  N   UNL     1       1.471  -2.526   2.420  0.00  0.00    -0.311 N 
ATOM     20  C   UNL     1       1.207  -3.754   2.907  0.00  0.00    +0.234 C 
ATOM     21  O   UNL     1       0.382  -4.458   2.364  0.00  0.00    -0.274 OA
ATOM     22  H   UNL     1       2.131  -1.963   2.855  0.00  0.00    +0.149 HD
BRANCH  19  28
ATOM     23  C   UNL     1      -0.019   1.526   0.010  0.00  0.00    +0.007 C 
ATOM     24  C   UNL     1       0.002  -0.004   0.002  0.00  0.00    -0.012 C 
ATOM     25  C   UNL     1       0.718  -0.497  -1.257  0.00  0.00    +0.003 C 
ATOM     26  C   UNL     1       0.739  -2.027  -1.265  0.00  0.00    +0.002 C 
ATOM     27  C   UNL     1       1.479  -2.534  -0.026  0.00  0.00    +0.022 C 
ATOM     28  C   UNL     1       0.763  -2.041   1.233  0.00  0.00    +0.073 C 
ATOM     29  C   UNL     1       0.742  -0.511   1.242  0.00  0.00    +0.025 C 
ENDBRANCH  19  28
ENDBRANCH   1  20
BRANCH  17  30
ATOM     30  N   UNL     1      -0.625  -7.884   5.410  0.00  0.00    -0.305 N 
ATOM     31  C   UNL     1      -1.437  -7.971   6.482  0.00  0.00    +0.197 C 
ATOM     32  O   UNL     1      -0.997  -7.769   7.594  0.00  0.00    -0.278 OA
ATOM     33  H   UNL     1      -0.977  -8.045   4.521  0.00  0.00    +0.149 HD
BRANCH  31  34
ATOM     34  C   UNL     1      -2.892  -8.318   6.299  0.00  0.00    +0.019 C 
BRANCH  34  35
ATOM     35  N   UNL     1      -3.556  -8.350   7.609  0.00  0.00    +0.385 N 
ATOM     36  C   UNL     1      -3.635  -6.980   8.177  0.00  0.00    -0.078 C 
ATOM     37  C   UNL     1      -4.795  -7.085   9.198  0.00  0.00    -0.020 C 
ATOM     38  C   UNL     1      -5.796  -8.026   8.488  0.00  0.00    -0.020 C 
ATOM     39  C   UNL     1      -4.955  -8.806   7.461  0.00  0.00    -0.078 C 
ATOM     40  H   UNL     1      -3.056  -8.960   8.239  0.00  0.00    -0.081 HD
ENDBRANCH  34  35
ENDBRANCH  31  34
ENDBRANCH  17  30
TORSDOF 5
