REMARK  Name = ZINC38691086
REMARK  9 active torsions:
REMARK  status: ('A' for Active; 'I' for Inactive)
REMARK    1  A    between atoms: C_1  and  C_2
REMARK    2  A    between atoms: C_2  and  C_4
REMARK    3  A    between atoms: C_2  and  N_23
REMARK    4  A    between atoms: N_6  and  C_7
REMARK    5  A    between atoms: C_11  and  C_13
REMARK    6  A    between atoms: C_13  and  O_15
REMARK    7  A    between atoms: O_15  and  C_16
REMARK    8  A    between atoms: C_20  and  O_21
REMARK    9  A    between atoms: O_21  and  C_22
REMARK                            x       y       z     vdW  Elec       q    Type
REMARK                         _______ _______ _______ _____ _____    ______ ____
ROOT
ATOM      1  C   UNL     1      -0.197  -0.715   1.878  0.00  0.00    +0.203 C 
ATOM      2  O   UNL     1       0.718  -1.257   1.296  0.00  0.00    -0.277 OA
ATOM      3  N   UNL     1      -0.232  -0.714   3.225  0.00  0.00    -0.287 N 
ATOM      4  H   UNL     1      -0.988  -0.323   3.690  0.00  0.00    +0.155 HD
ENDROOT
BRANCH   3   5
ATOM      5  C   UNL     1       0.794  -1.263   3.934  0.00  0.00    +0.056 C 
ATOM      6  C   UNL     1       0.974  -1.227   5.301  0.00  0.00    +0.059 A 
ATOM      7  C   UNL     1       2.216  -1.947   5.638  0.00  0.00    +0.048 A 
ATOM      8  N   UNL     1       2.788  -2.411   4.544  0.00  0.00    -0.367 N 
ATOM      9  C   UNL     1       1.968  -2.043   3.385  0.00  0.00    +0.234 C 
ATOM     10  C   UNL     1       2.590  -2.030   7.001  0.00  0.00    +0.026 A 
ATOM     11  C   UNL     1       1.821  -1.460   7.962  0.00  0.00    +0.006 A 
ATOM     12  C   UNL     1       0.644  -0.775   7.674  0.00  0.00    +0.046 A 
ATOM     13  C   UNL     1       0.195  -0.638   6.391  0.00  0.00    +0.131 A 
ATOM     14  H   UNL     1       3.615  -2.917   4.511  0.00  0.00    +0.161 HD
BRANCH   9  15
ATOM     15  C   UNL     1       1.483  -3.281   2.675  0.00  0.00    +0.335 C 
ATOM     16  O   UNL     1       1.056  -4.214   3.312  0.00  0.00    -0.248 OA
BRANCH  15  17
ATOM     17  O   UNL     1       1.525  -3.346   1.335  0.00  0.00    -0.466 OA
ATOM     18  C   UNL     1       1.048  -4.549   0.729  0.00  0.00    +0.280 C 
ENDBRANCH  15  17
ENDBRANCH   9  15
BRANCH  13  19
ATOM     19  O   UNL     1      -0.954   0.033   6.132  0.00  0.00    -0.494 OA
ATOM     20  C   UNL     1      -1.655   0.578   7.252  0.00  0.00    +0.277 C 
ENDBRANCH  13  19
ENDBRANCH   3   5
BRANCH   1  22
ATOM     21  C   UNL     1      -1.347   1.442   1.463  0.00  0.00    -0.004 C 
ATOM     22  C   UNL     1      -1.295  -0.042   1.095  0.00  0.00    +0.017 C 
BRANCH  22  23
ATOM     23  N   UNL     1      -1.027  -0.181  -0.343  0.00  0.00    +0.390 N 
ATOM     24  C   UNL     1       0.177   0.586  -0.696  0.00  0.00    -0.073 C 
ATOM     25  C   UNL     1       0.613   0.188  -2.106  0.00  0.00    +0.017 C 
ATOM     26  C   UNL     1      -0.559   0.283  -3.048  0.00  0.00    -0.048 A 
ATOM     27  C   UNL     1      -0.316   0.303  -4.413  0.00  0.00    +0.004 A 
ATOM     28  C   UNL     1      -1.366   0.387  -5.306  0.00  0.00    +0.000 A 
ATOM     29  C   UNL     1      -2.665   0.450  -4.837  0.00  0.00    +0.000 A 
ATOM     30  C   UNL     1      -2.908   0.430  -3.479  0.00  0.00    +0.002 A 
ATOM     31  C   UNL     1      -1.854   0.349  -2.580  0.00  0.00    -0.061 A 
ATOM     32  C   UNL     1      -2.165   0.339  -1.106  0.00  0.00    -0.042 C 
ATOM     33  H   UNL     1      -0.886  -1.155  -0.567  0.00  0.00    -0.080 HD
ENDBRANCH  22  23
ENDBRANCH   1  22
TORSDOF 6
