REMARK  Name = ZINC07565294
REMARK  8 active torsions:
REMARK  status: ('A' for Active; 'I' for Inactive)
REMARK    1  A    between atoms: C_1  and  C_2
REMARK    2  A    between atoms: C_5  and  N_9
REMARK    3  A    between atoms: C_6  and  C_8
REMARK    4  A    between atoms: C_13  and  C_15
REMARK    5  A    between atoms: C_15  and  O_16
REMARK    6  A    between atoms: O_16  and  C_17
REMARK    7  A    between atoms: C_17  and  C_19
REMARK    8  A    between atoms: C_20  and  C_21
REMARK                            x       y       z     vdW  Elec       q    Type
REMARK                         _______ _______ _______ _____ _____    ______ ____
ROOT
ATOM      1  N   UNL     1       0.059  -4.170  -0.021  0.00  0.00    -0.269 N 
ATOM      2  C   UNL     1      -0.040  -4.839  -1.187  0.00  0.00    +0.310 C 
ATOM      3  O   UNL     1      -0.054  -4.229  -2.238  0.00  0.00    -0.252 OA
ATOM      4  N   UNL     1      -0.124  -6.184  -1.187  0.00  0.00    -0.237 N 
ATOM      5  C   UNL     1      -0.223  -6.853  -2.353  0.00  0.00    +0.258 C 
ATOM      6  O   UNL     1      -0.237  -6.244  -3.401  0.00  0.00    -0.272 OA
ATOM      7  H   UNL     1       0.135  -4.658   0.814  0.00  0.00    +0.156 HD
ATOM      8  H   UNL     1      -0.113  -6.671  -0.348  0.00  0.00    +0.159 HD
ENDROOT
BRANCH   1  13
ATOM      9  C   UNL     1       0.025   1.503   0.005  0.00  0.00    +0.044 C 
ATOM     10  C   UNL     1       0.034  -0.004  -0.002  0.00  0.00    -0.050 A 
ATOM     11  C   UNL     1       0.632  -0.685  -1.046  0.00  0.00    +0.005 A 
ATOM     12  C   UNL     1       0.641  -2.066  -1.055  0.00  0.00    +0.024 A 
ATOM     13  C   UNL     1       0.051  -2.771  -0.014  0.00  0.00    +0.038 A 
ATOM     14  C   UNL     1      -0.548  -2.083   1.033  0.00  0.00    -0.029 A 
ATOM     15  C   UNL     1      -0.551  -0.702   1.039  0.00  0.00    +0.008 A 
ATOM     16  C   UNL     1      -1.191  -2.843   2.165  0.00  0.00    +0.045 C 
ENDBRANCH   1  13
BRANCH   5  17
ATOM     17  C   UNL     1      -0.317  -8.357  -2.353  0.00  0.00    +0.328 C 
BRANCH  17  18
ATOM     18  O   UNL     1      -0.412  -8.828  -3.699  0.00  0.00    -0.452 OA
BRANCH  18  19
ATOM     19  C   UNL     1      -0.504 -10.162  -3.876  0.00  0.00    +0.332 C 
ATOM     20  O   UNL     1      -0.503 -10.905  -2.912  0.00  0.00    -0.246 OA
BRANCH  19  21
ATOM     21  C   UNL     1      -0.605 -10.716  -5.225  0.00  0.00    +0.092 C 
ATOM     22  C   UNL     1      -0.697 -12.051  -5.402  0.00  0.00    +0.015 C 
BRANCH  22  23
ATOM     23  C   UNL     1      -0.798 -12.607  -6.759  0.00  0.00    -0.025 A 
ATOM     24  C   UNL     1      -0.794 -11.756  -7.870  0.00  0.00    +0.011 A 
ATOM     25  C   UNL     1      -0.889 -12.284  -9.139  0.00  0.00    +0.039 A 
ATOM     26  C   UNL     1      -0.989 -13.656  -9.316  0.00  0.00    +0.123 A 
ATOM     27  C   UNL     1      -0.994 -14.505  -8.220  0.00  0.00    +0.039 A 
ATOM     28  C   UNL     1      -0.893 -13.991  -6.946  0.00  0.00    +0.011 A 
ATOM     29  F   UNL     1      -1.082 -14.168 -10.563  0.00  0.00    -0.205 F 
ENDBRANCH  22  23
ENDBRANCH  19  21
ENDBRANCH  18  19
ENDBRANCH  17  18
ENDBRANCH   5  17
TORSDOF 6
