REMARK  Name = ZINC10002445
REMARK  11 active torsions:
REMARK  status: ('A' for Active; 'I' for Inactive)
REMARK    1  A    between atoms: C_1  and  C_2
REMARK    2  A    between atoms: C_2  and  C_3
REMARK    3  A    between atoms: C_2  and  C_4
REMARK    4  A    between atoms: C_4  and  C_6
REMARK    5  A    between atoms: C_4  and  N_27
REMARK    6  A    between atoms: N_8  and  N_9
REMARK    7  A    between atoms: C_10  and  C_11
REMARK    8  A    between atoms: C_16  and  O_17
REMARK    9  A    between atoms: O_17  and  C_18
REMARK   10  A    between atoms: C_18  and  C_19
REMARK   11  A    between atoms: C_28  and  C_30
REMARK                            x       y       z     vdW  Elec       q    Type
REMARK                         _______ _______ _______ _____ _____    ______ ____
ROOT
ATOM      1  C   UNL     1       3.360  -4.975  -0.777  0.00  0.00    +0.253 C 
ATOM      2  O   UNL     1       4.088  -4.260  -1.433  0.00  0.00    -0.272 OA
ATOM      3  N   UNL     1       3.555  -6.308  -0.767  0.00  0.00    -0.205 N 
ATOM      4  H   UNL     1       2.930  -6.886  -0.302  0.00  0.00    +0.177 HD
ENDROOT
BRANCH   3   5
ATOM      5  N   UNL     1       4.660  -6.859  -1.429  0.00  0.00    -0.188 NA
ATOM      6  C   UNL     1       4.848  -8.143  -1.419  0.00  0.00    +0.142 C 
BRANCH   6   7
ATOM      7  C   UNL     1       6.010  -8.723  -2.116  0.00  0.00    +0.038 A 
ATOM      8  C   UNL     1       6.216 -10.104  -2.108  0.00  0.00    +0.033 A 
ATOM      9  C   UNL     1       7.307 -10.641  -2.763  0.00  0.00    +0.042 A 
ATOM     10  C   UNL     1       8.198  -9.814  -3.427  0.00  0.00    +0.023 A 
ATOM     11  C   UNL     1       8.004  -8.446  -3.442  0.00  0.00    +0.048 A 
ATOM     12  C   UNL     1       6.912  -7.892  -2.794  0.00  0.00    +0.130 A 
ATOM     13 CL   UNL     1       7.563 -12.358  -2.752  0.00  0.00    -0.084 Cl
BRANCH  12  14
ATOM     14  O   UNL     1       6.718  -6.547  -2.812  0.00  0.00    -0.487 OA
BRANCH  14  15
ATOM     15  C   UNL     1       7.678  -5.763  -3.524  0.00  0.00    +0.264 C 
BRANCH  15  16
ATOM     16  C   UNL     1       7.302  -4.307  -3.435  0.00  0.00    -0.009 A 
ATOM     17  C   UNL     1       7.781  -3.531  -2.396  0.00  0.00    +0.007 A 
ATOM     18  C   UNL     1       7.438  -2.195  -2.314  0.00  0.00    +0.002 A 
ATOM     19  C   UNL     1       6.613  -1.633  -3.271  0.00  0.00    +0.020 A 
ATOM     20  C   UNL     1       6.133  -2.409  -4.311  0.00  0.00    +0.041 A 
ATOM     21  C   UNL     1       6.482  -3.745  -4.395  0.00  0.00    +0.027 A 
ATOM     22 CL   UNL     1       5.098  -1.704  -5.513  0.00  0.00    -0.084 Cl
ENDBRANCH  15  16
ENDBRANCH  14  15
ENDBRANCH  12  14
ENDBRANCH   6   7
ENDBRANCH   3   5
BRANCH   1  23
ATOM     23  C   UNL     1       2.236  -4.372   0.027  0.00  0.00    +0.163 C 
BRANCH  23  24
ATOM     24  N   UNL     1       1.816  -3.112  -0.591  0.00  0.00    -0.300 N 
ATOM     25  C   UNL     1       0.565  -2.650  -0.394  0.00  0.00    +0.245 C 
ATOM     26  O   UNL     1      -0.214  -3.278   0.296  0.00  0.00    -0.270 OA
ATOM     27  H   UNL     1       2.437  -2.610  -1.141  0.00  0.00    +0.150 HD
BRANCH  25  28
ATOM     28  C   UNL     1       0.141  -1.379  -1.016  0.00  0.00    +0.037 A 
ATOM     29  C   UNL     1      -1.155  -0.898  -0.814  0.00  0.00    +0.016 A 
ATOM     30  C   UNL     1      -1.546   0.288  -1.398  0.00  0.00    +0.039 A 
ATOM     31  C   UNL     1      -0.655   1.003  -2.185  0.00  0.00    +0.123 A 
ATOM     32  C   UNL     1       0.632   0.530  -2.389  0.00  0.00    +0.039 A 
ATOM     33  C   UNL     1       1.033  -0.655  -1.810  0.00  0.00    +0.016 A 
ATOM     34  F   UNL     1      -1.044   2.165  -2.755  0.00  0.00    -0.205 F 
ENDBRANCH  25  28
ENDBRANCH  23  24
BRANCH  23  36
ATOM     35  C   UNL     1       1.563  -3.539   2.284  0.00  0.00    +0.009 C 
ATOM     36  C   UNL     1       2.717  -4.104   1.455  0.00  0.00    +0.012 C 
ATOM     37  C   UNL     1       3.204  -5.412   2.082  0.00  0.00    +0.009 C 
ENDBRANCH  23  36
ENDBRANCH   1  23
TORSDOF 9
