REMARK  Name = ZINC06474033
REMARK  5 active torsions:
REMARK  status: ('A' for Active; 'I' for Inactive)
REMARK    1  A    between atoms: C_4  and  C_7
REMARK    2  A    between atoms: C_12  and  S_28
REMARK    3  A    between atoms: C_20  and  C_25
REMARK    4  A    between atoms: S_28  and  C_29
REMARK    5  A    between atoms: C_34  and  N_35
REMARK                            x       y       z     vdW  Elec       q    Type
REMARK                         _______ _______ _______ _____ _____    ______ ____
ROOT
ATOM      1  C   UNL     1       1.279  -0.747  -0.045  0.00  0.00    +0.104 C 
ATOM      2  C   UNL     1       2.337  -0.035   0.774  0.00  0.00    +0.024 C 
ATOM      3  C   UNL     1       3.703  -0.697   0.893  0.00  0.00    +0.022 C 
ATOM      4  C   UNL     1       4.715   0.475   0.977  0.00  0.00    +0.070 C 
ATOM      5  C   UNL     1       3.889   1.780   0.797  0.00  0.00    +0.101 C 
ATOM      6  C   UNL     1       2.659   1.293   0.033  0.00  0.00    +0.045 C 
ATOM      7  C   UNL     1       1.435   2.138   0.091  0.00  0.00    -0.021 A 
ATOM      8  C   UNL     1       1.508   3.508   0.160  0.00  0.00    +0.021 A 
ATOM      9  C   UNL     1       0.336   4.270   0.194  0.00  0.00    +0.064 A 
ATOM     10  C   UNL     1      -0.906   3.629   0.156  0.00  0.00    +0.017 A 
ATOM     11  C   UNL     1      -0.974   2.268   0.096  0.00  0.00    +0.024 A 
ATOM     12  C   UNL     1       0.189   1.500   0.065  0.00  0.00    +0.031 A 
ATOM     13  N   UNL     1       0.077   0.111   0.014  0.00  0.00    -0.336 N 
ATOM     14 CL   UNL     1       3.424   2.469   2.397  0.00  0.00    -0.120 Cl
ATOM     15  H   UNL     1      -0.802  -0.298   0.018  0.00  0.00    +0.147 HD
ENDROOT
BRANCH   1  19
ATOM     16  C   UNL     1       2.586  -1.172  -4.090  0.00  0.00    +0.000 A 
ATOM     17  C   UNL     1       2.821  -2.184  -3.178  0.00  0.00    +0.000 A 
ATOM     18  C   UNL     1       2.398  -2.046  -1.869  0.00  0.00    +0.005 A 
ATOM     19  C   UNL     1       1.740  -0.897  -1.472  0.00  0.00    -0.027 A 
ATOM     20  C   UNL     1       1.500   0.112  -2.386  0.00  0.00    +0.005 A 
ATOM     21  C   UNL     1       1.927  -0.023  -3.694  0.00  0.00    +0.000 A 
ENDBRANCH   1  19
BRANCH   9  22
ATOM     22  C   UNL     1       0.410   5.740   0.268  0.00  0.00    +0.387 C 
ATOM     23  O   UNL     1       1.492   6.293   0.300  0.00  0.00    -0.241 OA
ATOM     24  O   UNL     1      -0.722   6.471   0.300  0.00  0.00    -0.241 OA
ENDBRANCH   9  22
BRANCH   4  25
ATOM     25  S   UNL     1       5.537   0.475   2.594  0.00  0.00    -0.118 S 
BRANCH  25  26
ATOM     26  C   UNL     1       6.739   1.757   2.462  0.00  0.00    +0.038 A 
ATOM     27  C   UNL     1       6.856   2.483   1.282  0.00  0.00    +0.017 A 
ATOM     28  C   UNL     1       7.799   3.486   1.182  0.00  0.00    +0.001 A 
ATOM     29  C   UNL     1       8.625   3.771   2.254  0.00  0.00    +0.002 A 
ATOM     30  C   UNL     1       8.511   3.051   3.430  0.00  0.00    +0.034 A 
ATOM     31  C   UNL     1       7.567   2.049   3.539  0.00  0.00    +0.140 A 
BRANCH  31  32
ATOM     32  N   UNL     1       7.441   1.283   4.799  0.00  0.00    +0.058 N 
ATOM     33  O   UNL     1       8.167   1.540   5.742  0.00  0.00    -0.126 OA
ATOM     34  O   UNL     1       6.611   0.397   4.893  0.00  0.00    -0.126 OA
ENDBRANCH  31  32
ENDBRANCH  25  26
ENDBRANCH   4  25
TORSDOF 5
