REMARK  Name = ZINC20182710
REMARK  5 active torsions:
REMARK  status: ('A' for Active; 'I' for Inactive)
REMARK    1  A    between atoms: C_1  and  C_2
REMARK    2  A    between atoms: C_2  and  C_3
REMARK    3  A    between atoms: C_6  and  S_8
REMARK    4  A    between atoms: S_8  and  N_11
REMARK    5  A    between atoms: C_17  and  N_20
REMARK                            x       y       z     vdW  Elec       q    Type
REMARK                         _______ _______ _______ _____ _____    ______ ____
ROOT
ATOM      1  N   UNL     1       4.476   2.088   1.554  0.00  0.00    -0.202 N 
ATOM      2  C   UNL     1       5.123   1.038   2.344  0.00  0.00    +0.136 C 
ATOM      3  C   UNL     1       5.363   1.663   3.728  0.00  0.00    +0.058 C 
ATOM      4  C   UNL     1       4.814   3.068   3.610  0.00  0.00    -0.023 A 
ATOM      5  C   UNL     1       4.324   3.243   2.324  0.00  0.00    +0.056 A 
ATOM      6  C   UNL     1       3.755   4.468   1.975  0.00  0.00    +0.047 A 
ATOM      7  C   UNL     1       3.693   5.497   2.901  0.00  0.00    +0.026 A 
ATOM      8  C   UNL     1       4.193   5.310   4.184  0.00  0.00    +0.023 A 
ATOM      9  C   UNL     1       4.752   4.095   4.532  0.00  0.00    +0.007 A 
ENDROOT
BRANCH   1  10
ATOM     10  S   UNL     1       4.001   1.932  -0.025  0.00  0.00    +0.081 S 
ATOM     11  O   UNL     1       4.799   0.900  -0.589  0.00  0.00    -0.149 OA
ATOM     12  O   UNL     1       3.957   3.244  -0.568  0.00  0.00    -0.149 OA
BRANCH  10  16
ATOM     13  C   UNL     1       0.002  -0.004   0.002  0.00  0.00    -0.009 A 
ATOM     14  C   UNL     1      -0.016   1.351   0.009  0.00  0.00    +0.013 A 
ATOM     15  C   UNL     1       1.183   2.038   0.002  0.00  0.00    +0.037 A 
ATOM     16  C   UNL     1       2.343   1.336  -0.013  0.00  0.00    +0.146 A 
ATOM     17  S   UNL     1       1.754  -0.349  -0.017  0.00  0.00    -0.073 S 
BRANCH  13  19
ATOM     18  C   UNL     1      -1.561  -1.288  -1.433  0.00  0.00    +0.009 C 
ATOM     19  C   UNL     1      -1.155  -0.969   0.007  0.00  0.00    +0.039 C 
ENDBRANCH  13  19
ENDBRANCH  10  16
ENDBRANCH   1  10
BRANCH   7  20
ATOM     20  N   UNL     1       3.128   6.723   2.544  0.00  0.00    -0.358 N 
ATOM     21  H   UNL     1       3.079   7.540   3.278  0.00  0.00    +0.142 HD
ATOM     22  H   UNL     1       2.732   6.872   1.528  0.00  0.00    +0.142 HD
ENDBRANCH   7  20
TORSDOF 4
