REMARK  Name = ZINC20000164
REMARK  13 active torsions:
REMARK  status: ('A' for Active; 'I' for Inactive)
REMARK    1  A    between atoms: C_1  and  C_2
REMARK    2  A    between atoms: C_2  and  N_3
REMARK    3  A    between atoms: N_3  and  C_4
REMARK    4  A    between atoms: N_3  and  C_6
REMARK    5  A    between atoms: C_4  and  C_5
REMARK    6  A    between atoms: C_6  and  C_8
REMARK    7  A    between atoms: C_6  and  C_24
REMARK    8  A    between atoms: C_8  and  N_9
REMARK    9  A    between atoms: N_9  and  S_10
REMARK   10  A    between atoms: S_10  and  C_13
REMARK   11  A    between atoms: C_16  and  O_22
REMARK   12  A    between atoms: C_17  and  N_19
REMARK   13  A    between atoms: O_22  and  C_23
REMARK                            x       y       z     vdW  Elec       q    Type
REMARK                         _______ _______ _______ _____ _____    ______ ____
ROOT
ATOM      1  N   UNL     1      -2.957   5.108  -1.950  0.00  0.00    -0.191 NA
ATOM      2  H   UNL     1      -3.171   6.056  -2.465  0.00  0.00    +0.148 HD
ENDROOT
BRANCH   1   3
ATOM      3  S   UNL     1      -2.240   5.141  -0.458  0.00  0.00    +0.058 S 
ATOM      4  O   UNL     1      -2.857   4.119   0.312  0.00  0.00    -0.153 OA
ATOM      5  O   UNL     1      -2.224   6.501  -0.045  0.00  0.00    -0.153 OA
BRANCH   3   6
ATOM      6  C   UNL     1      -0.559   4.662  -0.677  0.00  0.00    +0.108 A 
ATOM      7  C   UNL     1      -0.205   3.327  -0.597  0.00  0.00    +0.032 A 
ATOM      8  C   UNL     1       1.112   2.949  -0.764  0.00  0.00    +0.050 A 
ATOM      9  C   UNL     1       2.081   3.908  -1.024  0.00  0.00    +0.150 A 
ATOM     10  C   UNL     1       1.723   5.246  -1.109  0.00  0.00    +0.169 A 
ATOM     11  C   UNL     1       0.404   5.619  -0.936  0.00  0.00    +0.065 A 
BRANCH  10  12
ATOM     12  N   UNL     1       2.753   6.271  -1.385  0.00  0.00    +0.060 N 
ATOM     13  O   UNL     1       2.439   7.446  -1.460  0.00  0.00    -0.126 OA
ATOM     14  O   UNL     1       3.916   5.941  -1.538  0.00  0.00    -0.126 OA
ENDBRANCH  10  12
BRANCH   9  15
ATOM     15  O   UNL     1       3.377   3.538  -1.194  0.00  0.00    -0.493 OA
ATOM     16  C   UNL     1       3.672   2.143  -1.093  0.00  0.00    +0.277 C 
ENDBRANCH   9  15
ENDBRANCH   3   6
ENDBRANCH   1   3
BRANCH   1  17
ATOM     17  C   UNL     1      -3.103   3.837  -2.664  0.00  0.00    +0.095 C 
BRANCH  17  18
ATOM     18  C   UNL     1      -4.128   3.999  -3.788  0.00  0.00    -0.021 C 
BRANCH  18  19
ATOM     19  C   UNL     1      -4.266   2.697  -4.534  0.00  0.00    -0.041 A 
ATOM     20  C   UNL     1      -5.384   1.906  -4.345  0.00  0.00    +0.003 A 
ATOM     21  C   UNL     1      -5.512   0.714  -5.032  0.00  0.00    +0.000 A 
ATOM     22  C   UNL     1      -4.518   0.306  -5.902  0.00  0.00    +0.001 A 
ATOM     23  C   UNL     1      -3.397   1.093  -6.088  0.00  0.00    +0.020 A 
ATOM     24  C   UNL     1      -3.271   2.290  -5.404  0.00  0.00    +0.043 A 
ATOM     25 CL   UNL     1      -1.863   3.279  -5.638  0.00  0.00    -0.083 Cl
ENDBRANCH  18  19
BRANCH  18  26
ATOM     26  N   UNL     1      -5.428   4.375  -3.216  0.00  0.00    +0.385 N 
ATOM     27  H   UNL     1      -6.211   3.848  -3.780  0.00  0.00    -0.081 HD
BRANCH  26  29
ATOM     28  C   UNL     1      -5.799   2.453  -1.745  0.00  0.00    -0.017 C 
ATOM     29  C   UNL     1      -5.525   3.956  -1.811  0.00  0.00    -0.081 C 
ENDBRANCH  26  29
BRANCH  26  30
ATOM     30  C   UNL     1      -5.666   5.818  -3.353  0.00  0.00    -0.081 C 
ATOM     31  C   UNL     1      -5.998   6.144  -4.811  0.00  0.00    -0.017 C 
ENDBRANCH  26  30
ENDBRANCH  18  26
ENDBRANCH  17  18
ENDBRANCH   1  17
TORSDOF 10
