REMARK  Name = ZINC12078807
REMARK  8 active torsions:
REMARK  status: ('A' for Active; 'I' for Inactive)
REMARK    1  A    between atoms: C_1  and  C_2
REMARK    2  A    between atoms: C_2  and  C_38
REMARK    3  A    between atoms: C_7  and  C_11
REMARK    4  A    between atoms: C_11  and  S_12
REMARK    5  A    between atoms: S_12  and  N_15
REMARK    6  A    between atoms: C_22  and  C_27
REMARK    7  A    between atoms: C_24  and  O_25
REMARK    8  A    between atoms: O_25  and  C_26
REMARK                            x       y       z     vdW  Elec       q    Type
REMARK                         _______ _______ _______ _____ _____    ______ ____
ROOT
ATOM      1  N   UNL     1       4.938  10.375  -1.164  0.00  0.00    -0.173 NA
ATOM      2  C   UNL     1       6.381  10.501  -1.378  0.00  0.00    +0.150 C 
ATOM      3  C   UNL     1       7.054   9.136  -1.410  0.00  0.00    +0.246 C 
ATOM      4  O   UNL     1       6.874   8.465  -0.158  0.00  0.00    -0.487 OA
ATOM      5  C   UNL     1       5.759   7.696  -0.053  0.00  0.00    +0.166 A 
ATOM      6  C   UNL     1       4.508   8.290  -0.005  0.00  0.00    +0.014 A 
ATOM      7  C   UNL     1       3.365   7.524  -0.001  0.00  0.00    +0.017 A 
ATOM      8  C   UNL     1       3.466   6.132  -0.002  0.00  0.00    -0.012 A 
ATOM      9  C   UNL     1       4.722   5.528  -0.018  0.00  0.00    +0.058 A 
ATOM     10  C   UNL     1       5.865   6.307  -0.043  0.00  0.00    +0.162 A 
ATOM     11  C   UNL     1       4.422   9.800   0.082  0.00  0.00    +0.148 C 
ENDROOT
BRANCH   8  12
ATOM     12  C   UNL     1       2.240   5.297   0.007  0.00  0.00    +0.001 A 
ATOM     13  C   UNL     1       2.336   3.913   0.000  0.00  0.00    +0.020 A 
ATOM     14  C   UNL     1       1.144   3.169   0.008  0.00  0.00    +0.001 A 
ATOM     15  C   UNL     1       1.162   1.764   0.000  0.00  0.00    +0.010 A 
ATOM     16  C   UNL     1      -0.013   1.076   0.008  0.00  0.00    +0.001 A 
ATOM     17  C   UNL     1      -1.234   1.747   0.017  0.00  0.00    +0.002 A 
ATOM     18  C   UNL     1      -1.288   3.107   0.032  0.00  0.00    +0.028 A 
ATOM     19  C   UNL     1      -0.097   3.854   0.024  0.00  0.00    +0.071 A 
ATOM     20  N   UNL     1      -0.126   5.191   0.030  0.00  0.00    -0.254 NA
ATOM     21  C   UNL     1       0.973   5.902   0.023  0.00  0.00    +0.120 A 
ENDBRANCH   8  12
BRANCH   1  22
ATOM     22  S   UNL     1       3.884  10.884  -2.336  0.00  0.00    +0.033 S 
ATOM     23  O   UNL     1       4.617  10.787  -3.550  0.00  0.00    -0.158 OA
ATOM     24  O   UNL     1       2.713  10.106  -2.132  0.00  0.00    -0.158 OA
BRANCH  22  25
ATOM     25  C   UNL     1       3.555  12.624  -1.943  0.00  0.00    +0.200 C 
BRANCH  25  31
ATOM     26  C   UNL     1       1.410  14.912  -1.449  0.00  0.00    +0.012 C 
ATOM     27  C   UNL     1       2.167  14.703  -2.762  0.00  0.00    -0.018 C 
ATOM     28  C   UNL     1       1.218  14.779  -4.010  0.00  0.00    +0.003 C 
ATOM     29  C   UNL     1       0.273  13.570  -3.726  0.00  0.00    +0.005 C 
ATOM     30  C   UNL     1       1.181  12.523  -3.042  0.00  0.00    +0.017 C 
ATOM     31  C   UNL     1       2.582  13.204  -2.971  0.00  0.00    +0.055 C 
ATOM     32  C   UNL     1       3.076  13.221  -4.425  0.00  0.00    +0.142 C 
ATOM     33  O   UNL     1       3.966  12.559  -4.904  0.00  0.00    -0.297 OA
ATOM     34  C   UNL     1       2.181  14.262  -5.122  0.00  0.00    +0.079 C 
ATOM     35  C   UNL     1       3.360  15.653  -2.888  0.00  0.00    +0.012 C 
ENDBRANCH  25  31
ENDBRANCH  22  25
ENDBRANCH   1  22
BRANCH  10  36
ATOM     36  O   UNL     1       7.091   5.717  -0.059  0.00  0.00    -0.491 OA
ATOM     37  C   UNL     1       7.123   4.288  -0.049  0.00  0.00    +0.277 C 
ENDBRANCH  10  36
TORSDOF 5
