REMARK  Name = ZINC37309133
REMARK  2 active torsions:
REMARK  status: ('A' for Active; 'I' for Inactive)
REMARK    1  A    between atoms: C_5  and  C_6
REMARK    2  A    between atoms: C_11  and  C_14
REMARK                            x       y       z     vdW  Elec       q    Type
REMARK                         _______ _______ _______ _____ _____    ______ ____
ROOT
ATOM      1  C   UNL     1      -1.122  -0.944   0.007  0.00  0.00    +0.256 C 
ATOM      2  O   UNL     1      -2.265  -0.525   0.021  0.00  0.00    -0.269 OA
ATOM      3  N   UNL     1      -0.891  -2.271  -0.002  0.00  0.00    -0.260 N 
ATOM      4  C   UNL     1      -1.957  -3.162   0.004  0.00  0.00    +0.165 A 
ATOM      5  N   UNL     1      -1.923  -4.477   0.001  0.00  0.00    -0.228 NA
ATOM      6  C   UNL     1      -3.036  -5.188   0.007  0.00  0.00    +0.065 A 
ATOM      7  C   UNL     1      -4.205  -4.502   0.015  0.00  0.00    +0.073 A 
ATOM      8  S   UNL     1      -3.605  -2.820   0.021  0.00  0.00    -0.060 S 
ATOM      9  H   UNL     1       0.020  -2.605  -0.012  0.00  0.00    +0.157 HD
ENDROOT
BRANCH   1  14
ATOM     10  C   UNL     1      -0.017   1.379   0.010  0.00  0.00    +0.024 A 
ATOM     11  C   UNL     1       1.212   2.022   0.001  0.00  0.00    -0.036 A 
ATOM     12  C   UNL     1       2.320   1.226  -0.014  0.00  0.00    -0.006 A 
ATOM     13  S   UNL     1       1.752  -0.345  -0.016  0.00  0.00    -0.088 S 
ATOM     14  C   UNL     1       0.002  -0.004   0.002  0.00  0.00    +0.075 A 
ATOM     15  C   UNL     1       3.750   1.678  -0.027  0.00  0.00    +0.043 C 
ATOM     16  C   UNL     1       3.785   3.167  -0.401  0.00  0.00    +0.005 C 
ATOM     17  C   UNL     1       2.758   3.913   0.455  0.00  0.00    +0.005 C 
ATOM     18  C   UNL     1       1.343   3.542   0.009  0.00  0.00    +0.036 C 
ENDBRANCH   1  14
BRANCH   6  19
ATOM     19  C   UNL     1      -3.007  -6.694   0.004  0.00  0.00    +0.164 C 
ATOM     20 CL   UNL     1      -2.986  -7.298   1.703  0.00  0.00    -0.119 Cl
ENDBRANCH   6  19
TORSDOF 2
