REMARK  Name = ZINC67141300
REMARK  9 active torsions:
REMARK  status: ('A' for Active; 'I' for Inactive)
REMARK    1  A    between atoms: C_1  and  C_2
REMARK    2  A    between atoms: C_2  and  C_4
REMARK    3  A    between atoms: C_2  and  N_19
REMARK    4  A    between atoms: N_6  and  C_7
REMARK    5  A    between atoms: C_20  and  O_22
REMARK    6  A    between atoms: O_22  and  C_23
REMARK    7  A    between atoms: C_23  and  C_24
REMARK    8  A    between atoms: C_23  and  C_25
REMARK    9  A    between atoms: C_23  and  C_26
REMARK                            x       y       z     vdW  Elec       q    Type
REMARK                         _______ _______ _______ _____ _____    ______ ____
ROOT
ATOM      1  C   UNL     1       0.731  -0.503   1.223  0.00  0.00    +0.234 C 
ATOM      2  O   UNL     1       1.725  -1.187   1.099  0.00  0.00    -0.274 OA
ATOM      3  N   UNL     1       0.278  -0.191   2.453  0.00  0.00    -0.307 N 
ATOM      4  H   UNL     1      -0.517   0.356   2.553  0.00  0.00    +0.149 HD
ENDROOT
BRANCH   3   5
ATOM      5  C   UNL     1       0.986  -0.676   3.640  0.00  0.00    +0.105 C 
ATOM      6  C   UNL     1      -0.005  -0.788   4.785  0.00  0.00    +0.038 C 
ATOM      7  C   UNL     1       0.716  -1.344   6.021  0.00  0.00    +0.076 C 
ATOM      8  S   UNL     1       1.799  -0.025   6.647  0.00  0.00    -0.122 S 
ATOM      9  C   UNL     1       2.578   0.588   5.186  0.00  0.00    +0.048 A 
ATOM     10  C   UNL     1       2.133   0.248   3.924  0.00  0.00    -0.011 A 
ATOM     11  C   UNL     1       2.789   0.786   2.818  0.00  0.00    +0.007 A 
ATOM     12  C   UNL     1       3.862   1.635   2.972  0.00  0.00    +0.003 A 
ATOM     13  C   UNL     1       4.308   1.968   4.238  0.00  0.00    +0.039 A 
ATOM     14  C   UNL     1       3.671   1.444   5.338  0.00  0.00    +0.137 A 
ATOM     15  F   UNL     1       4.101   1.767   6.577  0.00  0.00    -0.204 F 
ENDBRANCH   3   5
BRANCH   1  17
ATOM     16  C   UNL     1      -0.019   1.526   0.010  0.00  0.00    +0.038 C 
ATOM     17  C   UNL     1       0.002  -0.004   0.002  0.00  0.00    +0.159 C 
BRANCH  17  18
ATOM     18  N   UNL     1       0.688  -0.476  -1.203  0.00  0.00    -0.270 N 
ATOM     19  C   UNL     1       0.006  -0.608  -2.358  0.00  0.00    +0.401 C 
ATOM     20  O   UNL     1      -1.177  -0.335  -2.400  0.00  0.00    -0.226 OA
ATOM     21  H   UNL     1       1.632  -0.695  -1.170  0.00  0.00    +0.153 HD
BRANCH  19  22
ATOM     22  O   UNL     1       0.636  -1.042  -3.466  0.00  0.00    -0.445 OA
BRANCH  22  23
ATOM     23  C   UNL     1      -0.148  -1.158  -4.655  0.00  0.00    +0.107 C 
ATOM     24  C   UNL     1      -0.725   0.211  -5.021  0.00  0.00    +0.055 C 
ATOM     25  C   UNL     1       0.734  -1.662  -5.800  0.00  0.00    +0.055 C 
ATOM     26  C   UNL     1      -1.291  -2.147  -4.418  0.00  0.00    +0.055 C 
ENDBRANCH  22  23
ENDBRANCH  19  22
ENDBRANCH  17  18
ENDBRANCH   1  17
TORSDOF 5
