REMARK  Name = ZINC44836385
REMARK  9 active torsions:
REMARK  status: ('A' for Active; 'I' for Inactive)
REMARK    1  A    between atoms: C_1  and  C_2
REMARK    2  A    between atoms: C_2  and  O_3
REMARK    3  A    between atoms: O_3  and  C_4
REMARK    4  A    between atoms: C_8  and  C_11
REMARK    5  A    between atoms: C_9  and  O_10
REMARK    6  A    between atoms: C_11  and  N_12
REMARK    7  A    between atoms: N_12  and  C_13
REMARK    8  A    between atoms: C_16  and  O_19
REMARK    9  A    between atoms: O_19  and  C_20
REMARK                            x       y       z     vdW  Elec       q    Type
REMARK                         _______ _______ _______ _____ _____    ______ ____
ROOT
ATOM      1  N   UNL     1      -4.497  -5.467  -1.769  0.00  0.00    -0.340 N 
ATOM      2  H   UNL     1      -3.999  -5.032  -2.479  0.00  0.00    +0.146 HD
ENDROOT
BRANCH   1   3
ATOM      3  C   UNL     1      -5.871  -5.689  -1.912  0.00  0.00    +0.028 A 
ATOM      4  C   UNL     1      -6.584  -6.306  -0.893  0.00  0.00    +0.026 A 
ATOM      5  C   UNL     1      -7.941  -6.525  -1.034  0.00  0.00    +0.048 A 
ATOM      6  C   UNL     1      -8.590  -6.127  -2.194  0.00  0.00    +0.129 A 
ATOM      7  C   UNL     1      -7.878  -5.511  -3.213  0.00  0.00    +0.048 A 
ATOM      8  C   UNL     1      -6.523  -5.287  -3.070  0.00  0.00    +0.026 A 
BRANCH   6   9
ATOM      9  O   UNL     1      -9.926  -6.342  -2.333  0.00  0.00    -0.456 OA
BRANCH   9  10
ATOM     10  C   UNL     1     -10.585  -6.942  -1.307  0.00  0.00    +0.128 A 
ATOM     11  C   UNL     1     -11.146  -6.173  -0.297  0.00  0.00    +0.046 A 
ATOM     12  C   UNL     1     -11.816  -6.785   0.744  0.00  0.00    +0.004 A 
ATOM     13  C   UNL     1     -11.927  -8.163   0.782  0.00  0.00    +0.000 A 
ATOM     14  C   UNL     1     -11.368  -8.932  -0.223  0.00  0.00    +0.004 A 
ATOM     15  C   UNL     1     -10.703  -8.324  -1.270  0.00  0.00    +0.046 A 
ENDBRANCH   9  10
ENDBRANCH   6   9
ENDBRANCH   1   3
BRANCH   1  16
ATOM     16  C   UNL     1      -3.809  -5.892  -0.547  0.00  0.00    +0.140 C 
BRANCH  16  21
ATOM     17  C   UNL     1      -0.577  -3.922  -0.481  0.00  0.00    +0.162 A 
ATOM     18  C   UNL     1       0.343  -4.898  -0.828  0.00  0.00    +0.049 A 
ATOM     19  C   UNL     1      -0.082  -6.189  -1.081  0.00  0.00    +0.004 A 
ATOM     20  C   UNL     1      -1.424  -6.509  -0.990  0.00  0.00    +0.009 A 
ATOM     21  C   UNL     1      -2.347  -5.539  -0.645  0.00  0.00    +0.015 A 
ATOM     22  C   UNL     1      -1.927  -4.245  -0.384  0.00  0.00    +0.163 A 
BRANCH  22  23
ATOM     23  O   UNL     1      -2.833  -3.291  -0.039  0.00  0.00    -0.503 OA
ATOM     24  H   UNL     1      -3.206  -2.812  -0.791  0.00  0.00    +0.292 HD
ENDBRANCH  22  23
BRANCH  17  25
ATOM     25  O   UNL     1      -0.161  -2.651  -0.232  0.00  0.00    -0.489 OA
BRANCH  25  27
ATOM     26  C   UNL     1       1.514  -0.920  -0.035  0.00  0.00    +0.048 C 
ATOM     27  C   UNL     1       1.239  -2.392  -0.351  0.00  0.00    +0.226 C 
ENDBRANCH  25  27
ENDBRANCH  17  25
ENDBRANCH  16  21
ENDBRANCH   1  16
TORSDOF 8
