REMARK  Name = ZINC07117324
REMARK  7 active torsions:
REMARK  status: ('A' for Active; 'I' for Inactive)
REMARK    1  A    between atoms: C_1  and  C_2
REMARK    2  A    between atoms: C_3  and  C_12
REMARK    3  A    between atoms: C_5  and  C_7
REMARK    4  A    between atoms: N_14  and  C_15
REMARK    5  A    between atoms: N_14  and  C_16
REMARK    6  A    between atoms: C_16  and  C_18
REMARK    7  A    between atoms: C_16  and  C_19
REMARK                            x       y       z     vdW  Elec       q    Type
REMARK                         _______ _______ _______ _____ _____    ______ ____
ROOT
ATOM      1  C   UNL     1       0.124  -0.683   1.160  0.00  0.00    +0.255 C 
ATOM      2  O   UNL     1       0.464  -1.851   1.121  0.00  0.00    -0.269 OA
ATOM      3  N   UNL     1      -0.255  -0.053   0.030  0.00  0.00    -0.291 N 
ATOM      4  C   UNL     1      -0.633   1.362   0.072  0.00  0.00    +0.133 C 
ENDROOT
BRANCH   1   7
ATOM      5  C   UNL     1       0.600  -1.899   3.979  0.00  0.00    +0.067 C 
ATOM      6  C   UNL     1       0.331  -0.438   3.723  0.00  0.00    +0.058 A 
ATOM      7  C   UNL     1       0.127   0.038   2.434  0.00  0.00    +0.097 A 
ATOM      8  S   UNL     1      -0.125   1.777   2.763  0.00  0.00    -0.062 S 
ATOM      9  C   UNL     1       0.045   1.709   4.489  0.00  0.00    +0.110 A 
ATOM     10  N   UNL     1       0.282   0.421   4.705  0.00  0.00    -0.243 NA
BRANCH   9  11
ATOM     11  C   UNL     1      -0.044   2.807   5.470  0.00  0.00    +0.014 A 
ATOM     12  C   UNL     1       0.132   2.569   6.879  0.00  0.00    +0.018 A 
ATOM     13  C   UNL     1       0.033   3.637   7.697  0.00  0.00    +0.046 A 
ATOM     14  S   UNL     1      -0.299   4.973   6.567  0.00  0.00    -0.104 S 
ATOM     15  C   UNL     1      -0.291   4.093   5.075  0.00  0.00    +0.055 A 
ENDBRANCH   9  11
ENDBRANCH   1   7
BRANCH   3  16
ATOM     16  C   UNL     1      -0.289  -0.784  -1.239  0.00  0.00    +0.129 C 
ATOM     17  C   UNL     1       0.661  -0.118  -2.236  0.00  0.00    +0.035 C 
BRANCH  16  18
ATOM     18  C   UNL     1      -1.691  -0.765  -1.792  0.00  0.00    +0.100 A 
ATOM     19  N   UNL     1      -2.517   0.241  -1.868  0.00  0.00    -0.242 NA
ATOM     20  C   UNL     1      -3.754   0.125  -2.395  0.00  0.00    +0.079 A 
ATOM     21  C   UNL     1      -4.751   1.113  -2.550  0.00  0.00    +0.029 A 
ATOM     22  C   UNL     1      -5.955   0.804  -3.103  0.00  0.00    +0.002 A 
ATOM     23  C   UNL     1      -6.249  -0.483  -3.534  0.00  0.00    +0.001 A 
ATOM     24  C   UNL     1      -5.299  -1.478  -3.400  0.00  0.00    +0.017 A 
ATOM     25  C   UNL     1      -4.081  -1.175  -2.842  0.00  0.00    +0.039 A 
ATOM     26  S   UNL     1      -2.598  -2.079  -2.473  0.00  0.00    -0.070 S 
ENDBRANCH  16  18
ENDBRANCH   3  16
TORSDOF 4
