REMARK  Name = ZINC11640032
REMARK  2 active torsions:
REMARK  status: ('A' for Active; 'I' for Inactive)
REMARK    1  A    between atoms: C_4  and  N_7
REMARK    2  A    between atoms: C_12  and  C_13
REMARK                            x       y       z     vdW  Elec       q    Type
REMARK                         _______ _______ _______ _____ _____    ______ ____
ROOT
ATOM      1  N   UNL     1       4.097   0.004   0.873  0.00  0.00    -0.226 NA
ATOM      2  C   UNL     1       4.156  -1.189   1.421  0.00  0.00    +0.166 C 
ATOM      3  N   UNL     1       3.160  -1.883   2.073  0.00  0.00    -0.260 N 
ATOM      4  C   UNL     1       3.390  -3.086   2.571  0.00  0.00    +0.256 C 
ATOM      5  C   UNL     1       4.750  -3.635   2.391  0.00  0.00    +0.078 C 
ATOM      6  C   UNL     1       5.257  -4.827   2.793  0.00  0.00    +0.029 C 
ATOM      7  S   UNL     1       5.545  -2.309   1.495  0.00  0.00    -0.049 S 
ATOM      8  O   UNL     1       2.522  -3.712   3.150  0.00  0.00    -0.269 OA
ATOM      9  H   UNL     1       2.281  -1.484   2.169  0.00  0.00    +0.157 HD
ENDROOT
BRANCH   1  13
ATOM     10  C   UNL     1       0.573   2.169   1.005  0.00  0.00    +0.000 A 
ATOM     11  C   UNL     1       1.775   2.791   1.294  0.00  0.00    +0.002 A 
ATOM     12  C   UNL     1       2.953   2.075   1.252  0.00  0.00    +0.028 A 
ATOM     13  C   UNL     1       2.932   0.720   0.917  0.00  0.00    +0.067 A 
ATOM     14  C   UNL     1       1.715   0.098   0.627  0.00  0.00    +0.028 A 
ATOM     15  C   UNL     1       0.544   0.826   0.673  0.00  0.00    +0.002 A 
ENDBRANCH   1  13
BRANCH   6  16
ATOM     16  C   UNL     1       6.593  -5.245   2.346  0.00  0.00    -0.006 A 
ATOM     17  C   UNL     1       7.285  -4.507   1.374  0.00  0.00    +0.011 A 
ATOM     18  C   UNL     1       8.539  -4.944   0.989  0.00  0.00    +0.020 A 
ATOM     19  C   UNL     1       9.067  -6.085   1.569  0.00  0.00    +0.111 A 
ATOM     20  N   UNL     1       8.395  -6.761   2.481  0.00  0.00    -0.263 NA
ATOM     21  C   UNL     1       7.200  -6.384   2.887  0.00  0.00    +0.118 A 
ENDBRANCH   6  16
TORSDOF 2
