REMARK  Name = ZINC04944416
REMARK  5 active torsions:
REMARK  status: ('A' for Active; 'I' for Inactive)
REMARK    1  A    between atoms: C_1  and  C_2
REMARK    2  A    between atoms: C_2  and  S_3
REMARK    3  A    between atoms: S_3  and  C_4
REMARK    4  A    between atoms: C_16  and  C_18
REMARK    5  A    between atoms: C_21  and  C_24
REMARK                            x       y       z     vdW  Elec       q    Type
REMARK                         _______ _______ _______ _____ _____    ______ ____
ROOT
ATOM      1  C   UNL     1      -1.508  -2.383   0.004  0.00  0.00    +0.171 A 
ATOM      2  N   UNL     1      -2.617  -3.175   0.004  0.00  0.00    -0.302 N 
ATOM      3  H   UNL     1      -3.499  -2.772   0.011  0.00  0.00    +0.171 HD
ATOM      4  C   UNL     1      -2.488  -4.519  -0.004  0.00  0.00    +0.258 A 
ATOM      5  O   UNL     1      -3.474  -5.239  -0.004  0.00  0.00    -0.267 OA
ATOM      6  C   UNL     1      -1.204  -5.069  -0.014  0.00  0.00    +0.065 A 
ATOM      7  C   UNL     1      -0.108  -4.222  -0.015  0.00  0.00    +0.137 A 
ATOM      8  N   UNL     1      -0.295  -2.898  -0.011  0.00  0.00    -0.208 NA
ATOM      9  N   UNL     1       1.173  -4.749  -0.025  0.00  0.00    -0.270 N 
ATOM     10  C   UNL     1       1.392  -6.028   0.328  0.00  0.00    +0.219 C 
ATOM     11  O   UNL     1       2.519  -6.474   0.296  0.00  0.00    -0.275 OA
ATOM     12  C   UNL     1       0.255  -6.914   0.763  0.00  0.00    +0.109 C 
ATOM     13  C   UNL     1      -1.008  -6.561  -0.024  0.00  0.00    +0.066 C 
ATOM     14  H   UNL     1       1.920  -4.190  -0.291  0.00  0.00    +0.156 HD
ENDROOT
BRANCH  13  15
ATOM     15  C   UNL     1      -0.864  -7.040  -1.445  0.00  0.00    -0.039 A 
ATOM     16  C   UNL     1       0.170  -6.567  -2.232  0.00  0.00    +0.005 A 
ATOM     17  C   UNL     1       0.302  -7.006  -3.536  0.00  0.00    +0.012 A 
ATOM     18  C   UNL     1      -0.599  -7.918  -4.053  0.00  0.00    +0.055 A 
ATOM     19  C   UNL     1      -1.632  -8.392  -3.266  0.00  0.00    +0.012 A 
ATOM     20  C   UNL     1      -1.762  -7.955  -1.961  0.00  0.00    +0.005 A 
BRANCH  18  21
ATOM     21  C   UNL     1      -0.455  -8.396  -5.475  0.00  0.00    +0.417 C 
ATOM     22  F   UNL     1       0.357  -9.535  -5.504  0.00  0.00    -0.166 F 
ATOM     23  F   UNL     1      -1.716  -8.710  -5.992  0.00  0.00    -0.166 F 
ATOM     24  F   UNL     1       0.129  -7.388  -6.250  0.00  0.00    -0.166 F 
ENDBRANCH  18  21
ENDBRANCH  13  15
BRANCH   1  25
ATOM     25  S   UNL     1      -1.700  -0.632   0.015  0.00  0.00    -0.088 S 
BRANCH  25  27
ATOM     26  C   UNL     1      -0.019   1.526   0.010  0.00  0.00    +0.016 C 
ATOM     27  C   UNL     1       0.002  -0.004   0.002  0.00  0.00    +0.074 C 
ENDBRANCH  25  27
ENDBRANCH   1  25
TORSDOF 4
