REMARK  Name = ZINC08975813
REMARK  3 active torsions:
REMARK  status: ('A' for Active; 'I' for Inactive)
REMARK    1  A    between atoms: C_1  and  C_2
REMARK    2  A    between atoms: C_20  and  O_27
REMARK    3  A    between atoms: O_27  and  C_28
REMARK                            x       y       z     vdW  Elec       q    Type
REMARK                         _______ _______ _______ _____ _____    ______ ____
ROOT
ATOM      1  C   UNL     1      -9.259  -1.175   8.642  0.00  0.00    +0.047 C 
ATOM      2  C   UNL     1      -8.561  -0.596   9.845  0.00  0.00    -0.006 A 
ATOM      3  C   UNL     1      -8.956  -0.971  11.104  0.00  0.00    +0.046 A 
ATOM      4  C   UNL     1      -8.340  -0.461  12.238  0.00  0.00    +0.021 A 
ATOM      5  C   UNL     1      -7.304   0.445  12.097  0.00  0.00    +0.019 A 
ATOM      6  C   UNL     1      -6.902   0.825  10.841  0.00  0.00    +0.041 A 
ATOM      7  C   UNL     1      -7.506   0.327   9.664  0.00  0.00    +0.085 A 
ATOM      8  N   UNL     1      -6.998   0.796   8.503  0.00  0.00    -0.224 NA
ATOM      9  C   UNL     1      -6.008   1.659   8.463  0.00  0.00    +0.162 A 
ATOM     10  S   UNL     1      -5.656   1.915  10.197  0.00  0.00    -0.052 S 
ATOM     11  N   UNL     1      -5.393   2.221   7.363  0.00  0.00    -0.307 N 
ATOM     12  C   UNL     1      -4.324   3.142   7.771  0.00  0.00    +0.126 C 
ATOM     13  C   UNL     1      -3.721   3.803   6.529  0.00  0.00    +0.126 C 
ATOM     14  N   UNL     1      -3.203   2.764   5.628  0.00  0.00    -0.307 N 
ATOM     15  C   UNL     1      -4.272   1.842   5.220  0.00  0.00    +0.126 C 
ATOM     16  C   UNL     1      -4.874   1.182   6.462  0.00  0.00    +0.126 C 
ATOM     17  C   UNL     1      -2.587   3.326   4.527  0.00  0.00    +0.162 A 
ATOM     18  N   UNL     1      -2.008   2.727   3.512  0.00  0.00    -0.221 NA
ATOM     19  C   UNL     1      -1.446   3.412   2.490  0.00  0.00    +0.123 A 
ATOM     20  C   UNL     1      -0.787   2.893   1.346  0.00  0.00    +0.147 A 
ATOM     21  C   UNL     1      -0.260   3.736   0.397  0.00  0.00    +0.049 A 
ATOM     22  C   UNL     1      -0.347   5.115   0.526  0.00  0.00    +0.025 A 
ATOM     23  C   UNL     1      -0.978   5.654   1.633  0.00  0.00    +0.057 A 
ATOM     24  C   UNL     1      -1.509   4.818   2.587  0.00  0.00    +0.063 A 
ATOM     25  S   UNL     1      -2.376   5.053   4.120  0.00  0.00    -0.051 S 
ATOM     26 CL   UNL     1      -1.100   7.376   1.816  0.00  0.00    -0.082 Cl
ATOM     27 CL   UNL     1     -10.256  -2.107  11.283  0.00  0.00    -0.083 Cl
ENDROOT
BRANCH  20  28
ATOM     28  O   UNL     1      -0.682   1.547   1.184  0.00  0.00    -0.493 OA
ATOM     29  C   UNL     1      -0.013   1.086   0.008  0.00  0.00    +0.277 C 
ENDBRANCH  20  28
TORSDOF 1
