REMARK  Name = ZINC64139171
REMARK  11 active torsions:
REMARK  status: ('A' for Active; 'I' for Inactive)
REMARK    1  A    between atoms: C_1  and  C_2
REMARK    2  A    between atoms: C_5  and  S_8
REMARK    3  A    between atoms: S_8  and  N_11
REMARK    4  A    between atoms: N_11  and  C_12
REMARK    5  A    between atoms: C_12  and  C_14
REMARK    6  A    between atoms: C_12  and  C_18
REMARK    7  A    between atoms: C_14  and  C_15
REMARK    8  A    between atoms: C_15  and  C_16
REMARK    9  A    between atoms: C_15  and  C_17
REMARK   10  A    between atoms: N_20  and  N_21
REMARK   11  A    between atoms: C_22  and  C_24
REMARK                            x       y       z     vdW  Elec       q    Type
REMARK                         _______ _______ _______ _____ _____    ______ ____
ROOT
ATOM      1  C   UNL     1       2.614  -4.617   1.121  0.00  0.00    +0.164 C 
ENDROOT
BRANCH   1   2
ATOM      2  C   UNL     1       3.975  -4.219   0.613  0.00  0.00    +0.248 C 
ATOM      3  O   UNL     1       4.183  -4.157  -0.580  0.00  0.00    -0.273 OA
ATOM      4  N   UNL     1       4.962  -3.932   1.485  0.00  0.00    -0.233 N 
ATOM      5  H   UNL     1       4.796  -3.982   2.439  0.00  0.00    +0.173 HD
BRANCH   4   6
ATOM      6  N   UNL     1       6.228  -3.562   1.013  0.00  0.00    -0.229 N 
ATOM      7  C   UNL     1       7.215  -3.275   1.885  0.00  0.00    +0.275 C 
ATOM      8  O   UNL     1       7.007  -3.337   3.081  0.00  0.00    -0.267 OA
ATOM      9  H   UNL     1       6.394  -3.512   0.058  0.00  0.00    +0.173 HD
BRANCH   7  10
ATOM     10  C   UNL     1       8.545  -2.886   1.388  0.00  0.00    +0.109 C 
ATOM     11  N   UNL     1       8.913  -2.771   0.146  0.00  0.00    -0.254 NA
ATOM     12  C   UNL     1      10.187  -2.399  -0.003  0.00  0.00    +0.122 C 
ATOM     13  C   UNL     1      10.810  -2.226   1.169  0.00  0.00    +0.019 C 
ATOM     14  C   UNL     1       9.761  -2.532   2.223  0.00  0.00    +0.105 C 
ATOM     15 BR   UNL     1      12.606  -1.706   1.451  0.00  0.00    -0.053 Br
ENDBRANCH   7  10
ENDBRANCH   4   6
ENDBRANCH   1   2
BRANCH   1  16
ATOM     16  N   UNL     1       1.725  -4.875  -0.014  0.00  0.00    -0.178 NA
ATOM     17  H   UNL     1       1.737  -5.741  -0.453  0.00  0.00    +0.149 HD
BRANCH  16  18
ATOM     18  S   UNL     1       0.700  -3.690  -0.550  0.00  0.00    +0.059 S 
ATOM     19  O   UNL     1       0.010  -3.203   0.593  0.00  0.00    -0.153 OA
ATOM     20  O   UNL     1       0.023  -4.219  -1.681  0.00  0.00    -0.153 OA
BRANCH  18  25
ATOM     21  C   UNL     1       4.121   0.855  -2.561  0.00  0.00    +0.044 C 
ATOM     22  C   UNL     1       3.267  -0.280  -2.059  0.00  0.00    -0.050 A 
ATOM     23  C   UNL     1       2.882  -1.290  -2.921  0.00  0.00    +0.005 A 
ATOM     24  C   UNL     1       2.099  -2.331  -2.460  0.00  0.00    +0.029 A 
ATOM     25  C   UNL     1       1.700  -2.363  -1.137  0.00  0.00    +0.105 A 
ATOM     26  C   UNL     1       2.086  -1.354  -0.274  0.00  0.00    +0.029 A 
ATOM     27  C   UNL     1       2.873  -0.315  -0.734  0.00  0.00    +0.005 A 
ENDBRANCH  18  25
ENDBRANCH  16  18
ENDBRANCH   1  16
BRANCH   1  28
ATOM     28  C   UNL     1       2.737  -5.884   1.971  0.00  0.00    +0.033 C 
BRANCH  28  29
ATOM     29  C   UNL     1       1.373  -6.228   2.574  0.00  0.00    -0.015 C 
ATOM     30  C   UNL     1       1.461  -7.572   3.300  0.00  0.00    +0.007 C 
ATOM     31  C   UNL     1       0.964  -5.138   3.566  0.00  0.00    +0.007 C 
ENDBRANCH  28  29
ENDBRANCH   1  28
TORSDOF 8
