REMARK  Name = ZINC04701383
REMARK  9 active torsions:
REMARK  status: ('A' for Active; 'I' for Inactive)
REMARK    1  A    between atoms: C_1  and  C_2
REMARK    2  A    between atoms: C_2  and  C_21
REMARK    3  A    between atoms: C_7  and  C_20
REMARK    4  A    between atoms: C_11  and  C_12
REMARK    5  A    between atoms: C_12  and  O_14
REMARK    6  A    between atoms: O_14  and  C_15
REMARK    7  A    between atoms: C_15  and  C_16
REMARK    8  A    between atoms: C_15  and  C_17
REMARK    9  A    between atoms: C_15  and  C_18
REMARK                            x       y       z     vdW  Elec       q    Type
REMARK                         _______ _______ _______ _____ _____    ______ ____
ROOT
ATOM      1  C   UNL     1       1.307  -5.535  -4.697  0.00  0.00    +0.012 C 
ATOM      2  C   UNL     1       1.032  -4.165  -4.072  0.00  0.00    -0.016 C 
ATOM      3  C   UNL     1       1.208  -4.179  -2.512  0.00  0.00    +0.029 C 
ATOM      4  C   UNL     1       2.717  -4.554  -2.395  0.00  0.00    +0.010 C 
ATOM      5  C   UNL     1       3.378  -3.867  -3.612  0.00  0.00    +0.015 C 
ATOM      6  C   UNL     1       2.199  -3.148  -4.338  0.00  0.00    +0.036 C 
ATOM      7  C   UNL     1       1.794  -2.014  -3.385  0.00  0.00    +0.166 C 
ATOM      8  O   UNL     1       1.956  -0.824  -3.555  0.00  0.00    -0.292 OA
ATOM      9  C   UNL     1       1.166  -2.673  -2.216  0.00  0.00    +0.006 C 
ATOM     10  C   UNL     1       0.659  -2.075  -1.122  0.00  0.00    +0.099 C 
ATOM     11  C   UNL     1       2.444  -2.762  -5.798  0.00  0.00    +0.020 C 
ATOM     12  C   UNL     1      -0.328  -3.607  -4.496  0.00  0.00    +0.012 C 
ENDROOT
BRANCH  10  13
ATOM     13  C   UNL     1       0.828  -0.621  -0.931  0.00  0.00    +0.334 C 
ATOM     14  O   UNL     1       1.469   0.026  -1.734  0.00  0.00    -0.246 OA
BRANCH  13  15
ATOM     15  O   UNL     1       0.270  -0.012   0.134  0.00  0.00    -0.443 OA
BRANCH  15  16
ATOM     16  C   UNL     1       0.478   1.419   0.258  0.00  0.00    +0.168 C 
ATOM     17  C   UNL     1       1.976   1.711   0.356  0.00  0.00    +0.070 C 
ATOM     18  C   UNL     1      -0.101   2.127  -0.969  0.00  0.00    +0.070 C 
BRANCH  16  19
ATOM     19  C   UNL     1      -0.198   1.910   1.471  0.00  0.00    -0.059 C 
ATOM     20  C   UNL     1      -0.736   2.301   2.438  0.00  0.00    +0.008 C 
ENDBRANCH  16  19
ENDBRANCH  15  16
ENDBRANCH  13  15
ENDBRANCH  10  13
TORSDOF 4
