REMARK  Name = ZINC44975319
REMARK  8 active torsions:
REMARK  status: ('A' for Active; 'I' for Inactive)
REMARK    1  A    between atoms: C_1  and  C_2
REMARK    2  A    between atoms: C_5  and  N_8
REMARK    3  A    between atoms: C_11  and  C_14
REMARK    4  A    between atoms: C_14  and  N_15
REMARK    5  A    between atoms: C_28  and  C_30
REMARK    6  A    between atoms: C_34  and  O_36
REMARK    7  A    between atoms: O_36  and  C_37
REMARK    8  A    between atoms: C_38  and  C_40
REMARK                            x       y       z     vdW  Elec       q    Type
REMARK                         _______ _______ _______ _____ _____    ______ ____
ROOT
ATOM      1  N   UNL     1      -0.765  -8.796   2.792  0.00  0.00    -0.284 NA
ATOM      2  C   UNL     1      -1.551  -8.341   3.948  0.00  0.00    +0.090 C 
ATOM      3  C   UNL     1      -3.030  -8.693   3.730  0.00  0.00    +0.053 C 
ATOM      4  C   UNL     1      -3.108 -10.140   3.315  0.00  0.00    -0.016 A 
ATOM      5  C   UNL     1      -4.250 -11.026   3.292  0.00  0.00    +0.003 A 
ATOM      6  C   UNL     1      -5.596 -10.851   3.628  0.00  0.00    +0.010 A 
ATOM      7  C   UNL     1      -6.420 -11.939   3.478  0.00  0.00    +0.001 A 
ATOM      8  C   UNL     1      -5.952 -13.159   3.017  0.00  0.00    +0.002 A 
ATOM      9  C   UNL     1      -4.626 -13.361   2.678  0.00  0.00    +0.026 A 
ATOM     10  C   UNL     1      -3.765 -12.274   2.819  0.00  0.00    +0.047 A 
ATOM     11  N   UNL     1      -2.428 -12.128   2.581  0.00  0.00    -0.356 N 
ATOM     12  H   UNL     1      -1.841 -12.826   2.250  0.00  0.00    +0.166 HD
ATOM     13  C   UNL     1      -2.042 -10.850   2.880  0.00  0.00    +0.042 A 
ATOM     14  C   UNL     1      -0.655 -10.263   2.760  0.00  0.00    +0.135 C 
ENDROOT
BRANCH  14  15
ATOM     15  C   UNL     1      -0.033 -10.696   1.458  0.00  0.00    -0.021 A 
ATOM     16  C   UNL     1      -0.379 -10.059   0.281  0.00  0.00    +0.006 A 
ATOM     17  C   UNL     1       0.190 -10.454  -0.915  0.00  0.00    +0.004 A 
ATOM     18  C   UNL     1       1.108 -11.487  -0.937  0.00  0.00    +0.045 A 
ATOM     19  C   UNL     1       1.457 -12.127   0.243  0.00  0.00    +0.120 A 
ATOM     20  C   UNL     1       0.889 -11.725   1.443  0.00  0.00    +0.051 A 
BRANCH  19  21
ATOM     21  O   UNL     1       2.360 -13.143   0.224  0.00  0.00    -0.495 OA
ATOM     22  C   UNL     1       2.909 -13.500  -1.047  0.00  0.00    +0.277 C 
ENDBRANCH  19  21
ENDBRANCH  14  15
BRANCH   1  23
ATOM     23  C   UNL     1       0.562  -8.168   2.779  0.00  0.00    +0.141 C 
BRANCH  23  27
ATOM     24  N   UNL     1       0.059  -4.171  -0.021  0.00  0.00    -0.219 N 
ATOM     25  C   UNL     1       0.180  -4.872   1.175  0.00  0.00    +0.172 A 
ATOM     26  N   UNL     1       0.310  -6.168   1.354  0.00  0.00    -0.228 NA
ATOM     27  C   UNL     1       0.414  -6.683   2.565  0.00  0.00    +0.065 A 
ATOM     28  C   UNL     1       0.381  -5.817   3.607  0.00  0.00    +0.073 A 
ATOM     29  S   UNL     1       0.203  -4.264   2.745  0.00  0.00    -0.060 S 
ATOM     30  C   UNL     1      -0.033  -4.841  -1.187  0.00  0.00    +0.223 C 
ATOM     31  O   UNL     1      -0.102  -6.052  -1.188  0.00  0.00    -0.275 OA
ATOM     32  C   UNL     1      -0.050  -4.085  -2.491  0.00  0.00    +0.110 C 
BRANCH  24  37
ATOM     33  C   UNL     1      -0.045   1.502   0.011  0.00  0.00    +0.044 C 
ATOM     34  C   UNL     1      -0.018  -0.005   0.003  0.00  0.00    -0.050 A 
ATOM     35  C   UNL     1      -1.088  -0.718   0.511  0.00  0.00    +0.005 A 
ATOM     36  C   UNL     1      -1.065  -2.098   0.505  0.00  0.00    +0.024 A 
ATOM     37  C   UNL     1       0.033  -2.771  -0.014  0.00  0.00    +0.043 A 
ATOM     38  C   UNL     1       1.106  -2.053  -0.524  0.00  0.00    +0.024 A 
ATOM     39  C   UNL     1       1.076  -0.672  -0.519  0.00  0.00    +0.005 A 
ENDBRANCH  24  37
ENDBRANCH  23  27
ENDBRANCH   1  23
TORSDOF 5
