REMARK  Name = ZINC44406213
REMARK  10 active torsions:
REMARK  status: ('A' for Active; 'I' for Inactive)
REMARK    1  A    between atoms: C_1  and  C_2
REMARK    2  A    between atoms: C_2  and  C_3
REMARK    3  A    between atoms: C_3  and  C_5
REMARK    4  A    between atoms: C_3  and  N_23
REMARK    5  A    between atoms: C_5  and  C_6
REMARK    6  A    between atoms: C_9  and  C_21
REMARK    7  A    between atoms: C_10  and  C_16
REMARK    8  A    between atoms: C_16  and  O_18
REMARK    9  A    between atoms: O_18  and  C_19
REMARK   10  A    between atoms: C_19  and  C_20
REMARK                            x       y       z     vdW  Elec       q    Type
REMARK                         _______ _______ _______ _____ _____    ______ ____
ROOT
ATOM      1  C   UNL     1       1.227  -2.500  -2.628  0.00  0.00    -0.052 C 
ATOM      2  C   UNL     1       2.502  -2.888  -2.639  0.00  0.00    +0.049 C 
ATOM      3  C   UNL     1       3.061  -3.312  -3.942  0.00  0.00    +0.017 A 
ATOM      4  C   UNL     1       4.205  -4.039  -4.263  0.00  0.00    -0.010 A 
ATOM      5  C   UNL     1       4.239  -4.140  -5.631  0.00  0.00    +0.128 A 
ATOM      6  N   UNL     1       3.134  -3.486  -6.143  0.00  0.00    -0.352 N 
ATOM      7  H   UNL     1       2.913  -3.404  -7.083  0.00  0.00    +0.166 HD
ATOM      8  C   UNL     1       2.419  -2.987  -5.132  0.00  0.00    +0.026 A 
ATOM      9  C   UNL     1       1.134  -2.199  -5.130  0.00  0.00    +0.058 C 
ATOM     10  C   UNL     1       0.360  -2.524  -3.849  0.00  0.00    +0.038 C 
ATOM     11  C   UNL     1       5.211  -4.605  -3.296  0.00  0.00    +0.047 C 
ATOM     12 CL   UNL     1       3.462  -2.894  -1.193  0.00  0.00    -0.083 Cl
ENDROOT
BRANCH   5  13
ATOM     13  C   UNL     1       5.271  -4.823  -6.416  0.00  0.00    +0.356 C 
ATOM     14  O   UNL     1       6.203  -5.366  -5.854  0.00  0.00    -0.243 OA
BRANCH  13  15
ATOM     15  O   UNL     1       5.188  -4.850  -7.762  0.00  0.00    -0.460 OA
BRANCH  15  16
ATOM     16  C   UNL     1       6.228  -5.534  -8.463  0.00  0.00    +0.229 C 
ATOM     17  C   UNL     1       5.964  -5.458  -9.968  0.00  0.00    +0.048 C 
ENDBRANCH  15  16
ENDBRANCH  13  15
ENDBRANCH   5  13
BRANCH   1  18
ATOM     18  C   UNL     1       0.630  -2.023  -1.329  0.00  0.00    +0.016 C 
BRANCH  18  19
ATOM     19  C   UNL     1       0.718  -0.497  -1.257  0.00  0.00    -0.071 C 
BRANCH  19  20
ATOM     20  N   UNL     1       2.129  -0.090  -1.209  0.00  0.00    +0.380 N 
ATOM     21  H   UNL     1       2.567  -0.491  -0.394  0.00  0.00    -0.090 HD
ATOM     22  H   UNL     1       2.601  -0.415  -2.039  0.00  0.00    -0.090 HD
ATOM     23  H   UNL     1       2.187   0.916  -1.162  0.00  0.00    -0.090 HD
ENDBRANCH  19  20
BRANCH  19  25
ATOM     24  C   UNL     1      -0.019   1.526   0.010  0.00  0.00    +0.002 C 
ATOM     25  C   UNL     1       0.002  -0.004   0.002  0.00  0.00    -0.019 C 
ENDBRANCH  19  25
ENDBRANCH  18  19
ENDBRANCH   1  18
TORSDOF 7
