REMARK  Name = ZINC36045950
REMARK  11 active torsions:
REMARK  status: ('A' for Active; 'I' for Inactive)
REMARK    1  A    between atoms: C_1  and  C_2
REMARK    2  A    between atoms: C_2  and  C_3
REMARK    3  A    between atoms: C_2  and  N_4
REMARK    4  A    between atoms: C_5  and  C_7
REMARK    5  A    between atoms: C_12  and  C_14
REMARK    6  A    between atoms: C_18  and  O_20
REMARK    7  A    between atoms: O_20  and  C_21
REMARK    8  A    between atoms: N_24  and  C_25
REMARK    9  A    between atoms: C_25  and  C_26
REMARK   10  A    between atoms: C_25  and  C_27
REMARK   11  A    between atoms: C_25  and  C_28
REMARK                            x       y       z     vdW  Elec       q    Type
REMARK                         _______ _______ _______ _____ _____    ______ ____
ROOT
ATOM      1  C   UNL     1      -3.057  -2.256  -0.474  0.00  0.00    +0.101 C 
ATOM      2  C   UNL     1      -3.565  -2.399   0.977  0.00  0.00    +0.122 C 
ATOM      3  N   UNL     1      -3.304  -3.815   1.326  0.00  0.00    -0.284 N 
ATOM      4  C   UNL     1      -3.640  -4.565   0.094  0.00  0.00    +0.118 C 
ATOM      5  C   UNL     1      -3.107  -3.683  -1.059  0.00  0.00    +0.050 C 
ATOM      6  C   UNL     1      -2.861  -4.308   2.500  0.00  0.00    +0.303 C 
ATOM      7  O   UNL     1      -2.694  -5.505   2.631  0.00  0.00    -0.253 OA
ATOM      8  N   UNL     1      -2.602  -3.475   3.527  0.00  0.00    -0.294 N 
ATOM      9  H   UNL     1      -2.735  -2.520   3.421  0.00  0.00    +0.151 HD
ENDROOT
BRANCH   5  10
ATOM     10  C   UNL     1      -4.045  -3.734  -2.237  0.00  0.00    -0.039 A 
ATOM     11  C   UNL     1      -5.377  -3.401  -2.075  0.00  0.00    +0.004 A 
ATOM     12  C   UNL     1      -6.240  -3.447  -3.154  0.00  0.00    +0.004 A 
ATOM     13  C   UNL     1      -5.773  -3.826  -4.397  0.00  0.00    +0.045 A 
ATOM     14  C   UNL     1      -4.437  -4.159  -4.563  0.00  0.00    +0.120 A 
ATOM     15  C   UNL     1      -3.571  -4.107  -3.480  0.00  0.00    +0.049 A 
BRANCH  14  16
ATOM     16  O   UNL     1      -3.975  -4.532  -5.786  0.00  0.00    -0.495 OA
ATOM     17  C   UNL     1      -4.921  -4.558  -6.857  0.00  0.00    +0.277 C 
ENDBRANCH  14  16
ENDBRANCH   5  10
BRANCH   1  19
ATOM     18  N   UNL     1      -1.372  -0.511   0.012  0.00  0.00    -0.313 N 
ATOM     19  C   UNL     1      -1.643  -1.734  -0.485  0.00  0.00    +0.218 C 
ATOM     20  O   UNL     1      -0.749  -2.415  -0.941  0.00  0.00    -0.275 OA
ATOM     21  H   UNL     1      -2.087   0.033   0.377  0.00  0.00    +0.149 HD
BRANCH  18  23
ATOM     22  C   UNL     1      -0.019   1.526   0.010  0.00  0.00    +0.027 C 
ATOM     23  C   UNL     1       0.002  -0.004   0.002  0.00  0.00    +0.067 C 
ATOM     24  C   UNL     1       0.742  -0.511   1.242  0.00  0.00    +0.027 C 
ENDBRANCH  18  23
ENDBRANCH   1  19
BRANCH   8  25
ATOM     25  C   UNL     1      -2.121  -4.011   4.802  0.00  0.00    +0.028 C 
ATOM     26  C   UNL     1      -0.797  -4.745   4.579  0.00  0.00    +0.031 C 
ATOM     27  C   UNL     1      -1.907  -2.863   5.790  0.00  0.00    +0.031 C 
ATOM     28  C   UNL     1      -3.155  -4.986   5.368  0.00  0.00    +0.031 C 
ENDBRANCH   8  25
TORSDOF 5
