REMARK  Name = ZINC42529202
REMARK  11 active torsions:
REMARK  status: ('A' for Active; 'I' for Inactive)
REMARK    1  A    between atoms: C_1  and  C_2
REMARK    2  A    between atoms: C_2  and  C_3
REMARK    3  A    between atoms: C_2  and  N_4
REMARK    4  A    between atoms: N_4  and  C_5
REMARK    5  A    between atoms: N_4  and  C_11
REMARK    6  A    between atoms: C_5  and  C_6
REMARK    7  A    between atoms: C_6  and  C_7
REMARK    8  A    between atoms: N_8  and  O_9
REMARK    9  A    between atoms: C_11  and  C_12
REMARK   10  A    between atoms: C_12  and  O_13
REMARK   11  A    between atoms: O_13  and  C_14
REMARK                            x       y       z     vdW  Elec       q    Type
REMARK                         _______ _______ _______ _____ _____    ______ ____
ROOT
ATOM      1  N   UNL     1      -1.396  -0.507  -0.118  0.00  0.00    +0.384 N 
ATOM      2  H   UNL     1      -1.447  -0.010   0.759  0.00  0.00    -0.081 HD
ENDROOT
BRANCH   1   4
ATOM      3  C   UNL     1       1.049  -0.368  -0.126  0.00  0.00    -0.014 C 
ATOM      4  C   UNL     1      -0.237  -0.030  -0.884  0.00  0.00    -0.075 C 
ATOM      5  C   UNL     1      -0.215  -0.711  -2.254  0.00  0.00    -0.014 C 
ENDBRANCH   1   4
BRANCH   1   6
ATOM      6  C   UNL     1      -1.253  -1.946   0.142  0.00  0.00    -0.071 C 
BRANCH   6   7
ATOM      7  C   UNL     1      -0.453  -2.155   1.429  0.00  0.00    +0.056 C 
BRANCH   7   8
ATOM      8  C   UNL     1      -0.262  -3.630   1.668  0.00  0.00    +0.130 C 
ATOM      9  N   UNL     1      -0.751  -4.488   0.835  0.00  0.00    -0.077 NA
ATOM     10  N   UNL     1       0.434  -4.064   2.774  0.00  0.00    -0.344 N 
ATOM     11  H   UNL     1       0.801  -3.420   3.400  0.00  0.00    +0.143 HD
ATOM     12  H   UNL     1       0.556  -5.014   2.928  0.00  0.00    +0.143 HD
BRANCH   9  13
ATOM     13  O   UNL     1      -0.572  -5.875   1.059  0.00  0.00    -0.408 OA
ATOM     14  H   UNL     1      -0.973  -6.438   0.383  0.00  0.00    +0.328 HD
ENDBRANCH   9  13
ENDBRANCH   7   8
ENDBRANCH   6   7
ENDBRANCH   1   6
BRANCH   1  15
ATOM     15  C   UNL     1      -2.624  -0.268  -0.888  0.00  0.00    -0.037 C 
BRANCH  15  16
ATOM     16  C   UNL     1      -2.865   1.238  -1.008  0.00  0.00    +0.210 C 
BRANCH  16  17
ATOM     17  O   UNL     1      -1.856   1.818  -1.837  0.00  0.00    -0.494 OA
BRANCH  17  18
ATOM     18  C   UNL     1      -1.868   3.171  -1.970  0.00  0.00    +0.120 A 
ATOM     19  C   UNL     1      -2.829   3.925  -1.311  0.00  0.00    +0.047 A 
ATOM     20  C   UNL     1      -2.839   5.299  -1.448  0.00  0.00    +0.019 A 
ATOM     21  C   UNL     1      -1.893   5.924  -2.240  0.00  0.00    +0.018 A 
ATOM     22  C   UNL     1      -0.935   5.174  -2.898  0.00  0.00    +0.019 A 
ATOM     23  C   UNL     1      -0.917   3.800  -2.760  0.00  0.00    +0.047 A 
ATOM     24 BR   UNL     1      -1.910   7.806  -2.425  0.00  0.00    -0.050 Br
ENDBRANCH  17  18
ENDBRANCH  16  17
ENDBRANCH  15  16
ENDBRANCH   1  15
TORSDOF 9
