REMARK  Name = ZINC38850210
REMARK  7 active torsions:
REMARK  status: ('A' for Active; 'I' for Inactive)
REMARK    1  A    between atoms: C_1  and  C_2
REMARK    2  A    between atoms: C_3  and  N_15
REMARK    3  A    between atoms: N_6  and  C_9
REMARK    4  A    between atoms: N_7  and  C_8
REMARK    5  A    between atoms: C_16  and  C_18
REMARK    6  A    between atoms: N_23  and  C_25
REMARK    7  A    between atoms: C_25  and  C_26
REMARK                            x       y       z     vdW  Elec       q    Type
REMARK                         _______ _______ _______ _____ _____    ______ ____
ROOT
ATOM      1  N   UNL     1       0.416  -0.301  -2.374  0.00  0.00    -0.280 N 
ATOM      2  C   UNL     1       0.806  -1.015  -3.448  0.00  0.00    +0.219 C 
ATOM      3  O   UNL     1       1.002  -2.208  -3.345  0.00  0.00    -0.275 OA
ATOM      4  H   UNL     1       0.328   0.663  -2.438  0.00  0.00    +0.155 HD
ENDROOT
BRANCH   1   7
ATOM      5  C   UNL     1      -2.254  -0.127  -0.872  0.00  0.00    +0.067 C 
ATOM      6  C   UNL     1      -1.026  -0.902  -0.468  0.00  0.00    +0.059 A 
ATOM      7  C   UNL     1       0.135  -0.954  -1.157  0.00  0.00    +0.121 A 
ATOM      8  C   UNL     1       1.047  -1.816  -0.405  0.00  0.00    +0.293 A 
ATOM      9  O   UNL     1       2.191  -2.104  -0.710  0.00  0.00    -0.264 OA
ATOM     10  N   UNL     1       0.380  -2.231   0.693  0.00  0.00    -0.216 N 
ATOM     11  N   UNL     1      -0.899  -1.665   0.662  0.00  0.00    -0.282 N 
ATOM     12  C   UNL     1      -1.939  -1.861   1.676  0.00  0.00    +0.171 C 
BRANCH  10  13
ATOM     13  C   UNL     1       0.882  -3.075   1.688  0.00  0.00    +0.067 A 
ATOM     14  C   UNL     1       0.135  -4.163   2.120  0.00  0.00    +0.028 A 
ATOM     15  C   UNL     1       0.633  -4.995   3.104  0.00  0.00    +0.002 A 
ATOM     16  C   UNL     1       1.874  -4.744   3.659  0.00  0.00    +0.000 A 
ATOM     17  C   UNL     1       2.620  -3.661   3.232  0.00  0.00    +0.002 A 
ATOM     18  C   UNL     1       2.131  -2.830   2.244  0.00  0.00    +0.028 A 
ENDBRANCH  10  13
ENDBRANCH   1   7
BRANCH   2  19
ATOM     19  C   UNL     1       0.999  -0.332  -4.777  0.00  0.00    +0.059 C 
ATOM     20  C   UNL     1       2.074   0.750  -4.645  0.00  0.00    +0.009 C 
ATOM     21  C   UNL     1       2.317   1.384  -6.018  0.00  0.00    -0.018 C 
ATOM     22  C   UNL     1       2.713   0.293  -7.015  0.00  0.00    -0.078 C 
ATOM     23  N   UNL     1       1.633  -0.697  -7.116  0.00  0.00    +0.383 N 
ATOM     24  C   UNL     1       1.442  -1.360  -5.821  0.00  0.00    -0.066 C 
ATOM     25  H   UNL     1       0.778  -0.234  -7.385  0.00  0.00    -0.081 HD
BRANCH  23  26
ATOM     26  C   UNL     1       1.984  -1.699  -8.131  0.00  0.00    -0.042 C 
BRANCH  26  27
ATOM     27  C   UNL     1       2.032  -1.045  -9.488  0.00  0.00    -0.056 A 
ATOM     28  C   UNL     1       3.230  -0.743 -10.059  0.00  0.00    +0.002 A 
ATOM     29  C   UNL     1       3.295  -0.138 -11.312  0.00  0.00    +0.001 A 
ATOM     30  C   UNL     1       2.163   0.169 -12.002  0.00  0.00    +0.008 A 
ATOM     31  C   UNL     1       0.907  -0.128 -11.444  0.00  0.00    -0.018 A 
ATOM     32  C   UNL     1       0.842  -0.749 -10.172  0.00  0.00    -0.017 A 
ATOM     33  C   UNL     1      -0.414  -1.052  -9.617  0.00  0.00    +0.009 A 
ATOM     34  C   UNL     1      -1.546  -0.750 -10.309  0.00  0.00    +0.001 A 
ATOM     35  C   UNL     1      -1.481  -0.146 -11.563  0.00  0.00    +0.001 A 
ATOM     36  C   UNL     1      -0.284   0.174 -12.126  0.00  0.00    +0.008 A 
ENDBRANCH  26  27
ENDBRANCH  23  26
ENDBRANCH   2  19
TORSDOF 5
