REMARK  Name = ZINC06222666
REMARK  3 active torsions:
REMARK  status: ('A' for Active; 'I' for Inactive)
REMARK    1  A    between atoms: C_4  and  N_7
REMARK    2  A    between atoms: C_12  and  C_15
REMARK    3  A    between atoms: C_15  and  C_16
REMARK                            x       y       z     vdW  Elec       q    Type
REMARK                         _______ _______ _______ _____ _____    ______ ____
ROOT
ATOM      1  N   UNL     1       3.600  -0.631  -0.037  0.00  0.00    -0.226 NA
ATOM      2  C   UNL     1       3.792  -1.657   0.759  0.00  0.00    +0.161 C 
ATOM      3  N   UNL     1       4.921  -2.438   0.885  0.00  0.00    -0.264 N 
ATOM      4  C   UNL     1       4.992  -3.452   1.731  0.00  0.00    +0.232 C 
ATOM      5  O   UNL     1       5.989  -4.134   1.837  0.00  0.00    -0.274 OA
ATOM      6  C   UNL     1       3.745  -3.709   2.562  0.00  0.00    +0.144 C 
ATOM      7  S   UNL     1       2.653  -2.365   1.940  0.00  0.00    -0.077 S 
ATOM      8  H   UNL     1       5.693  -2.236   0.333  0.00  0.00    +0.157 HD
ENDROOT
BRANCH   1  12
ATOM      9  C   UNL     1      -0.017   1.379   0.010  0.00  0.00    +0.000 A 
ATOM     10  C   UNL     1       1.168   2.094   0.002  0.00  0.00    +0.002 A 
ATOM     11  C   UNL     1       2.377   1.430  -0.013  0.00  0.00    +0.028 A 
ATOM     12  C   UNL     1       2.404   0.034  -0.021  0.00  0.00    +0.066 A 
ATOM     13  C   UNL     1       1.204  -0.681  -0.013  0.00  0.00    +0.028 A 
ATOM     14  C   UNL     1       0.002  -0.004   0.002  0.00  0.00    +0.002 A 
ENDBRANCH   1  12
BRANCH   6  15
ATOM     15  C   UNL     1       3.158  -5.091   2.267  0.00  0.00    +0.059 C 
BRANCH  15  16
ATOM     16  C   UNL     1       2.001  -5.353   3.196  0.00  0.00    -0.044 A 
ATOM     17  C   UNL     1       2.221  -5.957   4.421  0.00  0.00    +0.005 A 
ATOM     18  C   UNL     1       1.161  -6.198   5.274  0.00  0.00    +0.022 A 
ATOM     19  C   UNL     1      -0.122  -5.836   4.903  0.00  0.00    +0.059 A 
ATOM     20  C   UNL     1      -0.342  -5.231   3.677  0.00  0.00    +0.060 A 
ATOM     21  C   UNL     1       0.721  -4.985   2.827  0.00  0.00    +0.025 A 
ATOM     22 CL   UNL     1      -1.951  -4.776   3.210  0.00  0.00    -0.082 Cl
ATOM     23 CL   UNL     1      -1.454  -6.139   5.973  0.00  0.00    -0.082 Cl
ENDBRANCH  15  16
ENDBRANCH   6  15
TORSDOF 3
