REMARK  Name = ZINC40555452
REMARK  1 active torsions:
REMARK  status: ('A' for Active; 'I' for Inactive)
REMARK    1  A    between atoms: C_8  and  C_10
REMARK                            x       y       z     vdW  Elec       q    Type
REMARK                         _______ _______ _______ _____ _____    ______ ____
ROOT
ATOM      1  C   UNL     1       3.700  -3.148  -0.252  0.00  0.00    +0.092 C 
ATOM      2  C   UNL     1       4.422  -3.334   1.084  0.00  0.00    +0.016 C 
ATOM      3  C   UNL     1       4.992  -4.752   1.165  0.00  0.00    +0.020 C 
ATOM      4  C   UNL     1       6.005  -4.956   0.035  0.00  0.00    +0.106 C 
ATOM      5  N   UNL     1       5.357  -4.639  -1.245  0.00  0.00    -0.314 N 
ATOM      6  C   UNL     1       4.698  -3.334  -1.399  0.00  0.00    +0.119 C 
ATOM      7  C   UNL     1       5.366  -5.552  -2.287  0.00  0.00    +0.128 A 
ATOM      8  C   UNL     1       6.168  -6.692  -2.222  0.00  0.00    +0.084 A 
ATOM      9  C   UNL     1       6.146  -7.576  -3.285  0.00  0.00    +0.136 A 
ATOM     10  N   UNL     1       5.368  -7.316  -4.327  0.00  0.00    -0.203 NA
ATOM     11  C   UNL     1       4.617  -6.225  -4.361  0.00  0.00    +0.216 A 
ATOM     12  N   UNL     1       4.607  -5.357  -3.361  0.00  0.00    -0.200 NA
ATOM     13  N   UNL     1       3.820  -5.989  -5.467  0.00  0.00    -0.327 N 
ATOM     14 CL   UNL     1       7.124  -9.009  -3.256  0.00  0.00    -0.062 Cl
ATOM     15  H   UNL     1       3.815  -6.619  -6.205  0.00  0.00    +0.145 HD
ATOM     16  H   UNL     1       3.265  -5.194  -5.504  0.00  0.00    +0.145 HD
ENDROOT
BRANCH   1  24
ATOM     17  C   UNL     1       0.737   2.054  -0.581  0.00  0.00    +0.002 A 
ATOM     18  C   UNL     1       2.002   2.606  -0.441  0.00  0.00    +0.004 A 
ATOM     19  C   UNL     1       3.110   1.792  -0.318  0.00  0.00    +0.048 A 
ATOM     20  C   UNL     1       2.959   0.414  -0.334  0.00  0.00    +0.155 A 
ATOM     21  C   UNL     1       1.681  -0.147  -0.476  0.00  0.00    +0.110 A 
ATOM     22  C   UNL     1       0.570   0.688  -0.599  0.00  0.00    +0.031 A 
ATOM     23  N   UNL     1       1.847  -1.498  -0.457  0.00  0.00    -0.213 NA
ATOM     24  C   UNL     1       3.112  -1.762  -0.317  0.00  0.00    +0.201 A 
ATOM     25  O   UNL     1       3.819  -0.624  -0.239  0.00  0.00    -0.439 OA
ENDBRANCH   1  24
TORSDOF 1
