REMARK  Name = ZINC05864587
REMARK  7 active torsions:
REMARK  status: ('A' for Active; 'I' for Inactive)
REMARK    1  A    between atoms: C_1  and  C_2
REMARK    2  A    between atoms: C_2  and  C_30
REMARK    3  A    between atoms: C_6  and  C_19
REMARK    4  A    between atoms: C_13  and  S_17
REMARK    5  A    between atoms: S_17  and  C_18
REMARK    6  A    between atoms: C_24  and  O_25
REMARK    7  A    between atoms: O_25  and  C_26
REMARK                            x       y       z     vdW  Elec       q    Type
REMARK                         _______ _______ _______ _____ _____    ______ ____
ROOT
ATOM      1  C   UNL     1      -4.938  -0.049  -0.954  0.00  0.00    +0.011 C 
ATOM      2  C   UNL     1      -4.820  -0.286   0.553  0.00  0.00    -0.023 C 
ATOM      3  C   UNL     1      -3.493  -0.982   0.862  0.00  0.00    +0.058 C 
ATOM      4  C   UNL     1      -2.345  -0.101   0.430  0.00  0.00    +0.017 C 
ATOM      5  C   UNL     1      -2.457   1.244   0.452  0.00  0.00    +0.024 C 
ATOM      6  C   UNL     1      -1.315   2.130   0.020  0.00  0.00    +0.096 C 
ATOM      7  C   UNL     1      -0.017   1.380   0.010  0.00  0.00    +0.069 A 
ATOM      8  C   UNL     1       1.200   2.072   0.002  0.00  0.00    +0.258 A 
ATOM      9  O   UNL     1       1.221   3.292   0.010  0.00  0.00    -0.267 OA
ATOM     10  N   UNL     1       2.349   1.364  -0.016  0.00  0.00    -0.302 N 
ATOM     11  H   UNL     1       3.317   1.887  -0.022  0.00  0.00    +0.171 HD
ATOM     12  C   UNL     1       2.313   0.002  -0.027  0.00  0.00    +0.171 A 
ATOM     13  N   UNL     1       1.171  -0.654  -0.018  0.00  0.00    -0.208 NA
ATOM     14  C   UNL     1       0.002  -0.004   0.002  0.00  0.00    +0.135 A 
ATOM     15  N   UNL     1      -1.188  -0.704   0.019  0.00  0.00    -0.302 N 
ATOM     16  C   UNL     1      -3.646   1.865   0.874  0.00  0.00    +0.162 C 
ATOM     17  O   UNL     1      -3.706   3.079   0.903  0.00  0.00    -0.292 OA
ATOM     18  C   UNL     1      -4.845   1.058   1.290  0.00  0.00    +0.086 C 
ATOM     19  C   UNL     1      -5.983  -1.158   1.030  0.00  0.00    +0.011 C 
ATOM     20  H   UNL     1      -1.200  -1.757  -0.301  0.00  0.00    +0.153 HD
ENDROOT
BRANCH   6  21
ATOM     21  C   UNL     1      -1.593   2.655  -1.365  0.00  0.00    +0.006 A 
ATOM     22  C   UNL     1      -1.711   1.778  -2.426  0.00  0.00    +0.008 A 
ATOM     23  C   UNL     1      -1.969   2.258  -3.696  0.00  0.00    +0.001 A 
ATOM     24  C   UNL     1      -2.101   3.618  -3.910  0.00  0.00    +0.004 A 
ATOM     25  C   UNL     1      -1.979   4.500  -2.854  0.00  0.00    +0.046 A 
ATOM     26  C   UNL     1      -1.724   4.019  -1.577  0.00  0.00    +0.124 A 
BRANCH  26  27
ATOM     27  O   UNL     1      -1.603   4.884  -0.536  0.00  0.00    -0.495 OA
ATOM     28  C   UNL     1      -1.750   6.276  -0.828  0.00  0.00    +0.277 C 
ENDBRANCH  26  27
ENDBRANCH   6  21
BRANCH  12  29
ATOM     29  S   UNL     1       3.826  -0.901  -0.054  0.00  0.00    -0.091 S 
ATOM     30  C   UNL     1       3.183  -2.592  -0.060  0.00  0.00    +0.093 C 
ENDBRANCH  12  29
TORSDOF 3
