REMARK  Name = ZINC23271060
REMARK  6 active torsions:
REMARK  status: ('A' for Active; 'I' for Inactive)
REMARK    1  A    between atoms: C_4  and  C_7
REMARK    2  A    between atoms: N_12  and  C_14
REMARK    3  A    between atoms: C_14  and  N_15
REMARK    4  A    between atoms: N_18  and  C_21
REMARK    5  A    between atoms: C_21  and  C_22
REMARK    6  A    between atoms: C_24  and  C_27
REMARK                            x       y       z     vdW  Elec       q    Type
REMARK                         _______ _______ _______ _____ _____    ______ ____
ROOT
ATOM      1  N   UNL     1      -1.864   5.134  -1.339  0.00  0.00    +0.394 N 
ATOM      2  C   UNL     1      -0.658   5.613  -2.029  0.00  0.00    -0.061 C 
ATOM      3  C   UNL     1      -1.003   5.942  -3.483  0.00  0.00    +0.066 C 
ATOM      4  N   UNL     1      -2.063   6.959  -3.514  0.00  0.00    -0.297 NA
ATOM      5  C   UNL     1      -3.269   6.481  -2.824  0.00  0.00    +0.066 C 
ATOM      6  C   UNL     1      -2.924   6.151  -1.370  0.00  0.00    -0.061 C 
ATOM      7  H   UNL     1      -2.230   4.245  -1.872  0.00  0.00    -0.079 HD
ENDROOT
BRANCH   1   8
ATOM      8  C   UNL     1      -1.557   4.736   0.042  0.00  0.00    +0.072 C 
BRANCH   8  14
ATOM      9  C   UNL     1      -0.018   1.476   0.010  0.00  0.00    +0.160 A 
ATOM     10  N   UNL     1       1.092   2.297   0.004  0.00  0.00    -0.317 N 
ATOM     11  H   UNL     1       2.101   1.859  -0.008  0.00  0.00    +0.169 HD
ATOM     12  C   UNL     1       0.670   3.577   0.015  0.00  0.00    +0.174 A 
ATOM     13  S   UNL     1       1.666   4.970   0.013  0.00  0.00    -0.012 S 
ATOM     14  N   UNL     1      -0.679   3.563   0.028  0.00  0.00    -0.257 N 
ATOM     15  N   UNL     1      -1.086   2.222   0.019  0.00  0.00    -0.153 NA
BRANCH   9  19
ATOM     16  C   UNL     1       0.040  -2.773  -0.013  0.00  0.00    +0.000 A 
ATOM     17  C   UNL     1      -1.169  -2.100   0.002  0.00  0.00    +0.001 A 
ATOM     18  C   UNL     1      -1.195  -0.721   0.010  0.00  0.00    +0.011 A 
ATOM     19  C   UNL     1       0.002  -0.004   0.002  0.00  0.00    +0.019 A 
ATOM     20  C   UNL     1       1.218  -0.688  -0.019  0.00  0.00    +0.011 A 
ATOM     21  C   UNL     1       1.230  -2.068  -0.020  0.00  0.00    +0.001 A 
ENDBRANCH   9  19
ENDBRANCH   8  14
ENDBRANCH   1   8
BRANCH   4  22
ATOM     22  C   UNL     1      -2.370   7.358  -4.895  0.00  0.00    +0.183 C 
BRANCH  22  23
ATOM     23  C   UNL     1      -1.086   7.607  -5.643  0.00  0.00    +0.242 A 
ATOM     24  N   UNL     1      -0.400   6.725  -6.326  0.00  0.00    -0.190 NA
ATOM     25  C   UNL     1       0.666   7.396  -6.818  0.00  0.00    +0.202 A 
ATOM     26  N   UNL     1       0.566   8.634  -6.409  0.00  0.00    -0.056 NA
ATOM     27  O   UNL     1      -0.436   8.771  -5.739  0.00  0.00    -0.336 OA
BRANCH  25  28
ATOM     28  C   UNL     1       1.748   6.832  -7.664  0.00  0.00    +0.023 A 
ATOM     29  C   UNL     1       1.728   5.485  -8.019  0.00  0.00    +0.013 A 
ATOM     30  C   UNL     1       2.733   4.968  -8.810  0.00  0.00    +0.021 A 
ATOM     31  C   UNL     1       3.766   5.782  -9.241  0.00  0.00    +0.041 A 
ATOM     32  C   UNL     1       3.794   7.120  -8.887  0.00  0.00    +0.021 A 
ATOM     33  C   UNL     1       2.790   7.648  -8.100  0.00  0.00    +0.013 A 
ATOM     34 CL   UNL     1       5.032   5.123 -10.230  0.00  0.00    -0.084 Cl
ENDBRANCH  25  28
ENDBRANCH  22  23
ENDBRANCH   4  22
TORSDOF 6
