REMARK  Name = ZINC06400331
REMARK  7 active torsions:
REMARK  status: ('A' for Active; 'I' for Inactive)
REMARK    1  A    between atoms: C_1  and  C_2
REMARK    2  A    between atoms: C_5  and  N_9
REMARK    3  A    between atoms: C_6  and  C_8
REMARK    4  A    between atoms: N_9  and  C_10
REMARK    5  A    between atoms: C_10  and  N_12
REMARK    6  A    between atoms: N_15  and  C_18
REMARK    7  A    between atoms: C_23  and  O_24
REMARK                            x       y       z     vdW  Elec       q    Type
REMARK                         _______ _______ _______ _____ _____    ______ ____
ROOT
ATOM      1  N   UNL     1       1.089   2.469  -0.078  0.00  0.00    -0.309 N 
ATOM      2  C   UNL     1       1.024   3.925  -0.278  0.00  0.00    +0.125 C 
ATOM      3  C   UNL     1       1.780   4.604   0.876  0.00  0.00    +0.124 C 
ATOM      4  N   UNL     1       3.137   4.049   0.959  0.00  0.00    -0.324 N 
ATOM      5  C   UNL     1       3.108   2.616   1.281  0.00  0.00    +0.124 C 
ATOM      6  C   UNL     1       2.407   1.856   0.150  0.00  0.00    +0.125 C 
ENDROOT
BRANCH   4   7
ATOM      7  C   UNL     1       3.912   4.756   1.886  0.00  0.00    +0.072 A 
ATOM      8  C   UNL     1       3.316   5.687   2.725  0.00  0.00    +0.027 A 
ATOM      9  C   UNL     1       4.082   6.380   3.643  0.00  0.00    +0.002 A 
ATOM     10  C   UNL     1       5.444   6.156   3.721  0.00  0.00    +0.004 A 
ATOM     11  C   UNL     1       6.046   5.234   2.885  0.00  0.00    +0.047 A 
ATOM     12  C   UNL     1       5.284   4.531   1.966  0.00  0.00    +0.138 A 
BRANCH  12  13
ATOM     13  O   UNL     1       5.875   3.624   1.142  0.00  0.00    -0.505 OA
ATOM     14  H   UNL     1       6.185   3.997   0.305  0.00  0.00    +0.292 HD
ENDBRANCH  12  13
ENDBRANCH   4   7
BRANCH   1  15
ATOM     15  C   UNL     1      -0.028   1.716  -0.108  0.00  0.00    +0.137 C 
ATOM     16  S   UNL     1       0.086   0.011  -0.005  0.00  0.00    -0.018 S 
BRANCH  15  17
ATOM     17  N   UNL     1      -1.234   2.305  -0.224  0.00  0.00    -0.297 N 
ATOM     18  H   UNL     1      -1.796   2.420   0.558  0.00  0.00    +0.154 HD
BRANCH  17  23
ATOM     19  C   UNL     1      -3.032   4.109  -5.293  0.00  0.00    +0.044 C 
ATOM     20  C   UNL     1      -2.555   3.631  -3.946  0.00  0.00    -0.050 A 
ATOM     21  C   UNL     1      -1.276   3.121  -3.809  0.00  0.00    +0.005 A 
ATOM     22  C   UNL     1      -0.836   2.681  -2.577  0.00  0.00    +0.024 A 
ATOM     23  C   UNL     1      -1.678   2.750  -1.474  0.00  0.00    +0.036 A 
ATOM     24  C   UNL     1      -2.962   3.258  -1.617  0.00  0.00    -0.029 A 
ATOM     25  C   UNL     1      -3.395   3.701  -2.851  0.00  0.00    +0.008 A 
ATOM     26  C   UNL     1      -3.881   3.329  -0.424  0.00  0.00    +0.045 C 
ENDBRANCH  17  23
ENDBRANCH  15  17
ENDBRANCH   1  15
TORSDOF 5
