REMARK  Name = ZINC12371480
REMARK  9 active torsions:
REMARK  status: ('A' for Active; 'I' for Inactive)
REMARK    1  A    between atoms: C_1  and  O_2
REMARK    2  A    between atoms: O_2  and  C_3
REMARK    3  A    between atoms: C_13  and  C_18
REMARK    4  A    between atoms: C_21  and  O_26
REMARK    5  A    between atoms: C_22  and  O_24
REMARK    6  A    between atoms: O_24  and  C_25
REMARK    7  A    between atoms: O_26  and  C_27
REMARK    8  A    between atoms: C_27  and  C_28
REMARK    9  A    between atoms: C_31  and  N_34
REMARK                            x       y       z     vdW  Elec       q    Type
REMARK                         _______ _______ _______ _____ _____    ______ ____
ROOT
ATOM      1  C   UNL     1      -2.742   0.132  -0.953  0.00  0.00    -0.021 A 
ATOM      2  C   UNL     1      -2.863   0.404  -2.303  0.00  0.00    +0.009 A 
ATOM      3  C   UNL     1      -3.012  -0.629  -3.209  0.00  0.00    +0.050 A 
ATOM      4  C   UNL     1      -3.053  -1.940  -2.764  0.00  0.00    +0.162 A 
ATOM      5  C   UNL     1      -2.937  -2.215  -1.405  0.00  0.00    +0.162 A 
ATOM      6  C   UNL     1      -2.782  -1.175  -0.503  0.00  0.00    +0.055 A 
ENDROOT
BRANCH   1  17
ATOM      7  C   UNL     1       2.938   3.870  -0.007  0.00  0.00    +0.121 A 
ATOM      8  C   UNL     1       3.377   2.549  -0.017  0.00  0.00    +0.047 A 
ATOM      9  C   UNL     1       2.474   1.510  -0.012  0.00  0.00    +0.030 A 
ATOM     10  C   UNL     1       1.108   1.774   0.001  0.00  0.00    +0.047 A 
ATOM     11  C   UNL     1       0.660   3.109   0.012  0.00  0.00    +0.007 A 
ATOM     12  C   UNL     1       1.587   4.154   0.007  0.00  0.00    +0.056 A 
ATOM     13  C   UNL     1      -0.796   3.038   0.026  0.00  0.00    -0.016 A 
ATOM     14  C   UNL     1      -1.138   1.734   0.016  0.00  0.00    +0.042 A 
ATOM     15  N   UNL     1      -0.011   0.966   0.007  0.00  0.00    -0.356 N 
ATOM     16  H   UNL     1       0.101  -0.129   0.005  0.00  0.00    +0.166 HD
ATOM     17  C   UNL     1      -2.574   1.261   0.030  0.00  0.00    +0.132 C 
ATOM     18  N   UNL     1      -3.436   2.389  -0.358  0.00  0.00    -0.304 NA
ATOM     19  C   UNL     1      -3.156   3.584   0.450  0.00  0.00    +0.086 C 
ATOM     20  C   UNL     1      -1.795   4.167   0.045  0.00  0.00    +0.052 C 
ATOM     21  H   UNL     1      -3.264   2.636  -1.416  0.00  0.00    +0.123 HD
BRANCH   7  23
ATOM     22  C   UNL     1       5.225   4.521  -0.025  0.00  0.00    +0.277 C 
ATOM     23  O   UNL     1       3.843   4.885  -0.011  0.00  0.00    -0.495 OA
ENDBRANCH   7  23
ENDBRANCH   1  17
BRANCH   5  24
ATOM     24  O   UNL     1      -2.975  -3.500  -0.964  0.00  0.00    -0.491 OA
ATOM     25  C   UNL     1      -2.850  -3.706   0.445  0.00  0.00    +0.277 C 
ENDBRANCH   5  24
BRANCH   4  26
ATOM     26  O   UNL     1      -3.205  -2.958  -3.654  0.00  0.00    -0.484 OA
BRANCH  26  27
ATOM     27  C   UNL     1      -3.317  -2.601  -5.034  0.00  0.00    +0.264 C 
BRANCH  27  28
ATOM     28  C   UNL     1      -3.478  -3.849  -5.863  0.00  0.00    -0.010 A 
ATOM     29  C   UNL     1      -2.363  -4.494  -6.365  0.00  0.00    +0.009 A 
ATOM     30  C   UNL     1      -2.510  -5.641  -7.122  0.00  0.00    +0.033 A 
ATOM     31  C   UNL     1      -3.773  -6.138  -7.386  0.00  0.00    +0.126 A 
ATOM     32  C   UNL     1      -4.888  -5.491  -6.888  0.00  0.00    +0.033 A 
ATOM     33  C   UNL     1      -4.740  -4.346  -6.127  0.00  0.00    +0.009 A 
BRANCH  31  34
ATOM     34  N   UNL     1      -3.930  -7.364  -8.200  0.00  0.00    +0.056 N 
ATOM     35  O   UNL     1      -5.043  -7.802  -8.432  0.00  0.00    -0.126 OA
ATOM     36  O   UNL     1      -2.948  -7.934  -8.639  0.00  0.00    -0.126 OA
ENDBRANCH  31  34
ENDBRANCH  27  28
ENDBRANCH  26  27
ENDBRANCH   4  26
TORSDOF 7
