REMARK  Name = ZINC39533588
REMARK  14 active torsions:
REMARK  status: ('A' for Active; 'I' for Inactive)
REMARK    1  A    between atoms: C_1  and  C_2
REMARK    2  A    between atoms: C_2  and  C_3
REMARK    3  A    between atoms: C_2  and  C_4
REMARK    4  A    between atoms: C_4  and  C_5
REMARK    5  A    between atoms: C_8  and  C_11
REMARK    6  A    between atoms: C_11  and  C_13
REMARK    7  A    between atoms: C_11  and  N_22
REMARK    8  A    between atoms: C_13  and  N_14
REMARK    9  A    between atoms: N_14  and  C_15
REMARK   10  A    between atoms: C_15  and  C_16
REMARK   11  A    between atoms: C_26  and  S_29
REMARK   12  A    between atoms: S_29  and  C_32
REMARK   13  A    between atoms: C_32  and  C_33
REMARK   14  A    between atoms: C_32  and  C_34
REMARK                            x       y       z     vdW  Elec       q    Type
REMARK                         _______ _______ _______ _____ _____    ______ ____
ROOT
ATOM      1  C   UNL     1      -1.367  -6.290  -0.493  0.00  0.00    +0.070 C 
ENDROOT
BRANCH   1   2
ATOM      2  N   UNL     1      -0.348  -6.849   0.405  0.00  0.00    -0.293 NA
ATOM      3  C   UNL     1      -0.680  -6.579   1.811  0.00  0.00    +0.100 C 
ATOM      4  C   UNL     1       0.360  -7.245   2.714  0.00  0.00    +0.098 C 
ATOM      5  N   UNL     1       1.696  -6.728   2.383  0.00  0.00    -0.293 NA
ATOM      6  C   UNL     1       2.027  -6.998   0.977  0.00  0.00    +0.212 C 
ATOM      7  C   UNL     1       0.987  -6.332   0.073  0.00  0.00    +0.127 C 
ATOM      8  H   UNL     1       1.763  -5.742   2.588  0.00  0.00    +0.124 HD
BRANCH   6   9
ATOM      9  S   UNL     1       3.671  -6.328   0.604  0.00  0.00    -0.012 S 
ATOM     10  O   UNL     1       4.022  -6.707  -0.720  0.00  0.00    -0.173 OA
ATOM     11  O   UNL     1       3.685  -4.951   0.954  0.00  0.00    -0.173 OA
BRANCH   9  12
ATOM     12  C   UNL     1       4.742  -7.225   1.761  0.00  0.00    +0.126 C 
ATOM     13  C   UNL     1       4.641  -8.727   1.489  0.00  0.00    +0.031 C 
ATOM     14  C   UNL     1       6.190  -6.769   1.574  0.00  0.00    +0.031 C 
ENDBRANCH   9  12
ENDBRANCH   6   9
ENDBRANCH   1   2
BRANCH   1  18
ATOM     15  C   UNL     1      -1.700  -2.083   0.172  0.00  0.00    -0.047 A 
ATOM     16  C   UNL     1      -1.130  -2.555  -0.995  0.00  0.00    +0.004 A 
ATOM     17  C   UNL     1      -1.022  -3.917  -1.210  0.00  0.00    +0.005 A 
ATOM     18  C   UNL     1      -1.484  -4.806  -0.258  0.00  0.00    -0.032 A 
ATOM     19  C   UNL     1      -2.054  -4.334   0.909  0.00  0.00    +0.005 A 
ATOM     20  C   UNL     1      -2.158  -2.973   1.127  0.00  0.00    +0.004 A 
BRANCH  15  21
ATOM     21  C   UNL     1      -1.818  -0.600   0.407  0.00  0.00    +0.038 C 
BRANCH  21  23
ATOM     22  C   UNL     1      -0.623   1.430   1.241  0.00  0.00    +0.007 C 
ATOM     23  C   UNL     1      -0.559  -0.093   1.114  0.00  0.00    -0.013 C 
ATOM     24  C   UNL     1      -0.470  -0.718   2.508  0.00  0.00    +0.007 C 
ENDBRANCH  21  23
ENDBRANCH  15  21
ENDBRANCH   1  18
BRANCH   1  25
ATOM     25  C   UNL     1      -2.715  -6.958  -0.215  0.00  0.00    -0.058 C 
BRANCH  25  26
ATOM     26  N   UNL     1      -2.571  -8.416  -0.328  0.00  0.00    +0.383 N 
ATOM     27  H   UNL     1      -2.265  -8.652  -1.259  0.00  0.00    -0.085 HD
ATOM     28  H   UNL     1      -1.891  -8.739   0.343  0.00  0.00    -0.085 HD
BRANCH  26  29
ATOM     29  C   UNL     1      -3.866  -9.057  -0.060  0.00  0.00    -0.047 C 
BRANCH  29  30
ATOM     30  C   UNL     1      -3.718 -10.553  -0.176  0.00  0.00    -0.064 A 
ATOM     31  C   UNL     1      -3.917 -11.175  -1.394  0.00  0.00    +0.002 A 
ATOM     32  C   UNL     1      -3.782 -12.546  -1.500  0.00  0.00    +0.000 A 
ATOM     33  C   UNL     1      -3.448 -13.296  -0.388  0.00  0.00    +0.000 A 
ATOM     34  C   UNL     1      -3.248 -12.674   0.830  0.00  0.00    +0.000 A 
ATOM     35  C   UNL     1      -3.379 -11.302   0.935  0.00  0.00    +0.002 A 
ENDBRANCH  29  30
ENDBRANCH  26  29
ENDBRANCH  25  26
ENDBRANCH   1  25
TORSDOF 10
