REMARK  Name = ZINC45871980
REMARK  5 active torsions:
REMARK  status: ('A' for Active; 'I' for Inactive)
REMARK    1  A    between atoms: C_1  and  C_2
REMARK    2  A    between atoms: C_5  and  C_31
REMARK    3  A    between atoms: N_8  and  C_10
REMARK    4  A    between atoms: C_10  and  C_11
REMARK    5  A    between atoms: C_17  and  C_19
REMARK                            x       y       z     vdW  Elec       q    Type
REMARK                         _______ _______ _______ _____ _____    ______ ____
ROOT
ATOM      1  C   UNL     1       2.154   0.211   3.646  0.00  0.00    +0.034 A 
ATOM      2  C   UNL     1       2.367   1.358   4.336  0.00  0.00    +0.070 A 
ATOM      3  S   UNL     1       4.089   1.652   3.969  0.00  0.00    -0.060 S 
ATOM      4  C   UNL     1       4.352   0.307   2.992  0.00  0.00    +0.165 A 
ATOM      5  N   UNL     1       3.180  -0.291   2.985  0.00  0.00    -0.231 NA
ATOM      6  N   UNL     1       5.524  -0.081   2.352  0.00  0.00    -0.262 N 
ATOM      7  C   UNL     1       6.640   0.664   2.481  0.00  0.00    +0.260 C 
ATOM      8  O   UNL     1       6.622   1.672   3.155  0.00  0.00    -0.271 OA
ATOM      9  H   UNL     1       5.538  -0.887   1.813  0.00  0.00    +0.157 HD
ENDROOT
BRANCH   7  10
ATOM     10  C   UNL     1       7.910   0.244   1.788  0.00  0.00    +0.266 C 
ATOM     11  C   UNL     1       8.397  -1.081   2.375  0.00  0.00    +0.090 C 
ATOM     12  C   UNL     1       9.781  -1.398   1.871  0.00  0.00    -0.029 A 
ATOM     13  C   UNL     1      10.248  -2.696   1.900  0.00  0.00    +0.004 A 
ATOM     14  C   UNL     1      11.520  -2.985   1.439  0.00  0.00    +0.000 A 
ATOM     15  C   UNL     1      12.334  -1.980   0.946  0.00  0.00    +0.001 A 
ATOM     16  C   UNL     1      11.880  -0.677   0.911  0.00  0.00    +0.015 A 
ATOM     17  C   UNL     1      10.598  -0.382   1.372  0.00  0.00    +0.062 A 
ATOM     18  C   UNL     1      10.085   1.007   1.337  0.00  0.00    +0.340 C 
ATOM     19  O   UNL     1      10.685   1.890   0.757  0.00  0.00    -0.245 OA
ATOM     20  O   UNL     1       8.915   1.249   1.980  0.00  0.00    -0.448 OA
ENDBRANCH   7  10
BRANCH   1  21
ATOM     21  C   UNL     1       0.807  -0.464   3.639  0.00  0.00    -0.022 C 
BRANCH  21  27
ATOM     22  C   UNL     1      -0.019   1.526   0.010  0.00  0.00    +0.005 C 
ATOM     23  C   UNL     1       0.002  -0.004   0.002  0.00  0.00    -0.031 C 
ATOM     24  C   UNL     1      -1.434  -0.535   0.015  0.00  0.00    +0.003 C 
ATOM     25  C   UNL     1      -2.117  -0.099   1.315  0.00  0.00    -0.031 C 
ATOM     26  C   UNL     1      -1.302  -0.604   2.507  0.00  0.00    -0.075 C 
ATOM     27  N   UNL     1       0.052  -0.040   2.452  0.00  0.00    +0.384 N 
ATOM     28  C   UNL     1       0.740  -0.512   1.242  0.00  0.00    -0.075 C 
ATOM     29  C   UNL     1      -3.528  -0.689   1.373  0.00  0.00    +0.005 C 
ATOM     30  H   UNL     1      -0.004   0.967   2.434  0.00  0.00    -0.081 HD
ENDBRANCH  21  27
ENDBRANCH   1  21
TORSDOF 3
