REMARK  Name = ZINC65005046
REMARK  3 active torsions:
REMARK  status: ('A' for Active; 'I' for Inactive)
REMARK    1  A    between atoms: C_11  and  C_13
REMARK    2  A    between atoms: C_13  and  C_22
REMARK    3  A    between atoms: C_14  and  C_15
REMARK                            x       y       z     vdW  Elec       q    Type
REMARK                         _______ _______ _______ _____ _____    ______ ____
ROOT
ATOM      1  C   UNL     1       0.026   1.233  -1.507  0.00  0.00    +0.004 A 
ATOM      2  C   UNL     1       1.228   1.924  -1.567  0.00  0.00    +0.040 A 
ATOM      3  C   UNL     1       2.428   1.292  -1.363  0.00  0.00    +0.150 A 
ATOM      4  C   UNL     1       2.476  -0.095  -1.081  0.00  0.00    +0.115 A 
ATOM      5  C   UNL     1       1.233  -0.764  -1.028  0.00  0.00    +0.044 A 
ATOM      6  C   UNL     1       0.036  -0.122  -1.234  0.00  0.00    +0.017 A 
ATOM      7  S   UNL     1       1.717  -2.433  -0.661  0.00  0.00    -0.052 S 
ATOM      8  C   UNL     1       3.481  -2.148  -0.604  0.00  0.00    +0.166 A 
ATOM      9  N   UNL     1       3.565  -0.863  -0.856  0.00  0.00    -0.222 NA
ATOM     10  N   UNL     1       4.499  -3.053  -0.355  0.00  0.00    -0.260 N 
ATOM     11  C   UNL     1       5.782  -2.640  -0.355  0.00  0.00    +0.260 C 
ATOM     12  O   UNL     1       6.045  -1.473  -0.573  0.00  0.00    -0.269 OA
ATOM     13  F   UNL     1       3.577   2.000  -1.431  0.00  0.00    -0.203 F 
ATOM     14  H   UNL     1       4.289  -3.984  -0.181  0.00  0.00    +0.157 HD
ENDROOT
BRANCH  11  15
ATOM     15  C   UNL     1       6.864  -3.602  -0.091  0.00  0.00    +0.114 C 
ATOM     16  C   UNL     1       8.175  -3.180  -0.090  0.00  0.00    +0.032 C 
BRANCH  16  17
ATOM     17  C   UNL     1       9.260  -4.161   0.005  0.00  0.00    -0.024 A 
ATOM     18  C   UNL     1      10.434  -3.846   0.703  0.00  0.00    +0.009 A 
ATOM     19  C   UNL     1      11.449  -4.774   0.789  0.00  0.00    +0.020 A 
ATOM     20  C   UNL     1      11.312  -6.015   0.187  0.00  0.00    +0.041 A 
ATOM     21  C   UNL     1      10.154  -6.334  -0.505  0.00  0.00    +0.020 A 
ATOM     22  C   UNL     1       9.127  -5.420  -0.595  0.00  0.00    +0.009 A 
ATOM     23 CL   UNL     1      12.598  -7.176   0.301  0.00  0.00    -0.084 Cl
ENDBRANCH  16  17
BRANCH  15  24
ATOM     24  C   UNL     1       6.554  -4.976   0.166  0.00  0.00    +0.104 C 
ATOM     25  N   UNL     1       6.308  -6.066   0.369  0.00  0.00    -0.191 NA
ENDBRANCH  15  24
ENDBRANCH  11  15
TORSDOF 3
