REMARK  Name = ZINC02464056
REMARK  5 active torsions:
REMARK  status: ('A' for Active; 'I' for Inactive)
REMARK    1  A    between atoms: C_1  and  C_2
REMARK    2  A    between atoms: C_3  and  C_19
REMARK    3  A    between atoms: C_4  and  C_12
REMARK    4  A    between atoms: C_19  and  O_21
REMARK    5  A    between atoms: O_21  and  C_22
REMARK                            x       y       z     vdW  Elec       q    Type
REMARK                         _______ _______ _______ _____ _____    ______ ____
ROOT
ATOM      1  C   UNL     1      -0.018   1.503   0.010  0.00  0.00    +0.061 C 
ATOM      2  C   UNL     1       0.002  -0.004   0.002  0.00  0.00    +0.020 C 
ATOM      3  C   UNL     1      -1.165  -0.668   0.004  0.00  0.00    +0.082 C 
ATOM      4  C   UNL     1      -1.255  -2.171   0.008  0.00  0.00    +0.181 C 
ATOM      5  N   UNL     1       0.058  -2.736  -0.277  0.00  0.00    -0.201 N 
ATOM      6  C   UNL     1       1.208  -2.011  -0.275  0.00  0.00    +0.240 A 
ATOM      7  N   UNL     1       2.180  -2.829  -0.561  0.00  0.00    -0.092 NA
ATOM      8  N   UNL     1       1.723  -4.020  -0.747  0.00  0.00    -0.021 NA
ATOM      9  N   UNL     1       0.438  -4.039  -0.592  0.00  0.00    -0.042 NA
ATOM     10  N   UNL     1       1.213  -0.650  -0.013  0.00  0.00    -0.286 N 
ATOM     11  H   UNL     1       2.041  -0.174   0.157  0.00  0.00    +0.155 HD
ENDROOT
BRANCH   4  12
ATOM     12  C   UNL     1      -1.723  -2.643   1.360  0.00  0.00    -0.018 A 
ATOM     13  C   UNL     1      -0.984  -2.346   2.490  0.00  0.00    +0.007 A 
ATOM     14  C   UNL     1      -1.413  -2.778   3.731  0.00  0.00    +0.015 A 
ATOM     15  C   UNL     1      -2.583  -3.508   3.842  0.00  0.00    +0.018 A 
ATOM     16  C   UNL     1      -3.322  -3.805   2.711  0.00  0.00    +0.015 A 
ATOM     17  C   UNL     1      -2.895  -3.368   1.472  0.00  0.00    +0.007 A 
ATOM     18 BR   UNL     1      -3.170  -4.101   5.539  0.00  0.00    -0.050 Br
ENDBRANCH   4  12
BRANCH   3  19
ATOM     19  C   UNL     1      -2.364   0.079   0.003  0.00  0.00    +0.339 C 
ATOM     20  O   UNL     1      -2.323   1.295   0.001  0.00  0.00    -0.245 OA
BRANCH  19  21
ATOM     21  O   UNL     1      -3.554  -0.556   0.005  0.00  0.00    -0.458 OA
BRANCH  21  22
ATOM     22  C   UNL     1      -4.726   0.262   0.004  0.00  0.00    +0.177 C 
ATOM     23  C   UNL     1      -5.144   0.556   1.446  0.00  0.00    +0.044 C 
ATOM     24  C   UNL     1      -6.398   1.432   1.445  0.00  0.00    +0.004 C 
ATOM     25  C   UNL     1      -7.532   0.698   0.726  0.00  0.00    +0.000 C 
ATOM     26  C   UNL     1      -7.114   0.403  -0.716  0.00  0.00    +0.004 C 
ATOM     27  C   UNL     1      -5.860  -0.473  -0.715  0.00  0.00    +0.044 C 
ENDBRANCH  21  22
ENDBRANCH  19  21
ENDBRANCH   3  19
TORSDOF 4
