REMARK  Name = ZINC39606180
REMARK  8 active torsions:
REMARK  status: ('A' for Active; 'I' for Inactive)
REMARK    1  A    between atoms: C_1  and  C_2
REMARK    2  A    between atoms: C_2  and  C_3
REMARK    3  A    between atoms: C_3  and  C_5
REMARK    4  A    between atoms: C_3  and  C_6
REMARK    5  A    between atoms: C_6  and  N_7
REMARK    6  A    between atoms: C_8  and  C_10
REMARK    7  A    between atoms: C_21  and  C_23
REMARK    8  A    between atoms: C_27  and  C_30
REMARK                            x       y       z     vdW  Elec       q    Type
REMARK                         _______ _______ _______ _____ _____    ______ ____
ROOT
ATOM      1  C   UNL     1      -4.424  -4.392   0.513  0.00  0.00    +0.100 C 
ATOM      2  C   UNL     1      -5.275  -3.950  -0.699  0.00  0.00    +0.121 C 
ATOM      3  N   UNL     1      -5.214  -5.095  -1.637  0.00  0.00    -0.296 N 
ATOM      4  C   UNL     1      -5.295  -6.291  -0.764  0.00  0.00    +0.115 C 
ATOM      5  C   UNL     1      -4.442  -5.929   0.469  0.00  0.00    -0.004 C 
ATOM      6  C   UNL     1      -3.025  -6.470   0.306  0.00  0.00    -0.010 C 
ATOM      7  C   UNL     1      -3.063  -8.001   0.321  0.00  0.00    -0.082 C 
ATOM      8  N   UNL     1      -3.644  -8.465   1.587  0.00  0.00    +0.379 N 
ATOM      9  C   UNL     1      -5.038  -8.018   1.693  0.00  0.00    -0.082 C 
ATOM     10  C   UNL     1      -5.083  -6.487   1.735  0.00  0.00    -0.010 C 
ATOM     11  C   UNL     1      -5.109  -5.058  -2.980  0.00  0.00    +0.251 C 
ATOM     12  O   UNL     1      -5.071  -6.094  -3.616  0.00  0.00    -0.270 OA
ATOM     13  H   UNL     1      -3.612  -9.473   1.621  0.00  0.00    -0.086 HD
ATOM     14  H   UNL     1      -3.112  -8.088   2.357  0.00  0.00    -0.086 HD
ENDROOT
BRANCH  11  15
ATOM     15  C   UNL     1      -5.040  -3.760  -3.679  0.00  0.00    +0.091 A 
ATOM     16  C   UNL     1      -3.802  -3.158  -3.924  0.00  0.00    +0.056 A 
ATOM     17  C   UNL     1      -3.746  -1.944  -4.579  0.00  0.00    +0.021 A 
ATOM     18  C   UNL     1      -4.911  -1.322  -4.993  0.00  0.00    +0.007 A 
ATOM     19  C   UNL     1      -6.139  -1.909  -4.756  0.00  0.00    -0.014 A 
ATOM     20  C   UNL     1      -6.213  -3.128  -4.106  0.00  0.00    +0.140 A 
ATOM     21  F   UNL     1      -7.414  -3.704  -3.880  0.00  0.00    -0.204 F 
ATOM     22  C   UNL     1      -7.401  -1.223  -5.211  0.00  0.00    +0.047 C 
ATOM     23 CL   UNL     1      -2.340  -3.935  -3.404  0.00  0.00    -0.083 Cl
ENDBRANCH  11  15
BRANCH   1  25
ATOM     24  N   UNL     1      -2.255  -3.697   1.478  0.00  0.00    -0.315 N 
ATOM     25  C   UNL     1      -3.013  -3.880   0.379  0.00  0.00    +0.218 C 
ATOM     26  O   UNL     1      -2.560  -3.632  -0.718  0.00  0.00    -0.275 OA
ATOM     27  H   UNL     1      -2.618  -3.895   2.356  0.00  0.00    +0.149 HD
BRANCH  24  28
ATOM     28  C   UNL     1      -0.884  -3.199   1.348  0.00  0.00    +0.107 C 
BRANCH  28  29
ATOM     29  C   UNL     1      -0.249  -3.083   2.735  0.00  0.00    +0.003 C 
ATOM     30  C   UNL     1      -0.990  -2.019   3.547  0.00  0.00    +0.009 C 
BRANCH  29  32
ATOM     31  C   UNL     1       1.887  -2.688   3.969  0.00  0.00    +0.004 C 
ATOM     32  C   UNL     1       1.221  -2.683   2.592  0.00  0.00    +0.001 C 
ENDBRANCH  29  32
ENDBRANCH  28  29
ENDBRANCH  24  28
ENDBRANCH   1  25
TORSDOF 5
