REMARK  Name = ZINC09497781
REMARK  5 active torsions:
REMARK  status: ('A' for Active; 'I' for Inactive)
REMARK    1  A    between atoms: C_4  and  C_28
REMARK    2  A    between atoms: C_11  and  O_12
REMARK    3  A    between atoms: O_12  and  C_13
REMARK    4  A    between atoms: C_13  and  C_14
REMARK    5  A    between atoms: C_19  and  O_27
REMARK                            x       y       z     vdW  Elec       q    Type
REMARK                         _______ _______ _______ _____ _____    ______ ____
ROOT
ATOM      1  O   UNL     1      -5.522   2.501   1.719  0.00  0.00    -0.483 OA
ENDROOT
BRANCH   1  12
ATOM      2  C   UNL     1      -7.093   0.715   1.731  0.00  0.00    +0.046 A 
ATOM      3  C   UNL     1      -8.382   0.272   1.818  0.00  0.00    +0.016 A 
ATOM      4  C   UNL     1      -9.425   1.193   1.966  0.00  0.00    +0.029 A 
ATOM      5  C   UNL     1     -10.817   0.747   2.056  0.00  0.00    +0.072 A 
ATOM      6  C   UNL     1     -11.784   1.690   2.200  0.00  0.00    +0.105 A 
ATOM      7  C   UNL     1     -11.432   3.054   2.259  0.00  0.00    +0.338 A 
ATOM      8  O   UNL     1     -12.309   3.888   2.389  0.00  0.00    -0.245 OA
ATOM      9  O   UNL     1     -10.154   3.456   2.176  0.00  0.00    -0.422 OA
ATOM     10  C   UNL     1      -9.144   2.571   2.032  0.00  0.00    +0.143 A 
ATOM     11  C   UNL     1      -7.830   3.003   1.948  0.00  0.00    +0.092 A 
ATOM     12  C   UNL     1      -6.809   2.077   1.801  0.00  0.00    +0.125 A 
BRANCH   5  13
ATOM     13  C   UNL     1     -11.166  -0.717   1.990  0.00  0.00    +0.418 C 
ATOM     14  F   UNL     1     -12.553  -0.871   2.098  0.00  0.00    -0.166 F 
ATOM     15  F   UNL     1     -10.732  -1.246   0.769  0.00  0.00    -0.166 F 
ATOM     16  F   UNL     1     -10.539  -1.395   3.041  0.00  0.00    -0.166 F 
ENDBRANCH   5  13
ENDBRANCH   1  12
BRANCH   1  17
ATOM     17  C   UNL     1      -4.517   1.497   1.568  0.00  0.00    +0.324 C 
BRANCH  17  18
ATOM     18  C   UNL     1      -3.161   2.151   1.495  0.00  0.00    +0.253 C 
ATOM     19  O   UNL     1      -3.065   3.358   1.565  0.00  0.00    -0.272 OA
ATOM     20  N   UNL     1      -2.055   1.395   1.352  0.00  0.00    -0.298 N 
ATOM     21  C   UNL     1      -2.154  -0.069   1.265  0.00  0.00    +0.110 C 
ATOM     22  C   UNL     1      -1.434  -0.536  -0.004  0.00  0.00    +0.054 C 
ATOM     23  C   UNL     1       0.002  -0.004   0.002  0.00  0.00    +0.072 C 
ATOM     24  C   UNL     1       0.727  -0.499  -1.252  0.00  0.00    +0.035 C 
ATOM     25  C   UNL     1       2.161   0.033  -1.258  0.00  0.00    +0.003 C 
ATOM     26  C   UNL     1       2.136   1.563  -1.256  0.00  0.00    +0.001 C 
ATOM     27  C   UNL     1       1.417   2.057  -0.000  0.00  0.00    +0.008 C 
ATOM     28  C   UNL     1      -0.019   1.526   0.010  0.00  0.00    +0.038 C 
ATOM     29  C   UNL     1      -0.726   2.017   1.278  0.00  0.00    +0.114 C 
BRANCH  23  30
ATOM     30  O   UNL     1       0.684  -0.478   1.165  0.00  0.00    -0.388 OA
ATOM     31  H   UNL     1       0.735  -1.442   1.225  0.00  0.00    +0.210 HD
ENDBRANCH  23  30
ENDBRANCH  17  18
ENDBRANCH   1  17
TORSDOF 5
