REMARK  Name = ZINC05911687
REMARK  5 active torsions:
REMARK  status: ('A' for Active; 'I' for Inactive)
REMARK    1  A    between atoms: C_1  and  O_2
REMARK    2  A    between atoms: O_2  and  C_3
REMARK    3  A    between atoms: C_8  and  C_9
REMARK    4  A    between atoms: N_15  and  N_16
REMARK    5  A    between atoms: C_17  and  C_18
REMARK                            x       y       z     vdW  Elec       q    Type
REMARK                         _______ _______ _______ _____ _____    ______ ____
ROOT
ATOM      1  C   UNL     1      -4.395  -0.764   1.141  0.00  0.00    +0.187 A 
ATOM      2  N   UNL     1      -5.472  -1.389   0.753  0.00  0.00    -0.151 NA
ATOM      3  N   UNL     1      -5.493  -1.391  -0.648  0.00  0.00    -0.253 N 
ATOM      4  H   UNL     1      -6.175  -1.788  -1.211  0.00  0.00    +0.191 HD
ATOM      5  C   UNL     1      -4.391  -0.738  -1.072  0.00  0.00    +0.197 A 
ATOM      6  S   UNL     1      -3.943  -0.463  -2.701  0.00  0.00    -0.010 S 
ATOM      7  N   UNL     1      -3.706  -0.342   0.019  0.00  0.00    -0.188 N 
ENDROOT
BRANCH   1  13
ATOM      8  C   UNL     1      -4.776  -1.016   3.594  0.00  0.00    +0.131 A 
ATOM      9  C   UNL     1      -4.378  -0.807   4.904  0.00  0.00    +0.046 A 
ATOM     10  C   UNL     1      -3.209  -0.121   5.172  0.00  0.00    +0.004 A 
ATOM     11  C   UNL     1      -2.424   0.355   4.136  0.00  0.00    +0.001 A 
ATOM     12  C   UNL     1      -2.804   0.150   2.825  0.00  0.00    +0.015 A 
ATOM     13  C   UNL     1      -3.983  -0.540   2.543  0.00  0.00    +0.063 A 
BRANCH   8  15
ATOM     14  C   UNL     1      -6.686  -2.140   4.452  0.00  0.00    +0.277 C 
ATOM     15  O   UNL     1      -5.928  -1.684   3.329  0.00  0.00    -0.494 OA
ENDBRANCH   8  15
ENDBRANCH   1  13
BRANCH   7  16
ATOM     16  N   UNL     1      -2.499   0.369   0.017  0.00  0.00    -0.170 NA
ATOM     17  C   UNL     1      -2.510   1.667   0.024  0.00  0.00    +0.142 C 
BRANCH  17  18
ATOM     18  C   UNL     1      -1.240   2.416   0.021  0.00  0.00    +0.013 A 
ATOM     19  C   UNL     1      -1.249   3.813   0.034  0.00  0.00    +0.011 A 
ATOM     20  C   UNL     1      -0.057   4.507   0.026  0.00  0.00    +0.001 A 
ATOM     21  C   UNL     1       1.146   3.823   0.011  0.00  0.00    +0.001 A 
ATOM     22  C   UNL     1       1.164   2.440   0.004  0.00  0.00    +0.020 A 
ATOM     23  C   UNL     1      -0.021   1.732   0.012  0.00  0.00    +0.050 A 
ATOM     24 CL   UNL     1       0.002  -0.004   0.002  0.00  0.00    -0.083 Cl
ENDBRANCH  17  18
ENDBRANCH   7  16
TORSDOF 4
