REMARK  Name = ZINC38731467
REMARK  9 active torsions:
REMARK  status: ('A' for Active; 'I' for Inactive)
REMARK    1  A    between atoms: C_1  and  C_2
REMARK    2  A    between atoms: C_3  and  C_19
REMARK    3  A    between atoms: C_4  and  N_12
REMARK    4  A    between atoms: N_5  and  C_11
REMARK    5  A    between atoms: C_8  and  C_9
REMARK    6  A    between atoms: N_12  and  C_13
REMARK    7  A    between atoms: C_13  and  C_14
REMARK    8  A    between atoms: N_23  and  C_27
REMARK    9  A    between atoms: C_27  and  C_28
REMARK                            x       y       z     vdW  Elec       q    Type
REMARK                         _______ _______ _______ _____ _____    ______ ____
ROOT
ATOM      1  C   UNL     1       0.015   1.404  -0.033  0.00  0.00    +0.046 C 
ATOM      2  C   UNL     1       0.028  -0.102   0.008  0.00  0.00    -0.017 A 
ATOM      3  C   UNL     1      -1.176  -0.827   0.012  0.00  0.00    +0.019 A 
ATOM      4  C   UNL     1      -1.137  -2.230   0.050  0.00  0.00    +0.109 A 
ATOM      5  N   UNL     1       0.051  -2.887   0.083  0.00  0.00    -0.298 N 
ATOM      6  C   UNL     1       1.217  -2.216   0.080  0.00  0.00    +0.270 A 
ATOM      7  O   UNL     1       2.269  -2.832   0.110  0.00  0.00    -0.266 OA
ATOM      8  C   UNL     1       1.233  -0.799   0.036  0.00  0.00    +0.120 A 
ATOM      9  C   UNL     1       0.063  -4.351   0.123  0.00  0.00    +0.154 C 
ENDROOT
BRANCH   3  10
ATOM     10  C   UNL     1      -2.460  -0.125  -0.023  0.00  0.00    +0.032 C 
ATOM     11  C   UNL     1      -3.380  -0.341   0.956  0.00  0.00    +0.077 C 
ATOM     12  C   UNL     1      -4.724   0.132   1.060  0.00  0.00    +0.258 C 
ATOM     13  O   UNL     1      -5.208   0.841   0.196  0.00  0.00    -0.269 OA
ATOM     14  N   UNL     1      -5.426  -0.223   2.123  0.00  0.00    -0.253 N 
ATOM     15  C   UNL     1      -4.888  -1.009   3.081  0.00  0.00    +0.121 C 
ATOM     16  S   UNL     1      -5.606  -1.585   4.524  0.00  0.00    -0.027 S 
ATOM     17  S   UNL     1      -3.240  -1.302   2.457  0.00  0.00    -0.061 S 
BRANCH  14  18
ATOM     18  C   UNL     1      -6.807   0.245   2.264  0.00  0.00    +0.146 C 
BRANCH  18  19
ATOM     19  C   UNL     1      -7.755  -0.764   1.613  0.00  0.00    +0.136 C 
ATOM     20  C   UNL     1      -9.201  -0.223   1.650  0.00  0.00    +0.035 C 
ATOM     21  C   UNL     1     -10.024  -1.502   1.965  0.00  0.00    +0.031 C 
ATOM     22  C   UNL     1      -9.039  -2.266   2.885  0.00  0.00    +0.160 C 
ATOM     23  O   UNL     1      -7.733  -1.995   2.346  0.00  0.00    -0.375 OA
ENDBRANCH  18  19
ENDBRANCH  14  18
ENDBRANCH   3  10
BRANCH   8  24
ATOM     24  C   UNL     1       2.477  -0.090   0.028  0.00  0.00    +0.105 C 
ATOM     25  N   UNL     1       3.465   0.472   0.021  0.00  0.00    -0.191 NA
ENDBRANCH   8  24
BRANCH   4  26
ATOM     26  N   UNL     1      -2.302  -2.940   0.054  0.00  0.00    -0.323 N 
ATOM     27  H   UNL     1      -2.692  -3.228   0.895  0.00  0.00    +0.148 HD
BRANCH  26  28
ATOM     28  C   UNL     1      -2.966  -3.266  -1.210  0.00  0.00    +0.177 C 
BRANCH  28  29
ATOM     29  C   UNL     1      -4.283  -3.941  -0.927  0.00  0.00    +0.122 A 
ATOM     30  C   UNL     1      -5.467  -3.322  -0.776  0.00  0.00    +0.046 A 
ATOM     31  C   UNL     1      -6.427  -4.330  -0.526  0.00  0.00    +0.041 A 
ATOM     32  C   UNL     1      -5.772  -5.504  -0.540  0.00  0.00    +0.195 A 
ATOM     33  O   UNL     1      -4.474  -5.263  -0.789  0.00  0.00    -0.466 OA
ENDBRANCH  28  29
ENDBRANCH  26  28
ENDBRANCH   4  26
TORSDOF 7
