REMARK  Name = ZINC44391908
REMARK  8 active torsions:
REMARK  status: ('A' for Active; 'I' for Inactive)
REMARK    1  A    between atoms: C_1  and  C_2
REMARK    2  A    between atoms: C_2  and  C_4
REMARK    3  A    between atoms: C_2  and  N_20
REMARK    4  A    between atoms: N_6  and  C_7
REMARK    5  A    between atoms: C_10  and  S_13
REMARK    6  A    between atoms: S_13  and  N_16
REMARK    7  A    between atoms: C_17  and  C_19
REMARK    8  A    between atoms: C_25  and  C_27
REMARK                            x       y       z     vdW  Elec       q    Type
REMARK                         _______ _______ _______ _____ _____    ______ ____
ROOT
ATOM      1  C   UNL     1      -0.009   1.520   0.022  0.00  0.00    +0.043 C 
ATOM      2  C   UNL     1       0.004  -0.009   0.005  0.00  0.00    +0.194 C 
ENDROOT
BRANCH   2   3
ATOM      3  N   UNL     1       0.689  -0.479  -1.202  0.00  0.00    -0.217 N 
ATOM      4  C   UNL     1       1.786  -1.248  -1.075  0.00  0.00    +0.268 A 
ATOM      5  O   UNL     1       2.202  -1.548   0.033  0.00  0.00    -0.266 OA
ATOM      6  C   UNL     1       2.453  -1.705  -2.233  0.00  0.00    +0.074 A 
ATOM      7  C   UNL     1       1.947  -1.342  -3.446  0.00  0.00    +0.035 A 
ATOM      8  C   UNL     1       0.789  -0.531  -3.473  0.00  0.00    +0.092 A 
ATOM      9  N   UNL     1       0.223  -0.150  -2.352  0.00  0.00    -0.168 NA
BRANCH   8  10
ATOM     10  C   UNL     1       0.208  -0.114  -4.772  0.00  0.00    +0.006 A 
ATOM     11  C   UNL     1      -0.930   0.690  -4.803  0.00  0.00    +0.014 A 
ATOM     12  C   UNL     1      -1.469   1.077  -6.013  0.00  0.00    +0.050 A 
ATOM     13  C   UNL     1      -0.882   0.668  -7.201  0.00  0.00    +0.166 A 
ATOM     14  C   UNL     1       0.257  -0.135  -7.176  0.00  0.00    +0.167 A 
ATOM     15  C   UNL     1       0.803  -0.521  -5.965  0.00  0.00    +0.059 A 
ATOM     16  O   UNL     1       0.635  -0.396  -8.462  0.00  0.00    -0.453 OA
ATOM     17  C   UNL     1      -0.515  -0.085  -9.271  0.00  0.00    +0.466 C 
ATOM     18  O   UNL     1      -1.216   0.910  -8.502  0.00  0.00    -0.453 OA
ENDBRANCH   8  10
ENDBRANCH   2   3
BRANCH   2  19
ATOM     19  C   UNL     1      -1.412  -0.524   0.012  0.00  0.00    +0.242 C 
ATOM     20  O   UNL     1      -1.810  -1.215  -0.902  0.00  0.00    -0.273 OA
ATOM     21  N   UNL     1      -2.236  -0.217   1.033  0.00  0.00    -0.284 N 
ATOM     22  H   UNL     1      -1.899   0.279   1.796  0.00  0.00    +0.155 HD
BRANCH  21  23
ATOM     23  C   UNL     1      -3.578  -0.613   0.993  0.00  0.00    +0.034 A 
ATOM     24  C   UNL     1      -4.561   0.206   1.532  0.00  0.00    +0.025 A 
ATOM     25  C   UNL     1      -5.885  -0.187   1.491  0.00  0.00    +0.030 A 
ATOM     26  C   UNL     1      -6.231  -1.395   0.914  0.00  0.00    +0.109 A 
ATOM     27  C   UNL     1      -5.253  -2.213   0.376  0.00  0.00    +0.030 A 
ATOM     28  C   UNL     1      -3.929  -1.822   0.409  0.00  0.00    +0.025 A 
BRANCH  26  29
ATOM     29  S   UNL     1      -7.920  -1.894   0.863  0.00  0.00    +0.074 S 
ATOM     30  O   UNL     1      -7.922  -3.311   0.759  0.00  0.00    -0.150 OA
ATOM     31  O   UNL     1      -8.578  -1.206   1.919  0.00  0.00    -0.150 OA
BRANCH  29  32
ATOM     32  N   UNL     1      -8.559  -1.314  -0.550  0.00  0.00    -0.186 N 
ATOM     33  C   UNL     1      -8.105  -1.773  -1.733  0.00  0.00    +0.229 C 
ATOM     34  O   UNL     1      -7.228  -2.610  -1.763  0.00  0.00    -0.275 OA
ATOM     35  C   UNL     1      -8.687  -1.246  -3.020  0.00  0.00    +0.111 C 
ATOM     36  H   UNL     1      -9.261  -0.645  -0.527  0.00  0.00    +0.177 HD
ENDBRANCH  29  32
ENDBRANCH  26  29
ENDBRANCH  21  23
ENDBRANCH   2  19
TORSDOF 6
