REMARK  Name = ZINC04476753
REMARK  5 active torsions:
REMARK  status: ('A' for Active; 'I' for Inactive)
REMARK    1  A    between atoms: C_1  and  C_2
REMARK    2  A    between atoms: C_2  and  C_18
REMARK    3  A    between atoms: N_5  and  C_9
REMARK    4  A    between atoms: C_9  and  C_10
REMARK    5  A    between atoms: C_10  and  C_12
REMARK                            x       y       z     vdW  Elec       q    Type
REMARK                         _______ _______ _______ _____ _____    ______ ____
ROOT
ATOM      1  C   UNL     1       2.882   4.247  -1.437  0.00  0.00    +0.047 C 
ATOM      2  C   UNL     1       2.452   3.936  -0.002  0.00  0.00    +0.135 C 
ATOM      3  C   UNL     1       2.319   5.211   0.807  0.00  0.00    +0.251 C 
ATOM      4  O   UNL     1       1.565   6.137   0.596  0.00  0.00    -0.272 OA
ATOM      5  N   UNL     1       3.215   5.103   1.808  0.00  0.00    -0.216 N 
ATOM      6  C   UNL     1       3.888   3.948   1.745  0.00  0.00    +0.310 C 
ATOM      7  O   UNL     1       4.748   3.624   2.540  0.00  0.00    -0.252 OA
ATOM      8  N   UNL     1       3.506   3.187   0.704  0.00  0.00    -0.281 N 
ATOM      9  H   UNL     1       3.855   2.314   0.466  0.00  0.00    +0.152 HD
ENDROOT
BRANCH   2  10
ATOM     10  C   UNL     1       1.157   3.166   0.007  0.00  0.00    -0.014 A 
ATOM     11  C   UNL     1       1.175   1.783   0.000  0.00  0.00    +0.006 A 
ATOM     12  C   UNL     1      -0.013   1.076   0.008  0.00  0.00    +0.001 A 
ATOM     13  C   UNL     1      -1.219   1.751   0.017  0.00  0.00    +0.015 A 
ATOM     14  C   UNL     1      -1.238   3.133   0.030  0.00  0.00    +0.018 A 
ATOM     15  C   UNL     1      -0.049   3.841   0.022  0.00  0.00    +0.021 A 
ATOM     16 BR   UNL     1      -2.888   4.057   0.051  0.00  0.00    -0.050 Br
ENDBRANCH   2  10
BRANCH   5  17
ATOM     17  C   UNL     1       3.425   6.124   2.838  0.00  0.00    +0.199 C 
BRANCH  17  18
ATOM     18  C   UNL     1       4.484   7.092   2.376  0.00  0.00    +0.197 C 
ATOM     19  O   UNL     1       5.011   6.944   1.292  0.00  0.00    -0.289 OA
BRANCH  18  20
ATOM     20  C   UNL     1       4.863   8.172   3.204  0.00  0.00    +0.084 A 
ATOM     21  C   UNL     1       4.347   8.467   4.455  0.00  0.00    +0.030 A 
ATOM     22  C   UNL     1       5.008   9.610   4.908  0.00  0.00    +0.020 A 
ATOM     23  C   UNL     1       5.888   9.991   3.949  0.00  0.00    +0.083 A 
ATOM     24  N   UNL     1       5.811   9.130   2.913  0.00  0.00    -0.358 N 
ATOM     25  H   UNL     1       6.335   9.178   2.099  0.00  0.00    +0.165 HD
ENDBRANCH  18  20
ENDBRANCH  17  18
ENDBRANCH   5  17
TORSDOF 4
