REMARK  Name = ZINC63739065
REMARK  10 active torsions:
REMARK  status: ('A' for Active; 'I' for Inactive)
REMARK    1  A    between atoms: C_1  and  C_2
REMARK    2  A    between atoms: C_2  and  C_4
REMARK    3  A    between atoms: C_2  and  C_24
REMARK    4  A    between atoms: C_10  and  C_12
REMARK    5  A    between atoms: C_18  and  O_22
REMARK    6  A    between atoms: O_22  and  C_23
REMARK    7  A    between atoms: N_26  and  C_27
REMARK    8  A    between atoms: C_27  and  C_28
REMARK    9  A    between atoms: C_28  and  N_29
REMARK   10  A    between atoms: N_32  and  C_35
REMARK                            x       y       z     vdW  Elec       q    Type
REMARK                         _______ _______ _______ _____ _____    ______ ____
ROOT
ATOM      1  C   UNL     1      -1.433  -0.534   0.013  0.00  0.00    +0.004 C 
ATOM      2  C   UNL     1      -2.174  -0.025  -1.226  0.00  0.00    +0.023 C 
ATOM      3  C   UNL     1      -3.620  -0.529  -1.194  0.00  0.00    +0.108 C 
ATOM      4  N   UNL     1      -3.609  -1.992  -1.056  0.00  0.00    -0.300 N 
ATOM      5  C   UNL     1      -2.850  -2.591   0.050  0.00  0.00    +0.108 C 
ATOM      6  C   UNL     1      -1.412  -2.064   0.004  0.00  0.00    +0.023 C 
ATOM      7  C   UNL     1      -4.282  -2.769  -1.927  0.00  0.00    +0.242 C 
ATOM      8  O   UNL     1      -4.904  -2.262  -2.837  0.00  0.00    -0.273 OA
ENDROOT
BRANCH   7   9
ATOM      9  C   UNL     1      -4.260  -4.268  -1.772  0.00  0.00    +0.190 C 
ATOM     10  C   UNL     1      -4.889  -4.664  -0.456  0.00  0.00    +0.016 C 
ATOM     11  C   UNL     1      -5.952  -5.438  -0.764  0.00  0.00    -0.003 A 
ATOM     12  C   UNL     1      -6.955  -6.123   0.062  0.00  0.00    +0.013 A 
ATOM     13  C   UNL     1      -7.925  -6.842  -0.544  0.00  0.00    +0.046 A 
ATOM     14  C   UNL     1      -7.997  -6.950  -1.946  0.00  0.00    +0.122 A 
ATOM     15  C   UNL     1      -7.106  -6.345  -2.771  0.00  0.00    +0.071 A 
ATOM     16  C   UNL     1      -6.049  -5.566  -2.237  0.00  0.00    +0.047 A 
ATOM     17  N   UNL     1      -5.078  -4.896  -2.816  0.00  0.00    -0.370 N 
ATOM     18  H   UNL     1      -4.927  -4.827  -3.772  0.00  0.00    +0.161 HD
BRANCH  14  19
ATOM     19  O   UNL     1      -8.996  -7.687  -2.492  0.00  0.00    -0.495 OA
ATOM     20  C   UNL     1      -9.913  -8.308  -1.589  0.00  0.00    +0.277 C 
ENDBRANCH  14  19
ENDBRANCH   7   9
BRANCH   1  22
ATOM     21  C   UNL     1      -0.019   1.526   0.010  0.00  0.00    +0.017 C 
ATOM     22  C   UNL     1       0.002  -0.004   0.002  0.00  0.00    +0.075 C 
BRANCH  22  23
ATOM     23  C   UNL     1       0.731  -0.503   1.223  0.00  0.00    +0.216 C 
ATOM     24  O   UNL     1       0.159  -1.213   2.023  0.00  0.00    -0.276 OA
ATOM     25  N   UNL     1       2.019  -0.161   1.426  0.00  0.00    -0.314 N 
ATOM     26  H   UNL     1       2.476   0.406   0.786  0.00  0.00    +0.149 HD
BRANCH  25  27
ATOM     27  C   UNL     1       2.727  -0.647   2.613  0.00  0.00    +0.119 C 
BRANCH  27  28
ATOM     28  C   UNL     1       4.163  -0.117   2.602  0.00  0.00    +0.103 C 
BRANCH  28  29
ATOM     29  N   UNL     1       4.873  -0.604   3.792  0.00  0.00    -0.304 NA
ATOM     30  C   UNL     1       4.303  -0.028   5.018  0.00  0.00    +0.066 C 
ATOM     31  C   UNL     1       5.030  -0.604   6.235  0.00  0.00    -0.064 C 
ATOM     32  N   UNL     1       6.462  -0.288   6.145  0.00  0.00    +0.379 N 
ATOM     33  C   UNL     1       7.022  -0.891   4.928  0.00  0.00    -0.064 C 
ATOM     34  C   UNL     1       6.312  -0.317   3.700  0.00  0.00    +0.066 C 
ATOM     35  C   UNL     1       7.156  -0.826   7.322  0.00  0.00    -0.096 C 
ATOM     36  H   UNL     1       6.583   0.713   6.111  0.00  0.00    -0.082 HD
ENDBRANCH  28  29
ENDBRANCH  27  28
ENDBRANCH  25  27
ENDBRANCH  22  23
ENDBRANCH   1  22
TORSDOF 7
