REMARK  Name = ZINC16959060
REMARK  8 active torsions:
REMARK  status: ('A' for Active; 'I' for Inactive)
REMARK    1  A    between atoms: C_1  and  C_2
REMARK    2  A    between atoms: C_3  and  C_27
REMARK    3  A    between atoms: C_4  and  C_17
REMARK    4  A    between atoms: N_9  and  C_10
REMARK    5  A    between atoms: C_20  and  O_26
REMARK    6  A    between atoms: C_21  and  N_23
REMARK    7  A    between atoms: C_27  and  O_29
REMARK    8  A    between atoms: O_29  and  C_30
REMARK                            x       y       z     vdW  Elec       q    Type
REMARK                         _______ _______ _______ _____ _____    ______ ____
ROOT
ATOM      1  C   UNL     1       0.003   1.321  -1.023  0.00  0.00    +0.062 C 
ATOM      2  C   UNL     1       0.013  -0.093  -0.500  0.00  0.00    +0.027 C 
ATOM      3  C   UNL     1      -1.147  -0.781  -0.424  0.00  0.00    +0.078 C 
ATOM      4  C   UNL     1      -1.093  -2.199   0.107  0.00  0.00    +0.141 C 
ATOM      5  N   UNL     1       0.230  -2.714   0.499  0.00  0.00    -0.315 N 
ATOM      6  C   UNL     1       1.300  -1.905   0.364  0.00  0.00    +0.142 C 
ATOM      7  S   UNL     1       2.843  -2.491   0.816  0.00  0.00    -0.018 S 
ATOM      8  N   UNL     1       1.195  -0.659  -0.117  0.00  0.00    -0.255 N 
ATOM      9  H   UNL     1       0.330  -3.614   0.847  0.00  0.00    +0.149 HD
ENDROOT
BRANCH   8  10
ATOM     10  C   UNL     1       2.362   0.107  -0.227  0.00  0.00    +0.041 A 
ATOM     11  C   UNL     1       2.774   0.904   0.833  0.00  0.00    +0.024 A 
ATOM     12  C   UNL     1       3.925   1.659   0.721  0.00  0.00    +0.003 A 
ATOM     13  C   UNL     1       4.668   1.622  -0.445  0.00  0.00    +0.015 A 
ATOM     14  C   UNL     1       4.260   0.829  -1.503  0.00  0.00    +0.020 A 
ATOM     15  C   UNL     1       3.112   0.066  -1.394  0.00  0.00    +0.039 A 
ATOM     16 BR   UNL     1       5.279   0.782  -3.095  0.00  0.00    -0.050 Br
ENDBRANCH   8  10
BRANCH   4  17
ATOM     17  C   UNL     1      -1.651  -3.114  -0.952  0.00  0.00    -0.020 A 
ATOM     18  C   UNL     1      -0.858  -3.503  -2.016  0.00  0.00    +0.009 A 
ATOM     19  C   UNL     1      -1.368  -4.341  -2.988  0.00  0.00    +0.048 A 
ATOM     20  C   UNL     1      -2.676  -4.793  -2.896  0.00  0.00    +0.147 A 
ATOM     21  C   UNL     1      -3.470  -4.402  -1.828  0.00  0.00    +0.168 A 
ATOM     22  C   UNL     1      -2.954  -3.567  -0.856  0.00  0.00    +0.042 A 
BRANCH  21  23
ATOM     23  N   UNL     1      -4.866  -4.881  -1.727  0.00  0.00    +0.060 N 
ATOM     24  O   UNL     1      -5.557  -4.540  -0.796  0.00  0.00    -0.126 OA
ATOM     25  O   UNL     1      -5.316  -5.615  -2.577  0.00  0.00    -0.126 OA
ENDBRANCH  21  23
BRANCH  20  26
ATOM     26  O   UNL     1      -3.180  -5.618  -3.852  0.00  0.00    -0.504 OA
ATOM     27  H   UNL     1      -3.051  -6.558  -3.668  0.00  0.00    +0.292 HD
ENDBRANCH  20  26
ENDBRANCH   4  17
BRANCH   3  28
ATOM     28  C   UNL     1      -2.372  -0.197  -0.826  0.00  0.00    +0.339 C 
ATOM     29  O   UNL     1      -2.392   0.944  -1.249  0.00  0.00    -0.245 OA
BRANCH  28  30
ATOM     30  O   UNL     1      -3.517  -0.906  -0.739  0.00  0.00    -0.465 OA
ATOM     31  C   UNL     1      -4.716  -0.254  -1.163  0.00  0.00    +0.280 C 
ENDBRANCH  28  30
ENDBRANCH   3  28
TORSDOF 6
