REMARK  Name = ZINC01820107
REMARK  13 active torsions:
REMARK  status: ('A' for Active; 'I' for Inactive)
REMARK    1  A    between atoms: C_1  and  C_2
REMARK    2  A    between atoms: C_2  and  O_3
REMARK    3  A    between atoms: O_3  and  C_4
REMARK    4  A    between atoms: C_4  and  C_6
REMARK    5  A    between atoms: C_12  and  C_13
REMARK    6  A    between atoms: C_16  and  O_19
REMARK    7  A    between atoms: C_21  and  N_37
REMARK    8  A    between atoms: C_22  and  C_32
REMARK    9  A    between atoms: C_23  and  C_25
REMARK   10  A    between atoms: C_28  and  O_31
REMARK   11  A    between atoms: C_32  and  O_34
REMARK   12  A    between atoms: O_34  and  C_35
REMARK   13  A    between atoms: C_35  and  C_36
REMARK                            x       y       z     vdW  Elec       q    Type
REMARK                         _______ _______ _______ _____ _____    ______ ____
ROOT
ATOM      1  C   UNL     1      -1.286   4.254   5.012  0.00  0.00    +0.079 C 
ATOM      2  C   UNL     1      -0.985   3.426   6.061  0.00  0.00    +0.100 A 
ATOM      3  N   UNL     1       0.050   2.513   6.057  0.00  0.00    -0.257 N 
ATOM      4  C   UNL     1       0.227   1.763   7.163  0.00  0.00    +0.271 A 
ATOM      5  O   UNL     1       1.121   0.941   7.221  0.00  0.00    -0.266 OA
ATOM      6  C   UNL     1      -0.684   1.963   8.296  0.00  0.00    +0.079 A 
ATOM      7  C   UNL     1      -0.709   1.339   9.502  0.00  0.00    +0.028 C 
ATOM      8  S   UNL     1      -1.750   3.246   7.660  0.00  0.00    -0.065 S 
ATOM      9  C   UNL     1       0.858   2.406   4.922  0.00  0.00    +0.115 C 
ATOM     10  C   UNL     1       0.692   3.151   3.804  0.00  0.00    +0.087 C 
ATOM     11  C   UNL     1      -0.428   4.172   3.765  0.00  0.00    +0.099 C 
ENDROOT
BRANCH   7  12
ATOM     12  C   UNL     1      -1.542   1.874  10.587  0.00  0.00    -0.024 A 
ATOM     13  C   UNL     1      -2.145   3.131  10.456  0.00  0.00    +0.011 A 
ATOM     14  C   UNL     1      -2.930   3.624  11.474  0.00  0.00    +0.046 A 
ATOM     15  C   UNL     1      -3.113   2.882  12.635  0.00  0.00    +0.117 A 
ATOM     16  C   UNL     1      -2.512   1.637  12.773  0.00  0.00    +0.046 A 
ATOM     17  C   UNL     1      -1.731   1.131  11.759  0.00  0.00    +0.011 A 
BRANCH  15  18
ATOM     18  O   UNL     1      -3.883   3.377  13.639  0.00  0.00    -0.507 OA
ATOM     19  H   UNL     1      -3.395   3.902  14.286  0.00  0.00    +0.292 HD
ENDBRANCH  15  18
ENDBRANCH   7  12
BRANCH  11  20
ATOM     20  C   UNL     1       0.179   5.528   3.514  0.00  0.00    -0.035 A 
ATOM     21  C   UNL     1       1.095   6.051   4.408  0.00  0.00    +0.008 A 
ATOM     22  C   UNL     1       1.657   7.291   4.178  0.00  0.00    +0.046 A 
ATOM     23  C   UNL     1       1.293   8.018   3.054  0.00  0.00    +0.117 A 
ATOM     24  C   UNL     1       0.369   7.495   2.161  0.00  0.00    +0.046 A 
ATOM     25  C   UNL     1      -0.185   6.251   2.393  0.00  0.00    +0.008 A 
BRANCH  23  26
ATOM     26  O   UNL     1       1.840   9.242   2.828  0.00  0.00    -0.507 OA
ATOM     27  H   UNL     1       1.343   9.973   3.220  0.00  0.00    +0.292 HD
ENDBRANCH  23  26
ENDBRANCH  11  20
BRANCH   9  28
ATOM     28  N   UNL     1       1.879   1.492   4.941  0.00  0.00    -0.344 N 
ATOM     29  H   UNL     1       2.727   1.704   4.521  0.00  0.00    +0.144 HD
ATOM     30  H   UNL     1       1.753   0.633   5.375  0.00  0.00    +0.144 HD
ENDBRANCH   9  28
BRANCH   1  31
ATOM     31  C   UNL     1      -2.355   5.157   5.092  0.00  0.00    +0.339 C 
ATOM     32  O   UNL     1      -3.031   5.213   6.104  0.00  0.00    -0.245 OA
BRANCH  31  33
ATOM     33  O   UNL     1      -2.636   5.965   4.047  0.00  0.00    -0.462 OA
BRANCH  33  35
ATOM     34  C   UNL     1      -3.902   7.688   2.921  0.00  0.00    +0.048 C 
ATOM     35  C   UNL     1      -3.739   6.861   4.197  0.00  0.00    +0.229 C 
ENDBRANCH  33  35
ENDBRANCH  31  33
ENDBRANCH   1  31
BRANCH  10  36
ATOM     36  C   UNL     1       1.545   2.986   2.703  0.00  0.00    +0.339 C 
ATOM     37  O   UNL     1       2.424   2.143   2.735  0.00  0.00    -0.245 OA
BRANCH  36  38
ATOM     38  O   UNL     1       1.392   3.761   1.608  0.00  0.00    -0.462 OA
BRANCH  38  39
ATOM     39  C   UNL     1       2.296   3.539   0.523  0.00  0.00    +0.229 C 
ATOM     40  C   UNL     1       1.970   4.503  -0.619  0.00  0.00    +0.048 C 
ENDBRANCH  38  39
ENDBRANCH  36  38
ENDBRANCH  10  36
TORSDOF 11
