REMARK  Name = ZINC04023331
REMARK  8 active torsions:
REMARK  status: ('A' for Active; 'I' for Inactive)
REMARK    1  A    between atoms: C_1  and  C_2
REMARK    2  A    between atoms: C_6  and  C_24
REMARK    3  A    between atoms: N_8  and  C_21
REMARK    4  A    between atoms: N_14  and  C_18
REMARK    5  A    between atoms: C_18  and  C_19
REMARK    6  A    between atoms: C_18  and  C_20
REMARK    7  A    between atoms: C_21  and  C_22
REMARK    8  A    between atoms: C_21  and  C_23
REMARK                            x       y       z     vdW  Elec       q    Type
REMARK                         _______ _______ _______ _____ _____    ______ ____
ROOT
ATOM      1  C   UNL     1       0.327   0.784   0.406  0.00  0.00    +0.028 C 
ATOM      2  C   UNL     1      -0.575   1.432   1.458  0.00  0.00    +0.080 C 
ATOM      3  C   UNL     1      -2.035   1.071   1.174  0.00  0.00    +0.073 C 
ATOM      4  C   UNL     1      -2.193  -0.459   1.144  0.00  0.00    +0.116 C 
ATOM      5  N   UNL     1      -3.612  -0.797   1.018  0.00  0.00    -0.276 N 
ATOM      6  C   UNL     1      -4.566   0.011   1.503  0.00  0.00    +0.304 C 
ATOM      7  O   UNL     1      -5.730  -0.322   1.382  0.00  0.00    -0.253 OA
ATOM      8  N   UNL     1      -4.289   1.172   2.115  0.00  0.00    -0.280 N 
ATOM      9  C   UNL     1      -2.910   1.623   2.305  0.00  0.00    +0.173 C 
ATOM     10  N   UNL     1      -2.407   1.135   3.589  0.00  0.00    -0.264 N 
ATOM     11  C   UNL     1      -1.113   0.830   3.767  0.00  0.00    +0.304 C 
ATOM     12  O   UNL     1      -0.751   0.435   4.858  0.00  0.00    -0.253 OA
ATOM     13  N   UNL     1      -0.204   0.943   2.787  0.00  0.00    -0.296 N 
ATOM     14  H   UNL     1      -5.018   1.723   2.440  0.00  0.00    +0.152 HD
ATOM     15  H   UNL     1       0.717   0.695   2.963  0.00  0.00    +0.151 HD
ENDROOT
BRANCH   4  16
ATOM     16  C   UNL     1      -1.435  -1.020  -0.032  0.00  0.00    -0.027 A 
ATOM     17  C   UNL     1      -1.693  -0.553  -1.307  0.00  0.00    +0.005 A 
ATOM     18  C   UNL     1      -0.995  -1.064  -2.385  0.00  0.00    +0.000 A 
ATOM     19  C   UNL     1      -0.047  -2.050  -2.189  0.00  0.00    +0.000 A 
ATOM     20  C   UNL     1       0.207  -2.522  -0.914  0.00  0.00    +0.000 A 
ATOM     21  C   UNL     1      -0.487  -2.007   0.164  0.00  0.00    +0.005 A 
ENDBRANCH   4  16
BRANCH  10  22
ATOM     22  C   UNL     1      -3.339   0.976   4.708  0.00  0.00    +0.073 C 
ATOM     23  C   UNL     1      -3.351  -0.487   5.157  0.00  0.00    +0.028 C 
ATOM     24  C   UNL     1      -2.895   1.863   5.873  0.00  0.00    +0.028 C 
ENDBRANCH  10  22
BRANCH   5  25
ATOM     25  C   UNL     1      -3.997  -2.042   0.350  0.00  0.00    +0.072 C 
ATOM     26  C   UNL     1      -4.755  -2.936   1.333  0.00  0.00    +0.028 C 
ATOM     27  C   UNL     1      -4.895  -1.722  -0.847  0.00  0.00    +0.028 C 
ENDBRANCH   5  25
TORSDOF 3
