REMARK  Name = ZINC00828706
REMARK  3 active torsions:
REMARK  status: ('A' for Active; 'I' for Inactive)
REMARK    1  A    between atoms: C_1  and  O_2
REMARK    2  A    between atoms: O_2  and  C_3
REMARK    3  A    between atoms: C_8  and  C_9
REMARK                            x       y       z     vdW  Elec       q    Type
REMARK                         _______ _______ _______ _____ _____    ______ ____
ROOT
ATOM      1  C   UNL     1       1.086  -2.222  -0.418  0.00  0.00    +0.138 C 
ATOM      2  C   UNL     1       1.084  -0.715  -0.534  0.00  0.00    +0.023 C 
ATOM      3  C   UNL     1       2.126  -0.079  -1.140  0.00  0.00    -0.029 C 
ATOM      4  C   UNL     1       2.134   1.427  -1.226  0.00  0.00    +0.036 C 
ATOM      5  C   UNL     1       1.426   2.013  -0.001  0.00  0.00    +0.012 C 
ATOM      6  C   UNL     1      -0.018   1.501   0.010  0.00  0.00    +0.080 C 
ATOM      7  C   UNL     1       0.002  -0.004   0.002  0.00  0.00    +0.162 C 
ATOM      8  O   UNL     1      -0.941  -0.611   0.472  0.00  0.00    -0.292 OA
ATOM      9  C   UNL     1       3.213  -0.825  -1.654  0.00  0.00    +0.007 A 
ATOM     10  C   UNL     1       4.135  -0.300  -2.659  0.00  0.00    -0.009 A 
ATOM     11  C   UNL     1       3.927   0.912  -3.321  0.00  0.00    +0.009 A 
ATOM     12  C   UNL     1       4.854   1.379  -4.210  0.00  0.00    +0.001 A 
ATOM     13  C   UNL     1       6.009   0.655  -4.484  0.00  0.00    +0.001 A 
ATOM     14  C   UNL     1       6.226  -0.553  -3.892  0.00  0.00    +0.008 A 
ATOM     15  C   UNL     1       5.270  -1.078  -3.008  0.00  0.00    -0.017 A 
ATOM     16  C   UNL     1       5.430  -2.370  -2.469  0.00  0.00    +0.010 A 
ATOM     17  C   UNL     1       4.504  -2.890  -1.624  0.00  0.00    +0.024 A 
ATOM     18  C   UNL     1       3.400  -2.146  -1.210  0.00  0.00    +0.036 A 
ATOM     19  N   UNL     1       2.475  -2.689  -0.329  0.00  0.00    -0.332 N 
ATOM     20  H   UNL     1       2.738  -3.355   0.323  0.00  0.00    +0.147 HD
ENDROOT
BRANCH   1  26
ATOM     21  C   UNL     1      -0.956  -2.873  -1.720  0.00  0.00    +0.125 A 
ATOM     22  C   UNL     1      -1.559  -3.429  -2.839  0.00  0.00    +0.046 A 
ATOM     23  C   UNL     1      -0.781  -3.936  -3.861  0.00  0.00    +0.004 A 
ATOM     24  C   UNL     1       0.599  -3.888  -3.771  0.00  0.00    +0.001 A 
ATOM     25  C   UNL     1       1.202  -3.329  -2.659  0.00  0.00    +0.009 A 
ATOM     26  C   UNL     1       0.428  -2.826  -1.631  0.00  0.00    +0.019 A 
BRANCH  21  28
ATOM     27  C   UNL     1      -3.137  -2.456  -0.871  0.00  0.00    +0.277 C 
ATOM     28  O   UNL     1      -1.719  -2.374  -0.712  0.00  0.00    -0.495 OA
ENDBRANCH  21  28
ENDBRANCH   1  26
TORSDOF 2
