REMARK  Name = ZINC03640341
REMARK  7 active torsions:
REMARK  status: ('A' for Active; 'I' for Inactive)
REMARK    1  A    between atoms: C_1  and  C_2
REMARK    2  A    between atoms: C_2  and  O_3
REMARK    3  A    between atoms: O_3  and  C_4
REMARK    4  A    between atoms: C_4  and  C_6
REMARK    5  A    between atoms: C_10  and  N_11
REMARK    6  A    between atoms: C_12  and  C_24
REMARK    7  A    between atoms: C_15  and  C_18
REMARK                            x       y       z     vdW  Elec       q    Type
REMARK                         _______ _______ _______ _____ _____    ______ ____
ROOT
ATOM      1  C   UNL     1      -5.036   1.880   2.764  0.00  0.00    +0.090 A 
ATOM      2  C   UNL     1      -4.611   1.603   1.388  0.00  0.00    -0.019 A 
ATOM      3  C   UNL     1      -3.306   1.322   1.252  0.00  0.00    +0.013 A 
ATOM      4  S   UNL     1      -2.634   1.432   2.894  0.00  0.00    -0.076 S 
ATOM      5  C   UNL     1      -4.075   1.837   3.760  0.00  0.00    +0.078 A 
ATOM      6  C   UNL     1      -2.514   0.980   0.019  0.00  0.00    +0.114 C 
ATOM      7  S   UNL     1      -3.501   1.435  -1.440  0.00  0.00    -0.139 S 
ATOM      8  C   UNL     1      -5.161   0.862  -0.960  0.00  0.00    +0.082 C 
ATOM      9  C   UNL     1      -5.622   1.659   0.253  0.00  0.00    +0.055 C 
ENDROOT
BRANCH   8  10
ATOM     10  C   UNL     1      -6.120   1.079  -2.102  0.00  0.00    -0.034 A 
ATOM     11  C   UNL     1      -6.330   2.353  -2.596  0.00  0.00    +0.005 A 
ATOM     12  C   UNL     1      -7.206   2.551  -3.647  0.00  0.00    +0.000 A 
ATOM     13  C   UNL     1      -7.881   1.477  -4.196  0.00  0.00    +0.000 A 
ATOM     14  C   UNL     1      -7.676   0.204  -3.698  0.00  0.00    +0.000 A 
ATOM     15  C   UNL     1      -6.795   0.005  -2.651  0.00  0.00    +0.005 A 
ENDBRANCH   8  10
BRANCH   6  16
ATOM     16  C   UNL     1      -1.219   1.751   0.017  0.00  0.00    -0.030 A 
ATOM     17  C   UNL     1      -0.013   1.076   0.008  0.00  0.00    +0.005 A 
ATOM     18  C   UNL     1       1.175   1.783   0.000  0.00  0.00    +0.000 A 
ATOM     19  C   UNL     1       1.156   3.165   0.008  0.00  0.00    +0.000 A 
ATOM     20  C   UNL     1      -0.050   3.840   0.022  0.00  0.00    +0.000 A 
ATOM     21  C   UNL     1      -1.238   3.133   0.030  0.00  0.00    +0.005 A 
ENDBRANCH   6  16
BRANCH   5  22
ATOM     22  N   UNL     1      -4.230   2.063   5.114  0.00  0.00    -0.352 N 
ATOM     23  H   UNL     1      -5.104   2.285   5.472  0.00  0.00    +0.143 HD
ATOM     24  H   UNL     1      -3.465   2.000   5.707  0.00  0.00    +0.143 HD
ENDBRANCH   5  22
BRANCH   1  25
ATOM     25  C   UNL     1      -6.431   2.193   3.073  0.00  0.00    +0.342 C 
ATOM     26  O   UNL     1      -7.208   1.298   3.348  0.00  0.00    -0.245 OA
BRANCH  25  27
ATOM     27  O   UNL     1      -6.855   3.473   3.054  0.00  0.00    -0.461 OA
BRANCH  27  29
ATOM     28  C   UNL     1      -8.523   5.205   3.295  0.00  0.00    +0.048 C 
ATOM     29  C   UNL     1      -8.230   3.705   3.367  0.00  0.00    +0.229 C 
ENDBRANCH  27  29
ENDBRANCH  25  27
ENDBRANCH   1  25
TORSDOF 6
