REMARK  Name = ZINC67332138
REMARK  5 active torsions:
REMARK  status: ('A' for Active; 'I' for Inactive)
REMARK    1  A    between atoms: C_8  and  C_13
REMARK    2  A    between atoms: N_15  and  C_16
REMARK    3  A    between atoms: C_16  and  C_17
REMARK    4  A    between atoms: N_22  and  C_23
REMARK    5  A    between atoms: C_23  and  C_24
REMARK                            x       y       z     vdW  Elec       q    Type
REMARK                         _______ _______ _______ _____ _____    ______ ____
ROOT
ATOM      1  C   UNL     1       2.691  -3.777  -0.190  0.00  0.00    +0.260 C 
ATOM      2  O   UNL     1       1.611  -4.335  -0.181  0.00  0.00    -0.269 OA
ATOM      3  N   UNL     1       3.825  -4.504  -0.155  0.00  0.00    -0.312 N 
ATOM      4  H   UNL     1       4.687  -4.058  -0.163  0.00  0.00    +0.149 HD
ENDROOT
BRANCH   1  12
ATOM      5  C   UNL     1       0.612   2.020  -0.407  0.00  0.00    +0.001 A 
ATOM      6  C   UNL     1       1.858   2.634  -0.416  0.00  0.00    +0.001 A 
ATOM      7  C   UNL     1       3.014   1.882  -0.380  0.00  0.00    +0.014 A 
ATOM      8  C   UNL     1       2.930   0.493  -0.333  0.00  0.00    +0.046 A 
ATOM      9  C   UNL     1       1.662  -0.133  -0.323  0.00  0.00    -0.011 A 
ATOM     10  C   UNL     1       0.505   0.647  -0.361  0.00  0.00    +0.009 A 
ATOM     11  C   UNL     1       1.605  -1.594  -0.274  0.00  0.00    +0.039 A 
ATOM     12  C   UNL     1       2.759  -2.305  -0.240  0.00  0.00    +0.105 A 
ATOM     13  N   UNL     1       3.995  -1.694  -0.249  0.00  0.00    -0.318 N 
ATOM     14  H   UNL     1       4.792  -2.246  -0.223  0.00  0.00    +0.169 HD
ATOM     15  C   UNL     1       4.130  -0.354  -0.293  0.00  0.00    +0.257 A 
ATOM     16  O   UNL     1       5.238   0.151  -0.301  0.00  0.00    -0.267 OA
ENDBRANCH   1  12
BRANCH   3  17
ATOM     17  C   UNL     1       3.757  -5.966  -0.106  0.00  0.00    +0.089 C 
BRANCH  17  18
ATOM     18  C   UNL     1       5.174  -6.542  -0.073  0.00  0.00    -0.051 C 
ATOM     19  C   UNL     1       5.119  -8.080  -0.192  0.00  0.00    -0.016 C 
ATOM     20  C   UNL     1       5.373  -8.323  -1.702  0.00  0.00    -0.020 C 
ATOM     21  C   UNL     1       6.386  -7.200  -2.035  0.00  0.00    -0.078 C 
ATOM     22  N   UNL     1       5.946  -6.040  -1.225  0.00  0.00    +0.383 N 
ATOM     23  H   UNL     1       5.365  -5.434  -1.785  0.00  0.00    -0.081 HD
BRANCH  22  24
ATOM     24  C   UNL     1       7.118  -5.293  -0.747  0.00  0.00    -0.075 C 
BRANCH  24  25
ATOM     25  C   UNL     1       7.838  -4.657  -1.937  0.00  0.00    -0.028 C 
ATOM     26  C   UNL     1       9.133  -3.999  -1.458  0.00  0.00    +0.002 C 
ATOM     27  C   UNL     1       9.853  -3.363  -2.648  0.00  0.00    +0.000 C 
ATOM     28  C   UNL     1       8.949  -2.306  -3.286  0.00  0.00    +0.000 C 
ATOM     29  C   UNL     1       7.654  -2.964  -3.765  0.00  0.00    +0.000 C 
ATOM     30  C   UNL     1       6.934  -3.600  -2.575  0.00  0.00    +0.002 C 
ENDBRANCH  24  25
ENDBRANCH  22  24
ENDBRANCH  17  18
ENDBRANCH   3  17
TORSDOF 5
