REMARK  Name = ZINC39521970
REMARK  5 active torsions:
REMARK  status: ('A' for Active; 'I' for Inactive)
REMARK    1  A    between atoms: C_1  and  C_2
REMARK    2  A    between atoms: C_2  and  O_3
REMARK    3  A    between atoms: O_3  and  C_4
REMARK    4  A    between atoms: N_10  and  O_11
REMARK    5  A    between atoms: O_11  and  C_12
REMARK                            x       y       z     vdW  Elec       q    Type
REMARK                         _______ _______ _______ _____ _____    ______ ____
ROOT
ATOM      1  C   UNL     1       0.673  -1.899   1.308  0.00  0.00    +0.214 C 
ATOM      2  C   UNL     1       1.542  -2.299   2.502  0.00  0.00    +0.050 C 
ATOM      3  C   UNL     1       1.501  -3.821   2.669  0.00  0.00    +0.006 C 
ATOM      4  C   UNL     1       0.048  -4.266   2.855  0.00  0.00    +0.025 C 
ATOM      5  C   UNL     1      -0.779  -3.809   1.651  0.00  0.00    +0.051 C 
ATOM      6  N   UNL     1      -0.707  -2.347   1.534  0.00  0.00    -0.154 NA
ATOM      7  C   UNL     1      -0.224  -4.451   0.378  0.00  0.00    +0.025 C 
ATOM      8  C   UNL     1      -0.297  -5.975   0.502  0.00  0.00    +0.003 C 
ATOM      9  C   UNL     1      -1.753  -6.401   0.696  0.00  0.00    +0.015 C 
ATOM     10  C   UNL     1      -2.309  -5.758   1.968  0.00  0.00    +0.058 C 
ATOM     11  C   UNL     1      -2.236  -4.235   1.843  0.00  0.00    +0.039 C 
ATOM     12 BR   UNL     1      -4.181  -6.306   2.215  0.00  0.00    -0.088 Br
ENDROOT
BRANCH   6  13
ATOM     13  O   UNL     1      -1.596  -1.862   0.478  0.00  0.00    -0.297 OA
ATOM     14  C   UNL     1      -2.605  -0.960   0.936  0.00  0.00    +0.221 C 
ENDBRANCH   6  13
BRANCH   1  15
ATOM     15  O   UNL     1       0.693  -0.477   1.160  0.00  0.00    -0.360 OA
BRANCH  15  17
ATOM     16  C   UNL     1       0.450   1.493  -0.218  0.00  0.00    +0.034 C 
ATOM     17  C   UNL     1       0.246  -0.020  -0.118  0.00  0.00    +0.158 C 
ENDBRANCH  15  17
ENDBRANCH   1  15
TORSDOF 3
