REMARK  Name = ZINC00994183
REMARK  8 active torsions:
REMARK  status: ('A' for Active; 'I' for Inactive)
REMARK    1  A    between atoms: C_1  and  C_2
REMARK    2  A    between atoms: C_3  and  C_27
REMARK    3  A    between atoms: C_4  and  C_20
REMARK    4  A    between atoms: C_6  and  C_10
REMARK    5  A    between atoms: C_7  and  N_9
REMARK    6  A    between atoms: C_10  and  O_12
REMARK    7  A    between atoms: O_12  and  C_13
REMARK    8  A    between atoms: C_13  and  C_14
REMARK                            x       y       z     vdW  Elec       q    Type
REMARK                         _______ _______ _______ _____ _____    ______ ____
ROOT
ATOM      1  C   UNL     1      -5.089   2.363  -2.437  0.00  0.00    +0.087 C 
ATOM      2  C   UNL     1      -4.347   2.099  -1.152  0.00  0.00    +0.118 C 
ATOM      3  C   UNL     1      -3.181   1.446  -1.199  0.00  0.00    +0.079 C 
ATOM      4  C   UNL     1      -2.398   1.156   0.052  0.00  0.00    +0.105 C 
ATOM      5  C   UNL     1      -3.279   1.329   1.260  0.00  0.00    +0.106 C 
ATOM      6  C   UNL     1      -4.457   1.999   1.171  0.00  0.00    +0.195 C 
ATOM      7  O   UNL     1      -4.877   2.527   0.007  0.00  0.00    -0.445 OA
ENDROOT
BRANCH   4   8
ATOM      8  C   UNL     1      -1.231   2.105   0.143  0.00  0.00    -0.034 A 
ATOM      9  C   UNL     1       0.060   1.611   0.176  0.00  0.00    +0.006 A 
ATOM     10  C   UNL     1       1.131   2.481   0.254  0.00  0.00    +0.020 A 
ATOM     11  C   UNL     1       0.911   3.846   0.304  0.00  0.00    +0.041 A 
ATOM     12  C   UNL     1      -0.381   4.339   0.277  0.00  0.00    +0.020 A 
ATOM     13  C   UNL     1      -1.452   3.468   0.200  0.00  0.00    +0.006 A 
ATOM     14 CL   UNL     1       2.256   4.939   0.401  0.00  0.00    -0.084 Cl
ENDBRANCH   4   8
BRANCH   6  15
ATOM     15  N   UNL     1      -5.234   2.140   2.289  0.00  0.00    -0.329 N 
ATOM     16  H   UNL     1      -6.034   2.688   2.258  0.00  0.00    +0.145 HD
ATOM     17  H   UNL     1      -4.985   1.693   3.113  0.00  0.00    +0.145 HD
ENDBRANCH   6  15
BRANCH   5  18
ATOM     18  C   UNL     1      -2.877   0.793   2.493  0.00  0.00    +0.341 C 
ATOM     19  O   UNL     1      -3.013  -0.398   2.712  0.00  0.00    -0.245 OA
BRANCH  18  20
ATOM     20  O   UNL     1      -2.340   1.597   3.436  0.00  0.00    -0.456 OA
BRANCH  20  21
ATOM     21  C   UNL     1      -1.954   0.983   4.668  0.00  0.00    +0.268 C 
BRANCH  21  22
ATOM     22  C   UNL     1      -1.380   2.027   5.591  0.00  0.00    -0.010 A 
ATOM     23  C   UNL     1      -0.024   2.295   5.573  0.00  0.00    +0.007 A 
ATOM     24  C   UNL     1       0.501   3.256   6.416  0.00  0.00    +0.000 A 
ATOM     25  C   UNL     1      -0.327   3.942   7.285  0.00  0.00    +0.000 A 
ATOM     26  C   UNL     1      -1.682   3.670   7.306  0.00  0.00    +0.000 A 
ATOM     27  C   UNL     1      -2.209   2.713   6.459  0.00  0.00    +0.007 A 
ENDBRANCH  21  22
ENDBRANCH  20  21
ENDBRANCH  18  20
ENDBRANCH   5  18
BRANCH   3  28
ATOM     28  C   UNL     1      -2.667   1.016  -2.465  0.00  0.00    +0.099 C 
ATOM     29  N   UNL     1      -2.260   0.675  -3.469  0.00  0.00    -0.191 NA
ENDBRANCH   3  28
TORSDOF 7
