REMARK  Name = ZINC08590195
REMARK  10 active torsions:
REMARK  status: ('A' for Active; 'I' for Inactive)
REMARK    1  A    between atoms: C_1  and  C_2
REMARK    2  A    between atoms: C_2  and  O_3
REMARK    3  A    between atoms: O_3  and  C_4
REMARK    4  A    between atoms: C_4  and  C_6
REMARK    5  A    between atoms: C_10  and  N_12
REMARK    6  A    between atoms: N_15  and  C_16
REMARK    7  A    between atoms: C_16  and  C_18
REMARK    8  A    between atoms: C_16  and  C_19
REMARK    9  A    between atoms: C_23  and  N_24
REMARK   10  A    between atoms: N_30  and  C_33
REMARK                            x       y       z     vdW  Elec       q    Type
REMARK                         _______ _______ _______ _____ _____    ______ ____
ROOT
ATOM      1  C   UNL     1      -6.549  -7.839  -0.024  0.00  0.00    +0.104 C 
ATOM      2  C   UNL     1      -5.716  -7.437  -1.243  0.00  0.00    +0.033 C 
ENDROOT
BRANCH   1   3
ATOM      3  C   UNL     1      -5.976  -9.093   0.585  0.00  0.00    +0.007 A 
ATOM      4  C   UNL     1      -5.916 -10.267  -0.159  0.00  0.00    -0.034 A 
ATOM      5  C   UNL     1      -5.386 -11.359   0.460  0.00  0.00    -0.021 A 
ATOM      6  S   UNL     1      -4.963 -10.767   2.074  0.00  0.00    -0.077 S 
ATOM      7  C   UNL     1      -5.509  -9.079   1.863  0.00  0.00    +0.090 A 
ATOM      8  C   UNL     1      -5.221 -12.724  -0.122  0.00  0.00    -0.036 C 
ATOM      9  N   UNL     1      -6.052 -12.814  -1.338  0.00  0.00    +0.381 N 
ATOM     10  C   UNL     1      -5.781 -11.657  -2.201  0.00  0.00    -0.074 C 
ATOM     11  C   UNL     1      -6.399 -10.391  -1.602  0.00  0.00    +0.018 C 
ATOM     12  C   UNL     1      -5.730 -14.052  -2.061  0.00  0.00    -0.096 C 
ATOM     13  H   UNL     1      -7.027 -12.820  -1.079  0.00  0.00    -0.082 HD
BRANCH   7  14
ATOM     14  N   UNL     1      -5.469  -8.018   2.775  0.00  0.00    -0.317 N 
ATOM     15  C   UNL     1      -6.552  -7.443   3.376  0.00  0.00    +0.092 A 
ATOM     16  C   UNL     1      -6.111  -6.458   4.185  0.00  0.00    +0.019 A 
ATOM     17  C   UNL     1      -4.706  -6.422   4.081  0.00  0.00    +0.019 A 
ATOM     18  C   UNL     1      -4.340  -7.391   3.217  0.00  0.00    +0.092 A 
ENDBRANCH   7  14
ENDBRANCH   1   3
BRANCH   1  22
ATOM     19  N   UNL     1      -7.647  -5.197   2.286  0.00  0.00    -0.269 N 
ATOM     20  C   UNL     1      -7.673  -6.192   1.376  0.00  0.00    +0.304 C 
ATOM     21  O   UNL     1      -8.735  -6.577   0.927  0.00  0.00    -0.252 OA
ATOM     22  N   UNL     1      -6.521  -6.758   0.965  0.00  0.00    -0.292 N 
ATOM     23  H   UNL     1      -6.798  -4.851   2.602  0.00  0.00    +0.156 HD
ATOM     24  H   UNL     1      -5.674  -6.451   1.323  0.00  0.00    +0.151 HD
BRANCH  19  29
ATOM     25  C   UNL     1     -11.153  -4.941   3.397  0.00  0.00    +0.061 A 
ATOM     26  C   UNL     1     -11.215  -3.591   3.746  0.00  0.00    +0.015 A 
ATOM     27  C   UNL     1     -10.099  -2.791   3.607  0.00  0.00    +0.003 A 
ATOM     28  C   UNL     1      -8.917  -3.322   3.124  0.00  0.00    +0.023 A 
ATOM     29  C   UNL     1      -8.845  -4.665   2.775  0.00  0.00    +0.036 A 
ATOM     30  C   UNL     1      -9.959  -5.478   2.915  0.00  0.00    +0.038 A 
BRANCH  25  31
ATOM     31  C   UNL     1     -12.346  -5.801   3.544  0.00  0.00    +0.339 C 
ATOM     32  O   UNL     1     -12.288  -6.976   3.245  0.00  0.00    -0.245 OA
BRANCH  31  33
ATOM     33  O   UNL     1     -13.497  -5.280   4.011  0.00  0.00    -0.461 OA
BRANCH  33  35
ATOM     34  C   UNL     1     -15.819  -5.402   4.669  0.00  0.00    +0.048 C 
ATOM     35  C   UNL     1     -14.611  -6.168   4.127  0.00  0.00    +0.229 C 
ENDBRANCH  33  35
ENDBRANCH  31  33
ENDBRANCH  25  31
ENDBRANCH  19  29
ENDBRANCH   1  22
TORSDOF 7
