REMARK  Name = ZINC01132055
REMARK  3 active torsions:
REMARK  status: ('A' for Active; 'I' for Inactive)
REMARK    1  A    between atoms: C_4  and  C_7
REMARK    2  A    between atoms: C_8  and  C_9
REMARK    3  A    between atoms: N_17  and  C_19
REMARK                            x       y       z     vdW  Elec       q    Type
REMARK                         _______ _______ _______ _____ _____    ______ ____
ROOT
ATOM      1  C   UNL     1       1.198   1.797   0.000  0.00  0.00    +0.020 C 
ATOM      2  C   UNL     1       2.388   1.131  -0.015  0.00  0.00    +0.080 A 
ATOM      3  C   UNL     1       3.758   1.669  -0.031  0.00  0.00    +0.268 A 
ATOM      4  O   UNL     1       3.960   2.869  -0.026  0.00  0.00    -0.266 OA
ATOM      5  N   UNL     1       4.770   0.803  -0.047  0.00  0.00    -0.270 N 
ATOM      6  C   UNL     1       4.473  -0.556  -0.045  0.00  0.00    +0.175 A 
ATOM      7  N   UNL     1       5.339  -1.515  -0.054  0.00  0.00    -0.241 NA
ATOM      8  C   UNL     1       6.767  -1.158  -0.051  0.00  0.00    +0.252 C 
ATOM      9  N   UNL     1       6.956   0.131  -0.729  0.00  0.00    -0.292 N 
ATOM     10  C   UNL     1       6.201   1.213  -0.078  0.00  0.00    +0.237 C 
ATOM     11  S   UNL     1       2.703  -0.629  -0.028  0.00  0.00    -0.046 S 
ENDROOT
BRANCH   9  12
ATOM     12  C   UNL     1       8.314   0.454  -0.822  0.00  0.00    +0.036 A 
ATOM     13  C   UNL     1       8.774   1.670  -0.335  0.00  0.00    +0.027 A 
ATOM     14  C   UNL     1      10.116   1.988  -0.422  0.00  0.00    +0.051 A 
ATOM     15  C   UNL     1      11.005   1.099  -1.005  0.00  0.00    +0.166 A 
ATOM     16  C   UNL     1      10.546  -0.119  -1.500  0.00  0.00    +0.168 A 
ATOM     17  C   UNL     1       9.201  -0.439  -1.407  0.00  0.00    +0.072 A 
ATOM     18  O   UNL     1      11.605  -0.807  -2.019  0.00  0.00    -0.453 OA
ATOM     19  C   UNL     1      12.644   0.172  -2.206  0.00  0.00    +0.466 C 
ATOM     20  O   UNL     1      12.353   1.174  -1.214  0.00  0.00    -0.453 OA
ENDBRANCH   9  12
BRANCH   1  22
ATOM     21  C   UNL     1      -1.194   1.737   0.017  0.00  0.00    +0.008 C 
ATOM     22  C   UNL     1      -0.013   1.076   0.008  0.00  0.00    +0.002 C 
BRANCH  21  26
ATOM     23  C   UNL     1      -4.837  -0.433   0.023  0.00  0.00    +0.000 A 
ATOM     24  C   UNL     1      -4.861   0.951   0.030  0.00  0.00    +0.001 A 
ATOM     25  C   UNL     1      -3.680   1.664   0.029  0.00  0.00    +0.008 A 
ATOM     26  C   UNL     1      -2.457   0.984   0.019  0.00  0.00    -0.025 A 
ATOM     27  C   UNL     1      -2.443  -0.415   0.006  0.00  0.00    +0.008 A 
ATOM     28  C   UNL     1      -3.631  -1.113   0.014  0.00  0.00    +0.001 A 
ENDBRANCH  21  26
ENDBRANCH   1  22
TORSDOF 3
