REMARK  Name = ZINC35418850
REMARK  11 active torsions:
REMARK  status: ('A' for Active; 'I' for Inactive)
REMARK    1  A    between atoms: C_1  and  C_2
REMARK    2  A    between atoms: C_2  and  C_4
REMARK    3  A    between atoms: C_2  and  C_8
REMARK    4  A    between atoms: C_4  and  N_5
REMARK    5  A    between atoms: N_5  and  C_6
REMARK    6  A    between atoms: N_5  and  C_7
REMARK    7  A    between atoms: C_8  and  S_9
REMARK    8  A    between atoms: S_9  and  C_10
REMARK    9  A    between atoms: C_17  and  C_31
REMARK   10  A    between atoms: C_25  and  C_29
REMARK   11  A    between atoms: C_25  and  C_30
REMARK                            x       y       z     vdW  Elec       q    Type
REMARK                         _______ _______ _______ _____ _____    ______ ____
ROOT
ATOM      1  C   UNL     1       0.999  -0.065   4.422  0.00  0.00    +0.171 A 
ATOM      2  N   UNL     1       1.854  -0.908   3.882  0.00  0.00    -0.208 NA
ATOM      3  C   UNL     1       2.625  -1.697   4.643  0.00  0.00    +0.131 A 
ATOM      4  C   UNL     1       2.527  -1.630   6.022  0.00  0.00    +0.065 A 
ATOM      5  C   UNL     1       1.615  -0.732   6.589  0.00  0.00    +0.258 A 
ATOM      6  O   UNL     1       1.502  -0.646   7.802  0.00  0.00    -0.267 OA
ATOM      7  N   UNL     1       0.869   0.042   5.774  0.00  0.00    -0.302 N 
ATOM      8  C   UNL     1       3.370  -2.493   6.923  0.00  0.00    +0.070 C 
ATOM      9  C   UNL     1       4.591  -3.002   6.157  0.00  0.00    +0.087 C 
ATOM     10  C   UNL     1       4.106  -3.638   4.844  0.00  0.00    +0.083 C 
ATOM     11  N   UNL     1       3.510  -2.569   4.033  0.00  0.00    -0.325 N 
ATOM     12  C   UNL     1       5.295  -4.274   4.128  0.00  0.00    +0.029 C 
ATOM     13  C   UNL     1       5.851  -5.421   4.974  0.00  0.00    -0.027 C 
ATOM     14  C   UNL     1       6.380  -4.873   6.303  0.00  0.00    +0.081 C 
ATOM     15  C   UNL     1       5.311  -4.056   6.966  0.00  0.00    +0.140 C 
ATOM     16  O   UNL     1       5.013  -4.267   8.118  0.00  0.00    -0.297 OA
ATOM     17  C   UNL     1       4.740  -6.436   5.248  0.00  0.00    +0.011 C 
ATOM     18  C   UNL     1       6.990  -6.107   4.217  0.00  0.00    +0.011 C 
ATOM     19  H   UNL     1       3.730  -2.477   3.092  0.00  0.00    +0.148 HD
ATOM     20  H   UNL     1       0.235   0.672   6.151  0.00  0.00    +0.171 HD
ENDROOT
BRANCH   8  21
ATOM     21  C   UNL     1       2.554  -3.666   7.400  0.00  0.00    -0.039 A 
ATOM     22  C   UNL     1       2.581  -4.030   8.733  0.00  0.00    +0.004 A 
ATOM     23  C   UNL     1       1.833  -5.107   9.171  0.00  0.00    +0.000 A 
ATOM     24  C   UNL     1       1.057  -5.819   8.276  0.00  0.00    +0.000 A 
ATOM     25  C   UNL     1       1.029  -5.455   6.943  0.00  0.00    +0.000 A 
ATOM     26  C   UNL     1       1.775  -4.375   6.506  0.00  0.00    +0.004 A 
ENDBRANCH   8  21
BRANCH   1  27
ATOM     27  S   UNL     1       0.009   0.949   3.376  0.00  0.00    -0.088 S 
BRANCH  27  28
ATOM     28  C   UNL     1       0.512   0.473   1.699  0.00  0.00    +0.078 C 
BRANCH  28  30
ATOM     29  C   UNL     1       0.089   2.768   0.807  0.00  0.00    +0.006 C 
ATOM     30  C   UNL     1      -0.282   1.290   0.677  0.00  0.00    -0.021 C 
BRANCH  30  31
ATOM     31  C   UNL     1       0.050   0.802  -0.734  0.00  0.00    -0.076 C 
BRANCH  31  32
ATOM     32  N   UNL     1      -0.805   1.496  -1.706  0.00  0.00    +0.376 N 
ATOM     33  C   UNL     1      -0.398   1.126  -3.068  0.00  0.00    -0.097 C 
ATOM     34  C   UNL     1      -2.205   1.109  -1.491  0.00  0.00    -0.097 C 
ATOM     35  H   UNL     1      -0.710   2.494  -1.586  0.00  0.00    -0.083 HD
ENDBRANCH  31  32
ENDBRANCH  30  31
ENDBRANCH  28  30
ENDBRANCH  27  28
ENDBRANCH   1  27
TORSDOF 6
