REMARK  Name = ZINC12973813
REMARK  8 active torsions:
REMARK  status: ('A' for Active; 'I' for Inactive)
REMARK    1  A    between atoms: C_4  and  C_7
REMARK    2  A    between atoms: C_7  and  C_8
REMARK    3  A    between atoms: C_7  and  N_13
REMARK    4  A    between atoms: C_14  and  C_16
REMARK    5  A    between atoms: C_16  and  N_17
REMARK    6  A    between atoms: N_20  and  S_23
REMARK    7  A    between atoms: S_23  and  C_26
REMARK    8  A    between atoms: C_29  and  C_32
REMARK                            x       y       z     vdW  Elec       q    Type
REMARK                         _______ _______ _______ _____ _____    ______ ____
ROOT
ATOM      1  N   UNL     1       5.956  -3.917  -2.914  0.00  0.00    -0.291 NA
ATOM      2  C   UNL     1       6.503  -2.854  -3.768  0.00  0.00    +0.102 C 
ATOM      3  C   UNL     1       7.961  -3.178  -4.111  0.00  0.00    +0.125 C 
ATOM      4  N   UNL     1       8.016  -4.529  -4.689  0.00  0.00    -0.174 NA
ATOM      5  C   UNL     1       7.367  -5.626  -3.954  0.00  0.00    +0.125 C 
ATOM      6  C   UNL     1       5.933  -5.206  -3.618  0.00  0.00    +0.102 C 
ENDROOT
BRANCH   4   7
ATOM      7  S   UNL     1       8.787  -4.808  -6.127  0.00  0.00    +0.061 S 
ATOM      8  O   UNL     1       8.214  -5.988  -6.673  0.00  0.00    -0.153 OA
ATOM      9  O   UNL     1       8.799  -3.572  -6.828  0.00  0.00    -0.153 OA
BRANCH   7  10
ATOM     10  C   UNL     1      10.466  -5.191  -5.752  0.00  0.00    +0.106 A 
ATOM     11  C   UNL     1      11.403  -4.176  -5.675  0.00  0.00    +0.029 A 
ATOM     12  C   UNL     1      12.719  -4.469  -5.381  0.00  0.00    +0.015 A 
ATOM     13  C   UNL     1      13.104  -5.793  -5.163  0.00  0.00    +0.037 A 
ATOM     14  C   UNL     1      12.153  -6.812  -5.243  0.00  0.00    +0.015 A 
ATOM     15  C   UNL     1      10.840  -6.505  -5.531  0.00  0.00    +0.029 A 
BRANCH  13  16
ATOM     16  C   UNL     1      14.512  -6.114  -4.849  0.00  0.00    +0.242 C 
ATOM     17  O   UNL     1      15.338  -5.225  -4.781  0.00  0.00    -0.270 OA
ATOM     18  N   UNL     1      14.881  -7.394  -4.639  0.00  0.00    -0.325 N 
ATOM     19  H   UNL     1      14.222  -8.103  -4.693  0.00  0.00    +0.145 HD
ATOM     20  H   UNL     1      15.805  -7.604  -4.433  0.00  0.00    +0.145 HD
ENDBRANCH  13  16
ENDBRANCH   7  10
ENDBRANCH   4   7
BRANCH   1  21
ATOM     21  C   UNL     1       4.619  -3.561  -2.422  0.00  0.00    +0.180 C 
BRANCH  21  23
ATOM     22  N   UNL     1       3.611  -1.865  -0.930  0.00  0.00    -0.303 N 
ATOM     23  C   UNL     1       4.721  -2.370  -1.504  0.00  0.00    +0.228 C 
ATOM     24  O   UNL     1       5.802  -1.868  -1.281  0.00  0.00    -0.274 OA
ATOM     25  H   UNL     1       2.747  -2.267  -1.108  0.00  0.00    +0.150 HD
BRANCH  22  26
ATOM     26  C   UNL     1       3.711  -0.707  -0.038  0.00  0.00    +0.140 C 
BRANCH  26  30
ATOM     27  C   UNL     1      -0.017   1.378   0.010  0.00  0.00    +0.000 A 
ATOM     28  C   UNL     1       1.171   2.086   0.002  0.00  0.00    +0.000 A 
ATOM     29  C   UNL     1       2.377   1.411  -0.013  0.00  0.00    +0.006 A 
ATOM     30  C   UNL     1       2.396   0.029  -0.020  0.00  0.00    -0.022 A 
ATOM     31  C   UNL     1       1.208  -0.679  -0.012  0.00  0.00    +0.006 A 
ATOM     32  C   UNL     1       0.002  -0.004   0.002  0.00  0.00    +0.000 A 
ENDBRANCH  26  30
BRANCH  26  33
ATOM     33  C   UNL     1       4.044  -1.175   1.356  0.00  0.00    +0.014 A 
ATOM     34  C   UNL     1       4.883  -0.621   2.264  0.00  0.00    +0.013 A 
ATOM     35  C   UNL     1       5.034  -1.230   3.496  0.00  0.00    +0.008 A 
ATOM     36  C   UNL     1       4.338  -2.363   3.759  0.00  0.00    +0.045 A 
ATOM     37  S   UNL     1       3.428  -2.598   2.241  0.00  0.00    -0.099 S 
ENDBRANCH  26  33
ENDBRANCH  22  26
ENDBRANCH  21  23
ENDBRANCH   1  21
TORSDOF 8
