REMARK  Name = ZINC50593984
REMARK  5 active torsions:
REMARK  status: ('A' for Active; 'I' for Inactive)
REMARK    1  A    between atoms: C_1  and  C_2
REMARK    2  A    between atoms: C_4  and  C_18
REMARK    3  A    between atoms: C_7  and  C_8
REMARK    4  A    between atoms: C_11  and  C_17
REMARK    5  A    between atoms: C_13  and  C_15
REMARK                            x       y       z     vdW  Elec       q    Type
REMARK                         _______ _______ _______ _____ _____    ______ ____
ROOT
ATOM      1  C   UNL     1      -0.061   1.500   0.071  0.00  0.00    +0.044 C 
ATOM      2  C   UNL     1      -0.016  -0.005   0.031  0.00  0.00    -0.041 A 
ATOM      3  C   UNL     1      -0.177  -0.689  -1.167  0.00  0.00    +0.027 A 
ATOM      4  C   UNL     1      -0.130  -2.069  -1.169  0.00  0.00    +0.041 A 
ATOM      5  N   UNL     1       0.064  -2.741  -0.050  0.00  0.00    -0.233 NA
ATOM      6  C   UNL     1       0.221  -2.126   1.111  0.00  0.00    +0.159 A 
ATOM      7  C   UNL     1       0.192  -0.739   1.186  0.00  0.00    +0.014 A 
ATOM      8  N   UNL     1       0.425  -2.878   2.271  0.00  0.00    -0.217 N 
ATOM      9  C   UNL     1       1.313  -3.897   2.420  0.00  0.00    +0.058 A 
ATOM     10  C   UNL     1       1.198  -4.358   3.687  0.00  0.00    +0.062 A 
ATOM     11  C   UNL     1       0.212  -3.603   4.334  0.00  0.00    +0.075 A 
ATOM     12  N   UNL     1      -0.246  -2.714   3.490  0.00  0.00    -0.169 NA
ATOM     13  C   UNL     1      -0.239  -3.779   5.761  0.00  0.00    +0.069 C 
ATOM     14 BR   UNL     1       2.192  -5.774   4.449  0.00  0.00    -0.047 Br
ATOM     15  C   UNL     1       2.255  -4.417   1.365  0.00  0.00    +0.067 C 
ATOM     16  C   UNL     1      -0.304  -2.817  -2.465  0.00  0.00    +0.065 C 
ENDROOT
BRANCH   7  17
ATOM     17  C   UNL     1       0.379  -0.042   2.510  0.00  0.00    +0.147 C 
ATOM     18 CL   UNL     1      -1.233   0.290   3.246  0.00  0.00    -0.120 Cl
ENDBRANCH   7  17
TORSDOF 1
