REMARK  Name = ZINC36597374
REMARK  3 active torsions:
REMARK  status: ('A' for Active; 'I' for Inactive)
REMARK    1  A    between atoms: C_4  and  C_7
REMARK    2  A    between atoms: C_16  and  O_25
REMARK    3  A    between atoms: C_17  and  N_19
REMARK                            x       y       z     vdW  Elec       q    Type
REMARK                         _______ _______ _______ _____ _____    ______ ____
ROOT
ATOM      1  C   UNL     1       3.784  -0.687  -0.050  0.00  0.00    +0.046 C 
ATOM      2  C   UNL     1       3.886  -1.549   1.183  0.00  0.00    -0.015 A 
ATOM      3  C   UNL     1       4.554  -1.094   2.300  0.00  0.00    +0.021 A 
ATOM      4  C   UNL     1       4.634  -1.889   3.430  0.00  0.00    +0.018 A 
ATOM      5  C   UNL     1       4.045  -3.142   3.445  0.00  0.00    +0.017 A 
ATOM      6  C   UNL     1       3.378  -3.608   2.331  0.00  0.00    +0.029 A 
ATOM      7  C   UNL     1       3.297  -2.813   1.187  0.00  0.00    +0.071 A 
ATOM      8  N   UNL     1       2.657  -3.275   0.068  0.00  0.00    -0.219 NA
ATOM      9  C   UNL     1       2.838  -2.735  -1.092  0.00  0.00    +0.174 C 
ATOM     10  C   UNL     1       3.791  -1.584  -1.290  0.00  0.00    +0.031 C 
ATOM     11 BR   UNL     1       5.553  -1.263   4.960  0.00  0.00    -0.050 Br
ENDROOT
BRANCH  10  12
ATOM     12  N   UNL     1       3.377  -0.800  -2.461  0.00  0.00    +0.388 N 
ATOM     13  C   UNL     1       3.559  -1.605  -3.675  0.00  0.00    -0.078 C 
ATOM     14  C   UNL     1       3.054  -0.824  -4.890  0.00  0.00    -0.019 C 
ATOM     15  C   UNL     1       3.847   0.480  -5.017  0.00  0.00    -0.004 C 
ATOM     16  C   UNL     1       3.711   1.278  -3.716  0.00  0.00    -0.019 C 
ATOM     17  C   UNL     1       4.192   0.418  -2.545  0.00  0.00    -0.078 C 
ATOM     18  H   UNL     1       2.405  -0.548  -2.370  0.00  0.00    -0.081 HD
ENDBRANCH  10  12
BRANCH   1  22
ATOM     19  C   UNL     1       0.149   1.555   0.069  0.00  0.00    +0.000 A 
ATOM     20  C   UNL     1       1.365   2.211   0.018  0.00  0.00    +0.000 A 
ATOM     21  C   UNL     1       2.541   1.486  -0.021  0.00  0.00    +0.004 A 
ATOM     22  C   UNL     1       2.501   0.104  -0.007  0.00  0.00    -0.041 A 
ATOM     23  C   UNL     1       1.286  -0.552   0.046  0.00  0.00    +0.004 A 
ATOM     24  C   UNL     1       0.110   0.173   0.082  0.00  0.00    +0.000 A 
ENDBRANCH   1  22
BRANCH   9  25
ATOM     25  O   UNL     1       2.158  -3.213  -2.153  0.00  0.00    -0.496 OA
ATOM     26  H   UNL     1       1.568  -3.950  -1.943  0.00  0.00    +0.293 HD
ENDBRANCH   9  25
TORSDOF 3
