REMARK  Name = ZINC20218798
REMARK  7 active torsions:
REMARK  status: ('A' for Active; 'I' for Inactive)
REMARK    1  A    between atoms: C_4  and  C_7
REMARK    2  A    between atoms: C_7  and  C_8
REMARK    3  A    between atoms: C_7  and  N_14
REMARK    4  A    between atoms: N_17  and  C_20
REMARK    5  A    between atoms: C_20  and  C_21
REMARK    6  A    between atoms: C_21  and  C_23
REMARK    7  A    between atoms: C_21  and  O_30
REMARK                            x       y       z     vdW  Elec       q    Type
REMARK                         _______ _______ _______ _____ _____    ______ ____
ROOT
ATOM      1  N   UNL     1       3.611  -1.868  -0.933  0.00  0.00    +0.389 N 
ATOM      2  C   UNL     1       4.893  -2.586  -0.948  0.00  0.00    -0.062 C 
ATOM      3  C   UNL     1       4.783  -3.805  -1.866  0.00  0.00    +0.066 C 
ATOM      4  N   UNL     1       4.433  -3.364  -3.223  0.00  0.00    -0.303 NA
ATOM      5  C   UNL     1       3.164  -2.622  -3.220  0.00  0.00    +0.066 C 
ATOM      6  C   UNL     1       3.287  -1.412  -2.291  0.00  0.00    -0.062 C 
ATOM      7  H   UNL     1       2.884  -2.485  -0.603  0.00  0.00    -0.080 HD
ENDROOT
BRANCH   1   8
ATOM      8  C   UNL     1       3.711  -0.707  -0.038  0.00  0.00    -0.007 C 
BRANCH   8  12
ATOM      9  C   UNL     1      -0.017   1.378   0.010  0.00  0.00    +0.000 A 
ATOM     10  C   UNL     1       1.171   2.086   0.002  0.00  0.00    +0.000 A 
ATOM     11  C   UNL     1       2.377   1.411  -0.013  0.00  0.00    +0.002 A 
ATOM     12  C   UNL     1       2.396   0.029  -0.020  0.00  0.00    -0.057 A 
ATOM     13  C   UNL     1       1.208  -0.679  -0.012  0.00  0.00    +0.002 A 
ATOM     14  C   UNL     1       0.002  -0.004   0.002  0.00  0.00    +0.000 A 
ENDBRANCH   8  12
BRANCH   8  15
ATOM     15  C   UNL     1       4.044  -1.175   1.356  0.00  0.00    -0.057 A 
ATOM     16  C   UNL     1       3.455  -2.320   1.860  0.00  0.00    +0.002 A 
ATOM     17  C   UNL     1       3.760  -2.748   3.138  0.00  0.00    +0.000 A 
ATOM     18  C   UNL     1       4.654  -2.033   3.912  0.00  0.00    +0.000 A 
ATOM     19  C   UNL     1       5.243  -0.888   3.408  0.00  0.00    +0.000 A 
ATOM     20  C   UNL     1       4.941  -0.462   2.128  0.00  0.00    +0.002 A 
ENDBRANCH   8  15
ENDBRANCH   1   8
BRANCH   4  21
ATOM     21  C   UNL     1       4.374  -4.503  -4.149  0.00  0.00    +0.120 C 
BRANCH  21  22
ATOM     22  C   UNL     1       4.256  -3.988  -5.584  0.00  0.00    +0.158 C 
BRANCH  22  23
ATOM     23  C   UNL     1       4.072  -5.153  -6.522  0.00  0.00    -0.018 A 
ATOM     24  C   UNL     1       5.164  -5.905  -6.913  0.00  0.00    +0.007 A 
ATOM     25  C   UNL     1       4.996  -6.974  -7.773  0.00  0.00    +0.015 A 
ATOM     26  C   UNL     1       3.734  -7.292  -8.242  0.00  0.00    +0.018 A 
ATOM     27  C   UNL     1       2.641  -6.539  -7.851  0.00  0.00    +0.015 A 
ATOM     28  C   UNL     1       2.810  -5.473  -6.987  0.00  0.00    +0.007 A 
ATOM     29 BR   UNL     1       3.503  -8.754  -9.419  0.00  0.00    -0.050 Br
ENDBRANCH  22  23
BRANCH  22  30
ATOM     30  O   UNL     1       5.445  -3.277  -5.935  0.00  0.00    -0.386 OA
ATOM     31  H   UNL     1       6.250  -3.811  -5.889  0.00  0.00    +0.210 HD
ENDBRANCH  22  30
ENDBRANCH  21  22
ENDBRANCH   4  21
TORSDOF 7
