REMARK  Name = ZINC13787431
REMARK  7 active torsions:
REMARK  status: ('A' for Active; 'I' for Inactive)
REMARK    1  A    between atoms: C_1  and  O_2
REMARK    2  A    between atoms: O_2  and  C_3
REMARK    3  A    between atoms: C_6  and  O_27
REMARK    4  A    between atoms: C_7  and  C_9
REMARK    5  A    between atoms: N_15  and  C_16
REMARK    6  A    between atoms: C_20  and  C_22
REMARK    7  A    between atoms: O_27  and  C_28
REMARK                            x       y       z     vdW  Elec       q    Type
REMARK                         _______ _______ _______ _____ _____    ______ ____
ROOT
ATOM      1  C   UNL     1       1.395  -4.095   2.225  0.00  0.00    +0.032 C 
ATOM      2  C   UNL     1       0.746  -4.843   1.296  0.00  0.00    +0.078 C 
ATOM      3  C   UNL     1       0.587  -6.308   1.220  0.00  0.00    +0.256 C 
ATOM      4  O   UNL     1       1.066  -7.045   2.062  0.00  0.00    -0.269 OA
ATOM      5  N   UNL     1      -0.102  -6.784   0.196  0.00  0.00    -0.260 N 
ATOM      6  C   UNL     1      -0.637  -5.933  -0.746  0.00  0.00    +0.166 C 
ATOM      7  N   UNL     1      -1.340  -6.236  -1.815  0.00  0.00    -0.226 NA
ATOM      8  S   UNL     1      -0.150  -4.319  -0.158  0.00  0.00    -0.049 S 
ATOM      9  H   UNL     1      -0.231  -7.741   0.108  0.00  0.00    +0.157 HD
ENDROOT
BRANCH   1  14
ATOM     10  C   UNL     1       1.572  -0.741   0.554  0.00  0.00    +0.121 A 
ATOM     11  C   UNL     1       1.873   0.082   1.633  0.00  0.00    +0.049 A 
ATOM     12  C   UNL     1       2.019  -0.452   2.899  0.00  0.00    +0.050 A 
ATOM     13  C   UNL     1       1.865  -1.813   3.103  0.00  0.00    +0.127 A 
ATOM     14  C   UNL     1       1.560  -2.651   2.018  0.00  0.00    +0.021 A 
ATOM     15  C   UNL     1       1.409  -2.101   0.740  0.00  0.00    +0.057 A 
BRANCH  10  17
ATOM     16  C   UNL     1       1.611   1.207  -0.810  0.00  0.00    +0.277 C 
ATOM     17  O   UNL     1       1.430  -0.205  -0.688  0.00  0.00    -0.495 OA
ENDBRANCH  10  17
BRANCH  13  18
ATOM     18  O   UNL     1       2.009  -2.335   4.348  0.00  0.00    -0.495 OA
ATOM     19  C   UNL     1       2.320  -1.423   5.403  0.00  0.00    +0.277 C 
ENDBRANCH  13  18
ENDBRANCH   1  14
BRANCH   7  20
ATOM     20  C   UNL     1      -1.622  -7.544  -2.100  0.00  0.00    +0.067 A 
ATOM     21  C   UNL     1      -0.623  -8.515  -2.000  0.00  0.00    +0.028 A 
ATOM     22  C   UNL     1      -0.914  -9.832  -2.290  0.00  0.00    +0.003 A 
ATOM     23  C   UNL     1      -2.192 -10.192  -2.679  0.00  0.00    +0.012 A 
ATOM     24  C   UNL     1      -3.187  -9.235  -2.780  0.00  0.00    +0.057 A 
ATOM     25  C   UNL     1      -2.911  -7.916  -2.487  0.00  0.00    +0.040 A 
BRANCH  24  26
ATOM     26  C   UNL     1      -4.575  -9.637  -3.205  0.00  0.00    +0.417 C 
ATOM     27  F   UNL     1      -4.611 -11.016  -3.439  0.00  0.00    -0.166 F 
ATOM     28  F   UNL     1      -5.485  -9.312  -2.193  0.00  0.00    -0.166 F 
ATOM     29  F   UNL     1      -4.920  -8.956  -4.378  0.00  0.00    -0.166 F 
ENDBRANCH  24  26
ENDBRANCH   7  20
TORSDOF 5
