REMARK  Name = ZINC62838462
REMARK  6 active torsions:
REMARK  status: ('A' for Active; 'I' for Inactive)
REMARK    1  A    between atoms: C_4  and  C_7
REMARK    2  A    between atoms: C_7  and  C_9
REMARK    3  A    between atoms: C_7  and  N_21
REMARK    4  A    between atoms: C_9  and  N_10
REMARK    5  A    between atoms: N_10  and  C_11
REMARK    6  A    between atoms: C_14  and  N_18
REMARK                            x       y       z     vdW  Elec       q    Type
REMARK                         _______ _______ _______ _____ _____    ______ ____
ROOT
ATOM      1  C   UNL     1       4.019  -1.168  -1.464  0.00  0.00    +0.090 C 
ENDROOT
BRANCH   1   2
ATOM      2  N   UNL     1       5.235  -1.984  -1.461  0.00  0.00    -0.344 N 
ATOM      3  H   UNL     1       5.705  -2.152  -0.630  0.00  0.00    +0.146 HD
BRANCH   2   4
ATOM      4  C   UNL     1       5.718  -2.521  -2.657  0.00  0.00    +0.041 A 
ATOM      5  C   UNL     1       5.050  -2.277  -3.850  0.00  0.00    +0.026 A 
ATOM      6  C   UNL     1       5.530  -2.810  -5.031  0.00  0.00    +0.034 A 
ATOM      7  C   UNL     1       6.676  -3.585  -5.026  0.00  0.00    +0.127 A 
ATOM      8  C   UNL     1       7.344  -3.830  -3.841  0.00  0.00    +0.049 A 
ATOM      9  C   UNL     1       6.872  -3.296  -2.657  0.00  0.00    +0.041 A 
ATOM     10 BR   UNL     1       7.791  -3.625  -1.037  0.00  0.00    -0.048 Br
BRANCH   7  11
ATOM     11  N   UNL     1       7.187  -4.154  -6.293  0.00  0.00    +0.056 N 
ATOM     12  O   UNL     1       6.603  -3.941  -7.331  0.00  0.00    -0.126 OA
ATOM     13  O   UNL     1       8.188  -4.832  -6.291  0.00  0.00    -0.126 OA
ENDBRANCH   7  11
ENDBRANCH   2   4
ENDBRANCH   1   2
BRANCH   1  14
ATOM     14  C   UNL     1       3.711  -0.707  -0.038  0.00  0.00    -0.027 C 
BRANCH  14  18
ATOM     15  C   UNL     1      -0.017   1.378   0.010  0.00  0.00    +0.000 A 
ATOM     16  C   UNL     1       1.171   2.086   0.002  0.00  0.00    +0.000 A 
ATOM     17  C   UNL     1       2.377   1.411  -0.013  0.00  0.00    +0.002 A 
ATOM     18  C   UNL     1       2.396   0.029  -0.020  0.00  0.00    -0.060 A 
ATOM     19  C   UNL     1       1.208  -0.679  -0.012  0.00  0.00    +0.002 A 
ATOM     20  C   UNL     1       0.002  -0.004   0.002  0.00  0.00    +0.000 A 
ENDBRANCH  14  18
BRANCH  14  21
ATOM     21  N   UNL     1       3.630  -1.877   0.848  0.00  0.00    +0.384 N 
ATOM     22  H   UNL     1       2.897  -2.491   0.527  0.00  0.00    -0.089 HD
ATOM     23  H   UNL     1       4.510  -2.369   0.836  0.00  0.00    -0.089 HD
ATOM     24  H   UNL     1       3.427  -1.573   1.788  0.00  0.00    -0.089 HD
ENDBRANCH  14  21
ENDBRANCH   1  14
TORSDOF 6
