REMARK  Name = ZINC22874702
REMARK  8 active torsions:
REMARK  status: ('A' for Active; 'I' for Inactive)
REMARK    1  A    between atoms: C_1  and  C_2
REMARK    2  A    between atoms: C_2  and  C_3
REMARK    3  A    between atoms: N_14  and  N_15
REMARK    4  A    between atoms: N_15  and  C_16
REMARK    5  A    between atoms: C_16  and  N_18
REMARK    6  A    between atoms: N_18  and  C_19
REMARK    7  A    between atoms: C_21  and  C_26
REMARK    8  A    between atoms: C_23  and  C_25
REMARK                            x       y       z     vdW  Elec       q    Type
REMARK                         _______ _______ _______ _____ _____    ______ ____
ROOT
ATOM      1  C   UNL     1       0.783  -0.259   1.556  0.00  0.00    +0.036 C 
ATOM      2  C   UNL     1       0.532   0.167   3.013  0.00  0.00    +0.098 C 
ATOM      3  N   UNL     1       1.342  -0.646   3.887  0.00  0.00    -0.300 NA
ATOM      4  C   UNL     1       0.811  -1.925   4.282  0.00  0.00    +0.100 C 
ATOM      5  C   UNL     1       1.281  -3.034   3.393  0.00  0.00    +0.100 C 
ATOM      6  N   UNL     1       1.450  -2.660   2.009  0.00  0.00    -0.300 NA
ATOM      7  C   UNL     1       0.499  -1.744   1.414  0.00  0.00    +0.098 C 
ATOM      8  C   UNL     1       2.865  -2.335   1.758  0.00  0.00    +0.095 C 
ATOM      9  C   UNL     1       3.152  -0.893   2.177  0.00  0.00    +0.064 C 
ATOM     10  C   UNL     1       2.776  -0.638   3.632  0.00  0.00    +0.095 C 
ATOM     11  C   UNL     1       2.267  -0.025   1.290  0.00  0.00    +0.051 C 
ATOM     12  N   UNL     1       2.717   0.813   0.434  0.00  0.00    -0.189 NA
ENDROOT
BRANCH   1  14
ATOM     13  C   UNL     1       0.232   2.045   0.761  0.00  0.00    +0.005 C 
ATOM     14  C   UNL     1      -0.081   0.557   0.591  0.00  0.00    +0.012 C 
ENDBRANCH   1  14
BRANCH  12  15
ATOM     15  N   UNL     1       4.099   0.961   0.258  0.00  0.00    -0.218 N 
ATOM     16  H   UNL     1       4.715   0.427   0.784  0.00  0.00    +0.176 HD
BRANCH  15  17
ATOM     17  C   UNL     1       4.573   1.844  -0.644  0.00  0.00    +0.154 C 
ATOM     18  S   UNL     1       6.262   2.023  -0.859  0.00  0.00    -0.017 S 
BRANCH  17  19
ATOM     19  N   UNL     1       3.718   2.585  -1.375  0.00  0.00    -0.296 N 
ATOM     20  H   UNL     1       2.762   2.440  -1.298  0.00  0.00    +0.154 HD
BRANCH  19  21
ATOM     21  C   UNL     1       4.208   3.564  -2.245  0.00  0.00    +0.033 A 
ATOM     22  C   UNL     1       5.276   3.276  -3.086  0.00  0.00    +0.026 A 
ATOM     23  C   UNL     1       5.758   4.245  -3.944  0.00  0.00    -0.048 A 
ATOM     24  C   UNL     1       5.179   5.501  -3.966  0.00  0.00    +0.006 A 
ATOM     25  C   UNL     1       4.116   5.790  -3.131  0.00  0.00    -0.048 A 
ATOM     26  C   UNL     1       3.625   4.824  -2.275  0.00  0.00    +0.026 A 
ATOM     27  C   UNL     1       3.489   7.160  -3.159  0.00  0.00    +0.044 C 
ATOM     28  C   UNL     1       6.916   3.933  -4.856  0.00  0.00    +0.044 C 
ENDBRANCH  19  21
ENDBRANCH  17  19
ENDBRANCH  15  17
ENDBRANCH  12  15
TORSDOF 5
