REMARK  Name = ZINC51060249
REMARK  10 active torsions:
REMARK  status: ('A' for Active; 'I' for Inactive)
REMARK    1  A    between atoms: C_1  and  C_2
REMARK    2  A    between atoms: C_2  and  C_3
REMARK    3  A    between atoms: C_3  and  C_4
REMARK    4  A    between atoms: C_4  and  N_5
REMARK    5  A    between atoms: C_6  and  C_8
REMARK    6  A    between atoms: N_13  and  C_15
REMARK    7  A    between atoms: C_15  and  C_17
REMARK    8  A    between atoms: C_15  and  C_18
REMARK    9  A    between atoms: N_20  and  C_21
REMARK   10  A    between atoms: C_26  and  C_27
REMARK                            x       y       z     vdW  Elec       q    Type
REMARK                         _______ _______ _______ _____ _____    ______ ____
ROOT
ATOM      1  C   UNL     1       3.393  -4.585  -3.328  0.00  0.00    +0.058 C 
ATOM      2  C   UNL     1       4.903  -4.712  -3.104  0.00  0.00    +0.009 C 
ATOM      3  C   UNL     1       5.544  -5.320  -4.355  0.00  0.00    -0.018 C 
ATOM      4  C   UNL     1       4.887  -6.669  -4.654  0.00  0.00    -0.078 C 
ATOM      5  N   UNL     1       3.450  -6.477  -4.884  0.00  0.00    +0.388 N 
ATOM      6  C   UNL     1       2.815  -5.961  -3.666  0.00  0.00    -0.065 C 
ATOM      7  H   UNL     1       3.316  -5.818  -5.636  0.00  0.00    -0.081 HD
ENDROOT
BRANCH   1   9
ATOM      8  N   UNL     1       3.098  -2.856  -1.584  0.00  0.00    -0.315 N 
ATOM      9  C   UNL     1       2.741  -4.059  -2.075  0.00  0.00    +0.214 C 
ATOM     10  O   UNL     1       1.896  -4.719  -1.508  0.00  0.00    -0.276 OA
ATOM     11  H   UNL     1       3.774  -2.328  -2.037  0.00  0.00    +0.149 HD
BRANCH   8  12
ATOM     12  C   UNL     1       2.464  -2.345  -0.366  0.00  0.00    +0.104 C 
BRANCH  12  13
ATOM     13  C   UNL     1       3.045  -0.970  -0.027  0.00  0.00    +0.018 C 
BRANCH  13  15
ATOM     14  C   UNL     1       2.963   0.938   1.584  0.00  0.00    +0.004 C 
ATOM     15  C   UNL     1       2.383  -0.436   1.245  0.00  0.00    -0.002 C 
ENDBRANCH  13  15
ENDBRANCH  12  13
ENDBRANCH   8  12
ENDBRANCH   1   9
BRANCH   5  16
ATOM     16  C   UNL     1       2.838  -7.762  -5.247  0.00  0.00    +0.016 C 
ATOM     17  C   UNL     1       1.329  -7.576  -5.423  0.00  0.00    -0.004 C 
BRANCH  16  18
ATOM     18  C   UNL     1       3.437  -8.256  -6.539  0.00  0.00    +0.203 C 
ATOM     19  O   UNL     1       3.868  -7.464  -7.350  0.00  0.00    -0.277 OA
ATOM     20  N   UNL     1       3.494  -9.579  -6.792  0.00  0.00    -0.286 N 
ATOM     21  H   UNL     1       3.093 -10.209  -6.173  0.00  0.00    +0.155 HD
BRANCH  20  22
ATOM     22  C   UNL     1       4.130 -10.041  -7.943  0.00  0.00    +0.051 A 
ATOM     23  C   UNL     1       4.153  -9.259  -9.089  0.00  0.00    +0.024 A 
ATOM     24  C   UNL     1       4.783  -9.719 -10.229  0.00  0.00    +0.002 A 
ATOM     25  C   UNL     1       5.397 -10.960 -10.238  0.00  0.00    +0.001 A 
ATOM     26  C   UNL     1       5.385 -11.751  -9.109  0.00  0.00    +0.021 A 
ATOM     27  C   UNL     1       4.756 -11.297  -7.947  0.00  0.00    +0.073 A 
BRANCH  27  28
ATOM     28  C   UNL     1       4.745 -12.111  -6.769  0.00  0.00    +0.101 C 
ATOM     29  N   UNL     1       4.736 -12.756  -5.834  0.00  0.00    -0.191 NA
ENDBRANCH  27  28
ENDBRANCH  20  22
ENDBRANCH  16  18
ENDBRANCH   5  16
TORSDOF 8
