REMARK  Name = ZINC04786991
REMARK  7 active torsions:
REMARK  status: ('A' for Active; 'I' for Inactive)
REMARK    1  A    between atoms: C_1  and  S_2
REMARK    2  A    between atoms: S_2  and  C_3
REMARK    3  A    between atoms: C_6  and  C_9
REMARK    4  A    between atoms: C_9  and  S_10
REMARK    5  A    between atoms: S_10  and  C_11
REMARK    6  A    between atoms: C_14  and  C_17
REMARK    7  A    between atoms: N_15  and  N_16
REMARK                            x       y       z     vdW  Elec       q    Type
REMARK                         _______ _______ _______ _____ _____    ______ ____
ROOT
ATOM      1  C   UNL     1       1.907  -4.243  -0.090  0.00  0.00    +0.209 A 
ATOM      2  N   UNL     1       0.600  -4.186   0.035  0.00  0.00    -0.121 NA
ATOM      3  N   UNL     1       0.213  -2.961   0.072  0.00  0.00    -0.127 NA
ATOM      4  C   UNL     1       1.249  -2.160  -0.026  0.00  0.00    +0.183 A 
ATOM      5  N   UNL     1       2.365  -2.957  -0.139  0.00  0.00    -0.224 N 
ENDROOT
BRANCH   4   6
ATOM      6  C   UNL     1       1.221  -0.682  -0.022  0.00  0.00    +0.035 A 
ATOM      7  C   UNL     1       1.939   0.035  -0.981  0.00  0.00    +0.013 A 
ATOM      8  C   UNL     1       1.909   1.414  -0.972  0.00  0.00    +0.001 A 
ATOM      9  C   UNL     1       1.169   2.087  -0.015  0.00  0.00    +0.001 A 
ATOM     10  C   UNL     1       0.455   1.383   0.937  0.00  0.00    +0.016 A 
ATOM     11  C   UNL     1       0.476   0.003   0.940  0.00  0.00    +0.029 A 
ATOM     12 BR   UNL     1      -0.502  -0.958   2.243  0.00  0.00    -0.050 Br
ENDBRANCH   4   6
BRANCH   5  13
ATOM     13  N   UNL     1       3.662  -2.547  -0.270  0.00  0.00    -0.295 N 
ATOM     14  H   UNL     1       4.125  -2.520   0.626  0.00  0.00    +0.163 HD
ATOM     15  H   UNL     1       4.163  -3.136  -0.919  0.00  0.00    +0.163 HD
ENDBRANCH   5  13
BRANCH   1  16
ATOM     16  S   UNL     1       2.885  -5.705  -0.184  0.00  0.00    -0.080 S 
BRANCH  16  17
ATOM     17  C   UNL     1       1.586  -6.960  -0.062  0.00  0.00    +0.112 C 
BRANCH  17  21
ATOM     18  C   UNL     1       3.345 -10.852  -0.232  0.00  0.00    +0.008 A 
ATOM     19  C   UNL     1       3.172 -10.219   0.993  0.00  0.00    +0.015 A 
ATOM     20  C   UNL     1       2.604  -8.961   1.044  0.00  0.00    +0.005 A 
ATOM     21  C   UNL     1       2.207  -8.332  -0.122  0.00  0.00    -0.037 A 
ATOM     22  C   UNL     1       2.372  -8.962  -1.342  0.00  0.00    +0.005 A 
ATOM     23  C   UNL     1       2.944 -10.217  -1.401  0.00  0.00    +0.015 A 
BRANCH  18  25
ATOM     24  C   UNL     1       4.084 -12.855  -2.072  0.00  0.00    +0.090 C 
ATOM     25  S   UNL     1       4.071 -12.456  -0.302  0.00  0.00    -0.129 S 
ENDBRANCH  18  25
ENDBRANCH  17  21
ENDBRANCH  16  17
ENDBRANCH   1  16
TORSDOF 6
