REMARK  Name = ZINC38567869
REMARK  4 active torsions:
REMARK  status: ('A' for Active; 'I' for Inactive)
REMARK    1  A    between atoms: C_4  and  O_27
REMARK    2  A    between atoms: C_5  and  C_7
REMARK    3  A    between atoms: N_9  and  N_10
REMARK    4  A    between atoms: C_14  and  C_15
REMARK                            x       y       z     vdW  Elec       q    Type
REMARK                         _______ _______ _______ _____ _____    ______ ____
ROOT
ATOM      1  N   UNL     1       0.121  -4.255  -0.022  0.00  0.00    -0.169 N 
ATOM      2  C   UNL     1      -0.172  -4.900  -1.139  0.00  0.00    +0.275 C 
ATOM      3  O   UNL     1      -0.464  -4.310  -2.162  0.00  0.00    -0.267 OA
ATOM      4  C   UNL     1      -0.126  -6.382  -1.078  0.00  0.00    +0.078 C 
ATOM      5  C   UNL     1      -0.370  -7.284  -2.036  0.00  0.00    +0.039 C 
ATOM      6  S   UNL     1       0.347  -6.631   0.628  0.00  0.00    -0.060 S 
ATOM      7  C   UNL     1       0.450  -4.914   1.107  0.00  0.00    +0.138 C 
ATOM      8  S   UNL     1       0.864  -4.261   2.635  0.00  0.00    -0.026 S 
ENDROOT
BRANCH   5   9
ATOM      9  C   UNL     1      -0.257  -8.756  -1.732  0.00  0.00    +0.200 C 
ATOM     10  N   UNL     1       0.705  -9.387  -2.645  0.00  0.00    -0.360 N 
ATOM     11  C   UNL     1       0.063 -10.296  -3.320  0.00  0.00    +0.060 A 
ATOM     12  C   UNL     1       0.478 -11.242  -4.365  0.00  0.00    +0.027 A 
ATOM     13  C   UNL     1      -0.429 -12.088  -4.894  0.00  0.00    +0.002 A 
ATOM     14  C   UNL     1      -1.776 -12.107  -4.488  0.00  0.00    +0.002 A 
ATOM     15  C   UNL     1      -2.260 -11.281  -3.539  0.00  0.00    +0.027 A 
ATOM     16  C   UNL     1      -1.362 -10.316  -2.890  0.00  0.00    +0.060 A 
ATOM     17  N   UNL     1      -1.546  -9.419  -1.965  0.00  0.00    -0.360 N 
ATOM     18  H   UNL     1       1.646  -9.166  -2.729  0.00  0.00    +0.162 HD
ATOM     19  H   UNL     1      -2.381  -9.224  -1.513  0.00  0.00    +0.162 HD
ENDBRANCH   5   9
BRANCH   1  22
ATOM     20  C   UNL     1       1.250  -2.159  -0.022  0.00  0.00    +0.264 C 
ATOM     21  O   UNL     1       2.314  -2.748  -0.036  0.00  0.00    -0.269 OA
ATOM     22  N   UNL     1       0.095  -2.855  -0.014  0.00  0.00    -0.222 N 
ATOM     23  H   UNL     1      -0.754  -2.385  -0.003  0.00  0.00    +0.174 HD
BRANCH  20  28
ATOM     24  C   UNL     1      -0.017   1.374   0.010  0.00  0.00    +0.001 A 
ATOM     25  C   UNL     1       1.170   2.089   0.002  0.00  0.00    +0.004 A 
ATOM     26  C   UNL     1       2.383   1.429  -0.013  0.00  0.00    +0.046 A 
ATOM     27  C   UNL     1       2.420   0.043  -0.021  0.00  0.00    +0.129 A 
ATOM     28  C   UNL     1       1.222  -0.684  -0.013  0.00  0.00    +0.079 A 
ATOM     29  C   UNL     1       0.002  -0.004   0.002  0.00  0.00    +0.017 A 
BRANCH  27  30
ATOM     30  O   UNL     1       3.611  -0.606  -0.037  0.00  0.00    -0.506 OA
ATOM     31  H   UNL     1       3.966  -0.799   0.842  0.00  0.00    +0.292 HD
ENDBRANCH  27  30
ENDBRANCH  20  28
ENDBRANCH   1  22
TORSDOF 4
