REMARK  Name = ZINC04537997
REMARK  9 active torsions:
REMARK  status: ('A' for Active; 'I' for Inactive)
REMARK    1  A    between atoms: C_1  and  C_2
REMARK    2  A    between atoms: C_2  and  C_4
REMARK    3  A    between atoms: C_2  and  S_16
REMARK    4  A    between atoms: N_6  and  C_7
REMARK    5  A    between atoms: C_12  and  O_13
REMARK    6  A    between atoms: O_13  and  C_14
REMARK    7  A    between atoms: S_16  and  C_17
REMARK    8  A    between atoms: C_20  and  C_23
REMARK    9  A    between atoms: N_21  and  N_22
REMARK                            x       y       z     vdW  Elec       q    Type
REMARK                         _______ _______ _______ _____ _____    ______ ____
ROOT
ATOM      1  C   UNL     1      -5.336   0.737  -1.141  0.00  0.00    +0.029 C 
ATOM      2  C   UNL     1      -4.897   1.207   0.247  0.00  0.00    +0.137 C 
ENDROOT
BRANCH   2   3
ATOM      3  C   UNL     1      -3.609   1.980   0.132  0.00  0.00    +0.230 C 
ATOM      4  O   UNL     1      -3.626   3.193   0.139  0.00  0.00    -0.274 OA
ATOM      5  N   UNL     1      -2.437   1.323   0.021  0.00  0.00    -0.282 N 
ATOM      6  H   UNL     1      -2.429   0.357  -0.066  0.00  0.00    +0.155 HD
BRANCH   5   7
ATOM      7  C   UNL     1      -1.231   2.036   0.030  0.00  0.00    +0.077 A 
ATOM      8  C   UNL     1      -1.162   3.279   0.644  0.00  0.00    +0.047 A 
ATOM      9  C   UNL     1       0.028   3.983   0.646  0.00  0.00    +0.043 A 
ATOM     10  C   UNL     1       1.153   3.448   0.043  0.00  0.00    +0.024 A 
ATOM     11  C   UNL     1       1.093   2.208  -0.565  0.00  0.00    +0.049 A 
ATOM     12  C   UNL     1      -0.096   1.497  -0.572  0.00  0.00    +0.141 A 
ATOM     13 CL   UNL     1       0.111   5.540   1.408  0.00  0.00    -0.083 Cl
BRANCH  12  14
ATOM     14  O   UNL     1      -0.157   0.277  -1.170  0.00  0.00    -0.493 OA
ATOM     15  C   UNL     1       1.044  -0.210  -1.772  0.00  0.00    +0.277 C 
ENDBRANCH  12  14
ENDBRANCH   5   7
ENDBRANCH   2   3
BRANCH   2  16
ATOM     16  S   UNL     1      -6.178   2.272   0.956  0.00  0.00    -0.072 S 
BRANCH  16  17
ATOM     17  C   UNL     1      -7.490   1.108   1.115  0.00  0.00    +0.209 A 
ATOM     18  N   UNL     1      -7.450  -0.163   0.783  0.00  0.00    -0.120 NA
ATOM     19  N   UNL     1      -8.579  -0.722   1.031  0.00  0.00    -0.123 NA
ATOM     20  C   UNL     1      -9.414   0.158   1.539  0.00  0.00    +0.217 A 
ATOM     21  N   UNL     1      -8.739   1.357   1.614  0.00  0.00    -0.221 N 
BRANCH  20  22
ATOM     22  C   UNL     1     -10.803  -0.091   1.955  0.00  0.00    +0.173 A 
ATOM     23  C   UNL     1     -11.373  -1.313   2.150  0.00  0.00    +0.053 A 
ATOM     24  C   UNL     1     -12.705  -1.081   2.542  0.00  0.00    +0.042 A 
ATOM     25  C   UNL     1     -12.886   0.255   2.559  0.00  0.00    +0.196 A 
ATOM     26  O   UNL     1     -11.735   0.850   2.204  0.00  0.00    -0.460 OA
ENDBRANCH  20  22
BRANCH  21  27
ATOM     27  N   UNL     1      -9.217   2.546   2.085  0.00  0.00    -0.294 N 
ATOM     28  H   UNL     1      -9.646   3.082   1.345  0.00  0.00    +0.163 HD
ATOM     29  H   UNL     1      -9.863   2.400   2.846  0.00  0.00    +0.163 HD
ENDBRANCH  21  27
ENDBRANCH  16  17
ENDBRANCH   2  16
TORSDOF 7
