REMARK  Name = ZINC40006027
REMARK  4 active torsions:
REMARK  status: ('A' for Active; 'I' for Inactive)
REMARK    1  A    between atoms: C_4  and  N_16
REMARK    2  A    between atoms: C_5  and  C_7
REMARK    3  A    between atoms: C_17  and  C_18
REMARK    4  A    between atoms: C_23  and  O_24
REMARK                            x       y       z     vdW  Elec       q    Type
REMARK                         _______ _______ _______ _____ _____    ______ ____
ROOT
ATOM      1  C   UNL     1      -0.012   1.388  -0.005  0.00  0.00    +0.000 A 
ATOM      2  C   UNL     1       1.159   2.075  -0.274  0.00  0.00    +0.002 A 
ATOM      3  C   UNL     1       2.366   1.409  -0.285  0.00  0.00    +0.028 A 
ATOM      4  C   UNL     1       2.405   0.037  -0.026  0.00  0.00    +0.069 A 
ATOM      5  C   UNL     1       1.220  -0.650   0.245  0.00  0.00    +0.010 A 
ATOM      6  C   UNL     1       0.019   0.029   0.253  0.00  0.00    +0.008 A 
ENDROOT
BRANCH   5   7
ATOM      7  C   UNL     1       1.252  -2.130   0.525  0.00  0.00    +0.214 C 
ATOM      8  C   UNL     1       1.635  -2.324   1.982  0.00  0.00    +0.247 C 
ATOM      9  O   UNL     1       2.674  -1.892   2.432  0.00  0.00    -0.273 OA
ATOM     10  N   UNL     1       0.752  -3.006   2.751  0.00  0.00    -0.263 N 
ATOM     11  C   UNL     1      -0.388  -3.468   2.212  0.00  0.00    +0.178 C 
ATOM     12  S   UNL     1      -1.468  -4.322   3.228  0.00  0.00    -0.015 S 
ATOM     13  N   UNL     1      -0.731  -3.300   0.931  0.00  0.00    -0.123 NA
ATOM     14  N   UNL     1      -0.037  -2.703   0.103  0.00  0.00    -0.299 N 
ATOM     15  H   UNL     1       0.944  -3.160   3.689  0.00  0.00    +0.157 HD
ATOM     16  H   UNL     1      -0.337  -2.612  -0.815  0.00  0.00    +0.181 HD
ENDBRANCH   5   7
BRANCH   4  17
ATOM     17  N   UNL     1       3.600  -0.631  -0.036  0.00  0.00    -0.255 NA
ATOM     18  C   UNL     1       4.626  -0.143   0.604  0.00  0.00    +0.123 C 
BRANCH  18  19
ATOM     19  C   UNL     1       5.938  -0.797   0.498  0.00  0.00    +0.037 A 
ATOM     20  C   UNL     1       7.040  -0.280   1.187  0.00  0.00    +0.028 A 
ATOM     21  C   UNL     1       8.267  -0.899   1.084  0.00  0.00    +0.020 A 
ATOM     22  C   UNL     1       8.415  -2.032   0.299  0.00  0.00    +0.034 A 
ATOM     23  C   UNL     1       7.335  -2.553  -0.388  0.00  0.00    +0.061 A 
ATOM     24  C   UNL     1       6.091  -1.947  -0.291  0.00  0.00    +0.139 A 
ATOM     25 BR   UNL     1       7.552  -4.099  -1.455  0.00  0.00    -0.046 Br
ATOM     26 BR   UNL     1       9.756  -0.199   2.016  0.00  0.00    -0.050 Br
BRANCH  24  27
ATOM     27  O   UNL     1       5.029  -2.461  -0.960  0.00  0.00    -0.505 OA
ATOM     28  H   UNL     1       4.916  -2.105  -1.853  0.00  0.00    +0.292 HD
ENDBRANCH  24  27
ENDBRANCH  18  19
ENDBRANCH   4  17
TORSDOF 4
