REMARK  Name = ZINC01830552
REMARK  9 active torsions:
REMARK  status: ('A' for Active; 'I' for Inactive)
REMARK    1  A    between atoms: C_1  and  C_2
REMARK    2  A    between atoms: C_2  and  C_10
REMARK    3  A    between atoms: C_3  and  C_4
REMARK    4  A    between atoms: N_11  and  N_12
REMARK    5  A    between atoms: C_13  and  C_15
REMARK    6  A    between atoms: C_15  and  S_16
REMARK    7  A    between atoms: S_16  and  C_17
REMARK    8  A    between atoms: C_20  and  C_29
REMARK    9  A    between atoms: N_21  and  C_22
REMARK                            x       y       z     vdW  Elec       q    Type
REMARK                         _______ _______ _______ _____ _____    ______ ____
ROOT
ATOM      1  C   UNL     1      -0.838  -0.729  -8.819  0.00  0.00    +0.197 A 
ATOM      2  N   UNL     1      -1.165  -2.002  -8.804  0.00  0.00    -0.122 NA
ATOM      3  N   UNL     1      -1.363  -2.422 -10.002  0.00  0.00    -0.128 NA
ATOM      4  C   UNL     1      -1.175  -1.445 -10.858  0.00  0.00    +0.169 A 
ATOM      5  N   UNL     1      -0.838  -0.327 -10.127  0.00  0.00    -0.270 N 
ENDROOT
BRANCH   5   6
ATOM      6  C   UNL     1      -0.552   0.954 -10.619  0.00  0.00    +0.051 A 
ATOM      7  C   UNL     1      -1.543   1.694 -11.250  0.00  0.00    +0.028 A 
ATOM      8  C   UNL     1      -1.259   2.956 -11.734  0.00  0.00    +0.022 A 
ATOM      9  C   UNL     1       0.012   3.483 -11.591  0.00  0.00    +0.041 A 
ATOM     10  C   UNL     1       1.002   2.748 -10.963  0.00  0.00    +0.022 A 
ATOM     11  C   UNL     1       0.721   1.488 -10.472  0.00  0.00    +0.028 A 
ATOM     12 CL   UNL     1       0.366   5.070 -12.200  0.00  0.00    -0.084 Cl
ENDBRANCH   5   6
BRANCH   4  13
ATOM     13  C   UNL     1      -1.305  -1.527 -12.328  0.00  0.00    +0.020 A 
ATOM     14  C   UNL     1      -0.775  -0.519 -13.136  0.00  0.00    +0.013 A 
ATOM     15  C   UNL     1      -0.899  -0.601 -14.507  0.00  0.00    +0.021 A 
ATOM     16  C   UNL     1      -1.548  -1.680 -15.083  0.00  0.00    +0.041 A 
ATOM     17  C   UNL     1      -2.076  -2.683 -14.287  0.00  0.00    +0.021 A 
ATOM     18  C   UNL     1      -1.953  -2.615 -12.915  0.00  0.00    +0.013 A 
ATOM     19 CL   UNL     1      -1.701  -1.776 -16.809  0.00  0.00    -0.084 Cl
ENDBRANCH   4  13
BRANCH   1  20
ATOM     20  S   UNL     1      -0.475   0.273  -7.416  0.00  0.00    -0.076 S 
BRANCH  20  21
ATOM     21  C   UNL     1      -0.653  -0.859  -6.010  0.00  0.00    +0.174 C 
BRANCH  21  23
ATOM     22  N   UNL     1      -0.436  -0.762  -3.548  0.00  0.00    -0.206 N 
ATOM     23  C   UNL     1      -0.365  -0.118  -4.730  0.00  0.00    +0.242 C 
ATOM     24  O   UNL     1      -0.070   1.059  -4.763  0.00  0.00    -0.273 OA
ATOM     25  H   UNL     1      -0.672  -1.702  -3.522  0.00  0.00    +0.177 HD
BRANCH  22  27
ATOM     26  C   UNL     1      -0.238  -0.695  -1.216  0.00  0.00    +0.133 C 
ATOM     27  N   UNL     1      -0.170  -0.073  -2.357  0.00  0.00    -0.188 NA
BRANCH  26  29
ATOM     28  C   UNL     1       0.267   1.490  -0.038  0.00  0.00    +0.045 C 
ATOM     29  C   UNL     1       0.032   0.002  -0.011  0.00  0.00    -0.030 C 
ATOM     30  C   UNL     1       0.079  -0.667   1.159  0.00  0.00    +0.012 C 
BRANCH  30  31
ATOM     31  C   UNL     1       0.018  -2.138   1.170  0.00  0.00    -0.025 A 
ATOM     32  C   UNL     1       0.607  -2.873   0.136  0.00  0.00    +0.008 A 
ATOM     33  C   UNL     1       0.545  -4.250   0.153  0.00  0.00    +0.001 A 
ATOM     34  C   UNL     1      -0.098  -4.905   1.189  0.00  0.00    +0.000 A 
ATOM     35  C   UNL     1      -0.683  -4.185   2.215  0.00  0.00    +0.001 A 
ATOM     36  C   UNL     1      -0.625  -2.807   2.216  0.00  0.00    +0.008 A 
ENDBRANCH  30  31
ENDBRANCH  26  29
ENDBRANCH  22  27
ENDBRANCH  21  23
ENDBRANCH  20  21
ENDBRANCH   1  20
TORSDOF 8
