REMARK  Name = ZINC01158990
REMARK  9 active torsions:
REMARK  status: ('A' for Active; 'I' for Inactive)
REMARK    1  A    between atoms: C_1  and  C_2
REMARK    2  A    between atoms: C_7  and  C_8
REMARK    3  A    between atoms: C_13  and  C_25
REMARK    4  A    between atoms: C_14  and  O_24
REMARK    5  A    between atoms: C_15  and  C_23
REMARK    6  A    between atoms: C_18  and  C_19
REMARK    7  A    between atoms: C_25  and  N_48
REMARK    8  A    between atoms: C_26  and  N_48
REMARK    9  A    between atoms: C_27  and  N_48
REMARK                            x       y       z     vdW  Elec       q    Type
REMARK                         _______ _______ _______ _____ _____    ______ ____
ROOT
ATOM      1  C   UNL     1       2.337   1.553  -0.011  0.00  0.00    +0.077 A 
ATOM      2  C   UNL     1       2.474   0.087  -0.021  0.00  0.00    +0.201 A 
ATOM      3  O   UNL     1       3.567  -0.453  -0.034  0.00  0.00    -0.286 OA
ATOM      4  C   UNL     1       1.225  -0.697  -0.013  0.00  0.00    +0.065 A 
ATOM      5  C   UNL     1       1.246  -2.092  -0.022  0.00  0.00    +0.020 A 
ATOM      6  C   UNL     1       0.070  -2.788  -0.015  0.00  0.00    -0.021 A 
ATOM      7  C   UNL     1      -1.147  -2.110  -0.001  0.00  0.00    +0.125 A 
ATOM      8  C   UNL     1      -1.184  -0.727   0.009  0.00  0.00    +0.034 A 
ATOM      9  C   UNL     1       0.002  -0.004   0.002  0.00  0.00    +0.146 A 
ATOM     10  O   UNL     1      -0.016   1.343   0.009  0.00  0.00    -0.449 OA
ATOM     11  C   UNL     1       1.090   2.092   0.003  0.00  0.00    +0.219 A 
ATOM     12  C   UNL     1      -2.507  -0.006   0.026  0.00  0.00    +0.051 C 
ENDROOT
BRANCH   1  19
ATOM     13  C   UNL     1       3.521   2.381   2.495  0.00  0.00    +0.044 C 
ATOM     14  C   UNL     1       4.114   2.829   1.184  0.00  0.00    -0.043 A 
ATOM     15  C   UNL     1       5.231   3.640   1.172  0.00  0.00    +0.004 A 
ATOM     16  C   UNL     1       5.776   4.052  -0.030  0.00  0.00    +0.000 A 
ATOM     17  C   UNL     1       5.207   3.653  -1.227  0.00  0.00    +0.001 A 
ATOM     18  C   UNL     1       4.094   2.838  -1.227  0.00  0.00    +0.009 A 
ATOM     19  C   UNL     1       3.537   2.425  -0.018  0.00  0.00    -0.008 A 
ENDBRANCH   1  19
BRANCH  11  20
ATOM     20  C   UNL     1       0.949   3.592   0.012  0.00  0.00    +0.451 C 
ATOM     21  F   UNL     1       0.893   4.063  -1.304  0.00  0.00    -0.163 F 
ATOM     22  F   UNL     1      -0.226   3.946   0.684  0.00  0.00    -0.163 F 
ATOM     23  F   UNL     1       2.049   4.160   0.664  0.00  0.00    -0.163 F 
ENDBRANCH  11  20
BRANCH   7  24
ATOM     24  O   UNL     1      -2.308  -2.814   0.005  0.00  0.00    -0.506 OA
ATOM     25  H   UNL     1      -2.637  -3.023   0.890  0.00  0.00    +0.292 HD
ENDBRANCH   7  24
BRANCH   6  26
ATOM     26  C   UNL     1       0.090  -4.295  -0.025  0.00  0.00    -0.040 C 
BRANCH  26  29
ATOM     27  C   UNL     1       0.089  -6.224  -1.487  0.00  0.00    -0.096 C 
ATOM     28  C   UNL     1      -1.517  -4.445  -1.829  0.00  0.00    -0.096 C 
ATOM     29  N   UNL     1      -0.138  -4.766  -1.407  0.00  0.00    +0.379 N 
ATOM     30  H   UNL     1       0.522  -4.291  -2.034  0.00  0.00    -0.082 HD
ENDBRANCH  26  29
ENDBRANCH   6  26
TORSDOF 5
