REMARK  Name = ZINC39968609
REMARK  11 active torsions:
REMARK  status: ('A' for Active; 'I' for Inactive)
REMARK    1  A    between atoms: C_1  and  C_2
REMARK    2  A    between atoms: C_2  and  C_3
REMARK    3  A    between atoms: C_3  and  C_5
REMARK    4  A    between atoms: C_3  and  C_6
REMARK    5  A    between atoms: C_9  and  C_12
REMARK    6  A    between atoms: C_12  and  C_14
REMARK    7  A    between atoms: C_12  and  N_16
REMARK    8  A    between atoms: C_14  and  C_15
REMARK    9  A    between atoms: N_16  and  S_17
REMARK   10  A    between atoms: S_17  and  C_20
REMARK   11  A    between atoms: C_20  and  C_21
REMARK                            x       y       z     vdW  Elec       q    Type
REMARK                         _______ _______ _______ _____ _____    ______ ____
ROOT
ATOM      1  C   UNL     1       0.429  -6.133  -1.419  0.00  0.00    +0.106 C 
ENDROOT
BRANCH   1   5
ATOM      2  C   UNL     1       0.776  -1.876  -1.340  0.00  0.00    -0.045 A 
ATOM      3  C   UNL     1       1.396  -2.638  -0.368  0.00  0.00    +0.004 A 
ATOM      4  C   UNL     1       1.284  -4.016  -0.393  0.00  0.00    +0.005 A 
ATOM      5  C   UNL     1       0.551  -4.631  -1.391  0.00  0.00    -0.029 A 
ATOM      6  C   UNL     1      -0.070  -3.869  -2.363  0.00  0.00    +0.005 A 
ATOM      7  C   UNL     1       0.039  -2.491  -2.335  0.00  0.00    +0.004 A 
BRANCH   2   8
ATOM      8  C   UNL     1       0.899  -0.374  -1.312  0.00  0.00    +0.016 C 
ATOM      9  C   UNL     1       2.373   0.019  -1.425  0.00  0.00    +0.012 C 
BRANCH   8  11
ATOM     10  C   UNL     1       0.338   1.690  -0.020  0.00  0.00    +0.004 C 
ATOM     11  C   UNL     1       0.328   0.160   0.003  0.00  0.00    +0.004 C 
ENDBRANCH   8  11
ENDBRANCH   2   8
ENDBRANCH   1   5
BRANCH   1  12
ATOM     12  C   UNL     1      -0.920  -6.546  -0.828  0.00  0.00    +0.022 C 
ATOM     13  C   UNL     1      -0.995  -8.072  -0.747  0.00  0.00    +0.006 C 
ENDBRANCH   1  12
BRANCH   1  14
ATOM     14  N   UNL     1       0.520  -6.604  -2.804  0.00  0.00    -0.187 NA
ATOM     15  H   UNL     1      -0.271  -6.613  -3.366  0.00  0.00    +0.148 HD
BRANCH  14  16
ATOM     16  S   UNL     1       1.972  -7.120  -3.409  0.00  0.00    +0.034 S 
ATOM     17  O   UNL     1       1.697  -7.479  -4.756  0.00  0.00    -0.158 OA
ATOM     18  O   UNL     1       2.883  -6.072  -3.110  0.00  0.00    -0.158 OA
BRANCH  16  19
ATOM     19  C   UNL     1       2.382  -8.598  -2.440  0.00  0.00    +0.220 C 
BRANCH  19  20
ATOM     20  C   UNL     1       3.752  -9.091  -2.830  0.00  0.00    -0.025 A 
ATOM     21  C   UNL     1       3.892 -10.003  -3.859  0.00  0.00    +0.007 A 
ATOM     22  C   UNL     1       5.148 -10.454  -4.217  0.00  0.00    +0.020 A 
ATOM     23  C   UNL     1       6.266  -9.994  -3.544  0.00  0.00    +0.041 A 
ATOM     24  C   UNL     1       6.125  -9.081  -2.514  0.00  0.00    +0.020 A 
ATOM     25  C   UNL     1       4.869  -8.626  -2.161  0.00  0.00    +0.007 A 
ATOM     26 CL   UNL     1       7.844 -10.561  -3.993  0.00  0.00    -0.084 Cl
ENDBRANCH  19  20
ENDBRANCH  16  19
ENDBRANCH  14  16
ENDBRANCH   1  14
TORSDOF 8
