REMARK  Name = ZINC38717046
REMARK  12 active torsions:
REMARK  status: ('A' for Active; 'I' for Inactive)
REMARK    1  A    between atoms: C_1  and  O_2
REMARK    2  A    between atoms: O_2  and  C_3
REMARK    3  A    between atoms: C_6  and  C_10
REMARK    4  A    between atoms: C_8  and  O_9
REMARK    5  A    between atoms: C_13  and  O_39
REMARK    6  A    between atoms: C_24  and  C_27
REMARK    7  A    between atoms: C_29  and  O_37
REMARK    8  A    between atoms: C_30  and  O_35
REMARK    9  A    between atoms: C_31  and  O_33
REMARK   10  A    between atoms: O_33  and  C_34
REMARK   11  A    between atoms: O_35  and  C_36
REMARK   12  A    between atoms: O_37  and  C_38
REMARK                            x       y       z     vdW  Elec       q    Type
REMARK                         _______ _______ _______ _____ _____    ______ ____
ROOT
ATOM      1  C   UNL     1      -4.987  -2.627   0.035  0.00  0.00    +0.089 C 
ATOM      2  C   UNL     1      -5.770  -2.219   1.247  0.00  0.00    +0.048 C 
ATOM      3  C   UNL     1      -6.022  -2.774   2.412  0.00  0.00    +0.235 C 
ATOM      4  N   UNL     1      -6.914  -2.019   3.109  0.00  0.00    -0.114 NA
ATOM      5  N   UNL     1      -7.256  -0.974   2.540  0.00  0.00    -0.157 NA
ATOM      6  C   UNL     1      -6.514  -0.880   1.281  0.00  0.00    +0.245 C 
ATOM      7  N   UNL     1      -7.382  -0.928   0.102  0.00  0.00    -0.321 N 
ATOM      8  C   UNL     1      -6.884  -1.410  -1.082  0.00  0.00    +0.014 C 
ATOM      9  C   UNL     1      -5.799  -2.210  -1.182  0.00  0.00    +0.023 C 
ATOM     10  C   UNL     1      -5.363  -2.704  -2.423  0.00  0.00    +0.162 C 
ATOM     11  O   UNL     1      -4.380  -3.417  -2.465  0.00  0.00    -0.292 OA
ATOM     12  C   UNL     1      -6.082  -2.371  -3.700  0.00  0.00    +0.088 C 
ATOM     13  C   UNL     1      -7.557  -2.103  -3.380  0.00  0.00    +0.032 C 
ATOM     14  C   UNL     1      -7.628  -0.984  -2.332  0.00  0.00    +0.059 C 
ATOM     15  H   UNL     1      -8.301  -0.622   0.159  0.00  0.00    +0.148 HD
ENDROOT
BRANCH   1  19
ATOM     16  C   UNL     1      -1.201  -0.638   0.010  0.00  0.00    +0.161 A 
ATOM     17  C   UNL     1      -2.374   0.099   0.019  0.00  0.00    +0.050 A 
ATOM     18  C   UNL     1      -3.596  -0.546   0.027  0.00  0.00    +0.008 A 
ATOM     19  C   UNL     1      -3.652  -1.928   0.026  0.00  0.00    -0.032 A 
ATOM     20  C   UNL     1      -2.485  -2.669   0.017  0.00  0.00    +0.053 A 
ATOM     21  C   UNL     1      -1.257  -2.028   0.003  0.00  0.00    +0.159 A 
BRANCH  16  23
ATOM     22  C   UNL     1      -0.017   1.425   0.010  0.00  0.00    +0.277 C 
ATOM     23  O   UNL     1       0.002  -0.004   0.002  0.00  0.00    -0.491 OA
ENDBRANCH  16  23
BRANCH  21  24
ATOM     24  O   UNL     1      -0.108  -2.756  -0.012  0.00  0.00    -0.503 OA
ATOM     25  H   UNL     1       0.232  -2.972   0.867  0.00  0.00    +0.292 HD
ENDBRANCH  21  24
ENDBRANCH   1  19
BRANCH  13  26
ATOM     26  C   UNL     1      -8.278  -1.673  -4.632  0.00  0.00    -0.036 A 
ATOM     27  C   UNL     1      -7.869  -0.540  -5.309  0.00  0.00    +0.053 A 
ATOM     28  C   UNL     1      -8.531  -0.142  -6.460  0.00  0.00    +0.165 A 
ATOM     29  C   UNL     1      -9.606  -0.884  -6.934  0.00  0.00    +0.204 A 
ATOM     30  C   UNL     1     -10.014  -2.023  -6.250  0.00  0.00    +0.165 A 
ATOM     31  C   UNL     1      -9.344  -2.418  -5.102  0.00  0.00    +0.053 A 
BRANCH  30  32
ATOM     32  O   UNL     1     -11.066  -2.753  -6.710  0.00  0.00    -0.491 OA
ATOM     33  C   UNL     1     -11.430  -3.912  -5.957  0.00  0.00    +0.277 C 
ENDBRANCH  30  32
BRANCH  29  34
ATOM     34  O   UNL     1     -10.258  -0.496  -8.064  0.00  0.00    -0.488 OA
ATOM     35  C   UNL     1      -9.774  -1.016  -9.303  0.00  0.00    +0.277 C 
ENDBRANCH  29  34
BRANCH  28  36
ATOM     36  O   UNL     1      -8.128   0.974  -7.125  0.00  0.00    -0.491 OA
ATOM     37  C   UNL     1      -7.017   1.688  -6.581  0.00  0.00    +0.277 C 
ENDBRANCH  28  36
ENDBRANCH  13  26
BRANCH   3  38
ATOM     38  O   UNL     1      -5.472  -3.936   2.855  0.00  0.00    -0.491 OA
ATOM     39  H   UNL     1      -5.769  -4.200   3.736  0.00  0.00    +0.294 HD
ENDBRANCH   3  38
TORSDOF 8
