REMARK  Name = ZINC39466811
REMARK  4 active torsions:
REMARK  status: ('A' for Active; 'I' for Inactive)
REMARK    1  A    between atoms: C_4  and  C_7
REMARK    2  A    between atoms: C_7  and  C_8
REMARK    3  A    between atoms: P_24  and  C_27
REMARK    4  A    between atoms: C_27  and  C_28
REMARK                            x       y       z     vdW  Elec       q    Type
REMARK                         _______ _______ _______ _____ _____    ______ ____
ROOT
ATOM      1  C   UNL     1       4.120  -1.075   1.366  0.00  0.00    -0.033 C 
ATOM      2  C   UNL     1       3.859  -2.293   1.842  0.00  0.00    -0.020 C 
ATOM      3  C   UNL     1       4.292  -2.630   3.242  0.00  0.00    +0.005 C 
ATOM      4  C   UNL     1       4.438  -4.134   3.440  0.00  0.00    -0.046 C 
ATOM      5  N   UNL     1       4.820  -4.417   4.835  0.00  0.00    +0.397 N 
ATOM      6  C   UNL     1       6.092  -3.785   5.180  0.00  0.00    -0.020 C 
ATOM      7  C   UNL     1       6.035  -2.267   4.958  0.00  0.00    -0.003 C 
ATOM      8  C   UNL     1       5.658  -1.984   3.507  0.00  0.00    +0.017 C 
ATOM      9  C   UNL     1       5.555  -0.507   3.243  0.00  0.00    -0.008 C 
ATOM     10  C   UNL     1       4.815  -0.091   2.215  0.00  0.00    +0.017 C 
ATOM     11 BR   UNL     1       4.653   1.758   1.854  0.00  0.00    -0.050 Br
ATOM     12  C   UNL     1       6.440  -3.996   6.660  0.00  0.00    +0.156 C 
ATOM     13  O   UNL     1       6.586  -5.404   6.919  0.00  0.00    -0.319 OA
ATOM     14  P   UNL     1       5.396  -6.394   6.415  0.00  0.00    +0.262 P 
ATOM     15  O   UNL     1       4.271  -6.373   7.376  0.00  0.00    -0.274 OA
ATOM     16  N   UNL     1       4.921  -5.789   4.937  0.00  0.00    -0.291 NA
ATOM     17  H   UNL     1       4.709  -6.365   4.186  0.00  0.00    +0.111 HD
ATOM     18  H   UNL     1       4.097  -4.086   5.456  0.00  0.00    -0.055 HD
ENDROOT
BRANCH   1  19
ATOM     19  C   UNL     1       3.711  -0.707  -0.038  0.00  0.00    +0.071 C 
BRANCH  19  23
ATOM     20  C   UNL     1       6.988  -1.369  -2.697  0.00  0.00    +0.000 A 
ATOM     21  C   UNL     1       6.146  -2.414  -2.364  0.00  0.00    +0.000 A 
ATOM     22  C   UNL     1       5.085  -2.200  -1.503  0.00  0.00    +0.004 A 
ATOM     23  C   UNL     1       4.868  -0.941  -0.975  0.00  0.00    -0.043 A 
ATOM     24  C   UNL     1       5.710   0.103  -1.307  0.00  0.00    +0.004 A 
ATOM     25  C   UNL     1       6.770  -0.111  -2.169  0.00  0.00    +0.000 A 
ENDBRANCH  19  23
ENDBRANCH   1  19
BRANCH  14  26
ATOM     26  C   UNL     1       6.027  -8.092   6.221  0.00  0.00    +0.147 C 
BRANCH  26  27
ATOM     27  C   UNL     1       6.553  -8.588   7.543  0.00  0.00    -0.037 A 
ATOM     28  C   UNL     1       7.876  -8.377   7.884  0.00  0.00    +0.004 A 
ATOM     29  C   UNL     1       8.358  -8.831   9.097  0.00  0.00    +0.000 A 
ATOM     30  C   UNL     1       7.518  -9.496   9.970  0.00  0.00    +0.000 A 
ATOM     31  C   UNL     1       6.194  -9.707   9.629  0.00  0.00    +0.000 A 
ATOM     32  C   UNL     1       5.711  -9.248   8.418  0.00  0.00    +0.004 A 
ENDBRANCH  26  27
ENDBRANCH  14  26
TORSDOF 4
