REMARK  Name = ZINC39953300
REMARK  9 active torsions:
REMARK  status: ('A' for Active; 'I' for Inactive)
REMARK    1  A    between atoms: C_1  and  C_2
REMARK    2  A    between atoms: C_2  and  C_3
REMARK    3  A    between atoms: C_2  and  C_4
REMARK    4  A    between atoms: C_4  and  C_5
REMARK    5  A    between atoms: C_7  and  C_11
REMARK    6  A    between atoms: C_19  and  C_21
REMARK    7  A    between atoms: C_25  and  N_27
REMARK    8  A    between atoms: N_27  and  C_28
REMARK    9  A    between atoms: N_27  and  C_29
REMARK                            x       y       z     vdW  Elec       q    Type
REMARK                         _______ _______ _______ _____ _____    ______ ____
ROOT
ATOM      1  C   UNL     1      -2.690  -5.047   0.564  0.00  0.00    +0.206 C 
ATOM      2  N   UNL     1      -3.862  -4.420  -0.093  0.00  0.00    -0.231 NA
ATOM      3  N   UNL     1      -4.476  -5.460  -0.936  0.00  0.00    -0.224 NA
ATOM      4  C   UNL     1      -4.038  -6.713  -0.289  0.00  0.00    +0.240 C 
ATOM      5  N   UNL     1      -2.596  -6.411  -0.005  0.00  0.00    -0.206 N 
ATOM      6  N   UNL     1      -1.732  -7.400  -0.420  0.00  0.00    -0.173 NA
ATOM      7  C   UNL     1      -2.077  -8.337  -1.255  0.00  0.00    +0.125 C 
ATOM      8  S   UNL     1      -3.859  -8.070  -1.506  0.00  0.00    -0.063 S 
ATOM      9  H   UNL     1      -3.583  -3.624  -0.646  0.00  0.00    +0.143 HD
ATOM     10  H   UNL     1      -5.482  -5.382  -0.931  0.00  0.00    +0.144 HD
ENDROOT
BRANCH   7  11
ATOM     11  C   UNL     1      -1.221  -9.383  -1.855  0.00  0.00    +0.010 A 
ATOM     12  C   UNL     1      -1.768 -10.310  -2.744  0.00  0.00    +0.011 A 
ATOM     13  C   UNL     1      -0.968 -11.285  -3.304  0.00  0.00    +0.002 A 
ATOM     14  C   UNL     1       0.376 -11.349  -2.987  0.00  0.00    +0.023 A 
ATOM     15  C   UNL     1       0.930 -10.431  -2.103  0.00  0.00    +0.030 A 
ATOM     16  C   UNL     1       0.136  -9.444  -1.540  0.00  0.00    +0.033 A 
BRANCH  15  17
ATOM     17  N   UNL     1       2.289 -10.499  -1.786  0.00  0.00    -0.336 N 
ATOM     18  C   UNL     1       3.130 -11.538  -2.385  0.00  0.00    +0.129 C 
ATOM     19  C   UNL     1       2.873  -9.531  -0.854  0.00  0.00    +0.129 C 
ENDBRANCH  15  17
ENDBRANCH   7  11
BRANCH   1  22
ATOM     20  C   UNL     1      -1.416  -2.035  -0.119  0.00  0.00    +0.062 C 
ATOM     21  C   UNL     1      -1.465  -2.886   0.907  0.00  0.00    +0.029 C 
ATOM     22  C   UNL     1      -1.420  -4.254   0.250  0.00  0.00    +0.190 C 
ATOM     23  N   UNL     1      -1.346  -3.930  -1.185  0.00  0.00    -0.177 NA
ATOM     24  N   UNL     1      -1.355  -2.701  -1.293  0.00  0.00    -0.159 NA
BRANCH  20  25
ATOM     25  C   UNL     1      -1.433  -0.534   0.013  0.00  0.00    +0.060 C 
BRANCH  25  27
ATOM     26  C   UNL     1      -0.019   1.526   0.010  0.00  0.00    +0.007 C 
ATOM     27  C   UNL     1       0.002  -0.004   0.002  0.00  0.00    -0.011 C 
ATOM     28  C   UNL     1       0.742  -0.511   1.242  0.00  0.00    +0.007 C 
ENDBRANCH  25  27
ENDBRANCH  20  25
ENDBRANCH   1  22
TORSDOF 5
