REMARK  Name = ZINC15947150
REMARK  7 active torsions:
REMARK  status: ('A' for Active; 'I' for Inactive)
REMARK    1  A    between atoms: C_1  and  C_2
REMARK    2  A    between atoms: C_2  and  N_3
REMARK    3  A    between atoms: C_11  and  O_35
REMARK    4  A    between atoms: C_13  and  C_16
REMARK    5  A    between atoms: C_19  and  O_22
REMARK    6  A    between atoms: O_22  and  C_23
REMARK    7  A    between atoms: C_23  and  C_25
REMARK                            x       y       z     vdW  Elec       q    Type
REMARK                         _______ _______ _______ _____ _____    ______ ____
ROOT
ATOM      1  N   UNL     1       0.986  -0.728   1.005  0.00  0.00    +0.383 N 
ATOM      2  C   UNL     1       1.103  -2.192   1.002  0.00  0.00    -0.074 C 
ATOM      3  C   UNL     1       2.050  -2.649   2.115  0.00  0.00    +0.018 C 
ATOM      4  C   UNL     1       1.583  -2.013   3.418  0.00  0.00    -0.027 A 
ATOM      5  C   UNL     1       0.739  -0.954   3.390  0.00  0.00    -0.021 A 
ATOM      6  S   UNL     1       0.467  -0.550   5.091  0.00  0.00    -0.080 S 
ATOM      7  C   UNL     1       1.418  -1.708   5.803  0.00  0.00    +0.080 A 
ATOM      8  C   UNL     1       1.967  -2.445   4.746  0.00  0.00    +0.067 A 
ATOM      9  C   UNL     1       2.863  -3.577   5.095  0.00  0.00    +0.220 C 
ATOM     10  N   UNL     1       3.281  -3.662   6.329  0.00  0.00    -0.223 NA
ATOM     11  C   UNL     1       2.982  -2.688   7.371  0.00  0.00    +0.224 C 
ATOM     12  N   UNL     1       1.704  -1.997   7.118  0.00  0.00    -0.313 N 
ATOM     13  C   UNL     1       0.184  -0.298   2.166  0.00  0.00    -0.035 C 
ATOM     14  H   UNL     1       1.100  -1.759   7.838  0.00  0.00    +0.149 HD
ATOM     15  H   UNL     1       1.906  -0.318   1.062  0.00  0.00    -0.081 HD
ENDROOT
BRANCH  11  16
ATOM     16  C   UNL     1       4.089  -1.668   7.425  0.00  0.00    -0.005 A 
ATOM     17  C   UNL     1       3.817  -0.374   7.828  0.00  0.00    +0.011 A 
ATOM     18  C   UNL     1       4.831   0.563   7.878  0.00  0.00    +0.047 A 
ATOM     19  C   UNL     1       6.123   0.204   7.524  0.00  0.00    +0.132 A 
ATOM     20  C   UNL     1       6.394  -1.095   7.120  0.00  0.00    +0.047 A 
ATOM     21  C   UNL     1       5.378  -2.030   7.076  0.00  0.00    +0.011 A 
BRANCH  19  22
ATOM     22  O   UNL     1       7.122   1.124   7.572  0.00  0.00    -0.422 OA
BRANCH  22  23
ATOM     23  C   UNL     1       7.493   1.593   8.780  0.00  0.00    +0.345 C 
ATOM     24  O   UNL     1       7.007   1.123   9.790  0.00  0.00    -0.245 OA
BRANCH  23  25
ATOM     25  C   UNL     1       8.487   2.676   8.877  0.00  0.00    +0.067 A 
ATOM     26  C   UNL     1       8.957   3.312   7.734  0.00  0.00    +0.015 A 
ATOM     27  C   UNL     1       9.894   4.331   7.828  0.00  0.00    +0.001 A 
ATOM     28  C   UNL     1      10.386   4.747   9.028  0.00  0.00    +0.008 A 
ATOM     29  C   UNL     1       9.955   4.149  10.224  0.00  0.00    -0.017 A 
ATOM     30  C   UNL     1       8.995   3.109  10.177  0.00  0.00    -0.004 A 
ATOM     31  C   UNL     1       8.559   2.515  11.368  0.00  0.00    +0.009 A 
ATOM     32  C   UNL     1       9.059   2.949  12.559  0.00  0.00    +0.001 A 
ATOM     33  C   UNL     1       9.999   3.976  12.610  0.00  0.00    +0.001 A 
ATOM     34  C   UNL     1      10.453   4.567  11.471  0.00  0.00    +0.008 A 
ENDBRANCH  23  25
ENDBRANCH  22  23
ENDBRANCH  19  22
ENDBRANCH  11  16
BRANCH   1  36
ATOM     35  C   UNL     1       0.322   1.243  -0.289  0.00  0.00    -0.017 C 
ATOM     36  C   UNL     1       0.330  -0.286  -0.233  0.00  0.00    -0.082 C 
ENDBRANCH   1  36
BRANCH   9  37
ATOM     37  O   UNL     1       3.233  -4.489   4.166  0.00  0.00    -0.492 OA
ATOM     38  H   UNL     1       3.817  -5.181   4.505  0.00  0.00    +0.294 HD
ENDBRANCH   9  37
TORSDOF 6
