REMARK  Name = ZINC09365720
REMARK  7 active torsions:
REMARK  status: ('A' for Active; 'I' for Inactive)
REMARK    1  A    between atoms: C_6  and  N_7
REMARK    2  A    between atoms: C_8  and  C_10
REMARK    3  A    between atoms: C_10  and  S_11
REMARK    4  A    between atoms: S_11  and  C_12
REMARK    5  A    between atoms: C_18  and  C_20
REMARK    6  A    between atoms: C_20  and  O_21
REMARK    7  A    between atoms: O_21  and  C_22
REMARK                            x       y       z     vdW  Elec       q    Type
REMARK                         _______ _______ _______ _____ _____    ______ ____
ROOT
ATOM      1  C   UNL     1      -1.868   2.382   5.992  0.00  0.00    +0.160 A 
ATOM      2  N   UNL     1      -2.433   2.780   4.862  0.00  0.00    -0.133 NA
ATOM      3  N   UNL     1      -1.963   2.465   3.735  0.00  0.00    -0.125 NA
ATOM      4  C   UNL     1      -0.878   1.718   3.611  0.00  0.00    +0.189 A 
ATOM      5  S   UNL     1      -0.498   1.434   5.338  0.00  0.00    -0.024 S 
ATOM      6  N   UNL     1      -0.223   1.274   2.465  0.00  0.00    -0.260 N 
ATOM      7  C   UNL     1      -0.694   1.609   1.247  0.00  0.00    +0.256 C 
ATOM      8  O   UNL     1      -1.689   2.296   1.149  0.00  0.00    -0.272 OA
ATOM      9  H   UNL     1       0.573   0.725   2.543  0.00  0.00    +0.157 HD
ENDROOT
BRANCH   1  10
ATOM     10  S   UNL     1      -2.336   2.691   7.663  0.00  0.00    -0.088 S 
BRANCH  10  11
ATOM     11  C   UNL     1      -3.824   3.718   7.519  0.00  0.00    +0.172 C 
BRANCH  11  13
ATOM     12  N   UNL     1      -5.439   4.819   9.036  0.00  0.00    -0.285 N 
ATOM     13  C   UNL     1      -4.335   4.059   8.895  0.00  0.00    +0.227 C 
ATOM     14  O   UNL     1      -3.752   3.649   9.877  0.00  0.00    -0.275 OA
ATOM     15  H   UNL     1      -5.867   5.202   8.254  0.00  0.00    +0.155 HD
BRANCH  12  21
ATOM     16  C   UNL     1      -7.343   5.159  10.483  0.00  0.00    +0.026 A 
ATOM     17  C   UNL     1      -7.864   5.386  11.742  0.00  0.00    +0.040 A 
ATOM     18  C   UNL     1      -7.017   5.522  12.829  0.00  0.00    +0.124 A 
ATOM     19  C   UNL     1      -5.646   5.424  12.657  0.00  0.00    +0.040 A 
ATOM     20  C   UNL     1      -5.122   5.191  11.401  0.00  0.00    +0.026 A 
ATOM     21  C   UNL     1      -5.969   5.055  10.310  0.00  0.00    +0.034 A 
ATOM     22  F   UNL     1      -7.528   5.749  14.058  0.00  0.00    -0.205 F 
ENDBRANCH  12  21
ENDBRANCH  11  13
ENDBRANCH  10  11
ENDBRANCH   1  10
BRANCH   7  23
ATOM     23  C   UNL     1       0.015   1.128   0.007  0.00  0.00    +0.325 C 
BRANCH  23  24
ATOM     24  O   UNL     1      -0.670   1.610  -1.150  0.00  0.00    -0.481 OA
BRANCH  24  25
ATOM     25  C   UNL     1      -0.156   1.264  -2.360  0.00  0.00    +0.140 A 
ATOM     26  C   UNL     1       0.984   0.478  -2.432  0.00  0.00    +0.048 A 
ATOM     27  C   UNL     1       1.505   0.128  -3.662  0.00  0.00    +0.023 A 
ATOM     28  C   UNL     1       0.891   0.561  -4.824  0.00  0.00    +0.043 A 
ATOM     29  C   UNL     1      -0.247   1.346  -4.756  0.00  0.00    +0.043 A 
ATOM     30  C   UNL     1      -0.775   1.693  -3.526  0.00  0.00    +0.084 A 
ATOM     31 CL   UNL     1      -2.207   2.671  -3.441  0.00  0.00    -0.080 Cl
ATOM     32 CL   UNL     1       1.548   0.119  -6.369  0.00  0.00    -0.083 Cl
ENDBRANCH  24  25
ENDBRANCH  23  24
ENDBRANCH   7  23
TORSDOF 7
