REMARK  Name = ZINC46866683
REMARK  9 active torsions:
REMARK  status: ('A' for Active; 'I' for Inactive)
REMARK    1  A    between atoms: C_1  and  C_2
REMARK    2  A    between atoms: C_2  and  N_3
REMARK    3  A    between atoms: N_3  and  C_4
REMARK    4  A    between atoms: N_3  and  C_22
REMARK    5  A    between atoms: C_4  and  C_5
REMARK    6  A    between atoms: C_5  and  N_6
REMARK    7  A    between atoms: N_12  and  C_15
REMARK    8  A    between atoms: C_20  and  O_21
REMARK    9  A    between atoms: C_27  and  C_28
REMARK                            x       y       z     vdW  Elec       q    Type
REMARK                         _______ _______ _______ _____ _____    ______ ____
ROOT
ATOM      1  N   UNL     1       2.780  -2.915   0.261  0.00  0.00    -0.298 N 
ATOM      2  C   UNL     1       2.757  -3.964   1.106  0.00  0.00    +0.302 C 
ATOM      3  O   UNL     1       1.701  -4.345   1.573  0.00  0.00    -0.253 OA
ATOM      4  N   UNL     1       3.904  -4.591   1.433  0.00  0.00    -0.283 N 
ATOM      5  C   UNL     1       5.200  -4.060   0.987  0.00  0.00    +0.128 C 
ATOM      6  C   UNL     1       6.094  -3.853   2.216  0.00  0.00    +0.124 C 
ATOM      7  N   UNL     1       6.072  -5.079   3.025  0.00  0.00    -0.324 N 
ATOM      8  C   UNL     1       4.776  -5.610   3.471  0.00  0.00    +0.124 C 
ATOM      9  C   UNL     1       3.882  -5.814   2.247  0.00  0.00    +0.128 C 
ATOM     10  H   UNL     1       3.628  -2.564  -0.055  0.00  0.00    +0.150 HD
ENDROOT
BRANCH   7  11
ATOM     11  C   UNL     1       7.263  -5.730   3.365  0.00  0.00    +0.072 A 
ATOM     12  C   UNL     1       7.927  -5.399   4.537  0.00  0.00    +0.027 A 
ATOM     13  C   UNL     1       9.104  -6.043   4.871  0.00  0.00    +0.002 A 
ATOM     14  C   UNL     1       9.621  -7.019   4.039  0.00  0.00    +0.004 A 
ATOM     15  C   UNL     1       8.965  -7.354   2.869  0.00  0.00    +0.047 A 
ATOM     16  C   UNL     1       7.783  -6.717   2.530  0.00  0.00    +0.138 A 
BRANCH  16  17
ATOM     17  O   UNL     1       7.133  -7.050   1.382  0.00  0.00    -0.505 OA
ATOM     18  H   UNL     1       7.406  -6.533   0.612  0.00  0.00    +0.292 HD
ENDBRANCH  16  17
ENDBRANCH   7  11
BRANCH   1  19
ATOM     19  C   UNL     1       1.524  -2.303  -0.182  0.00  0.00    +0.124 C 
BRANCH  19  20
ATOM     20  C   UNL     1       1.829  -1.141  -1.129  0.00  0.00    +0.124 C 
BRANCH  20  21
ATOM     21  N   UNL     1       0.584  -0.448  -1.469  0.00  0.00    -0.328 N 
BRANCH  21  22
ATOM     22  C   UNL     1      -0.106  -0.783  -2.636  0.00  0.00    +0.033 A 
ATOM     23  C   UNL     1       0.270  -0.224  -3.851  0.00  0.00    +0.023 A 
ATOM     24  C   UNL     1      -0.414  -0.558  -5.004  0.00  0.00    +0.002 A 
ATOM     25  C   UNL     1      -1.472  -1.446  -4.949  0.00  0.00    +0.000 A 
ATOM     26  C   UNL     1      -1.850  -2.003  -3.741  0.00  0.00    +0.005 A 
ATOM     27  C   UNL     1      -1.166  -1.679  -2.585  0.00  0.00    -0.029 A 
ATOM     28  C   UNL     1      -1.573  -2.292  -1.270  0.00  0.00    +0.045 C 
ENDBRANCH  21  22
BRANCH  21  30
ATOM     29  C   UNL     1       0.632   1.953  -1.004  0.00  0.00    +0.024 C 
ATOM     30  C   UNL     1       0.062   0.596  -0.583  0.00  0.00    +0.102 C 
ENDBRANCH  21  30
ENDBRANCH  20  21
ENDBRANCH  19  20
ENDBRANCH   1  19
TORSDOF 7
