REMARK  Name = ZINC63929405
REMARK  2 active torsions:
REMARK  status: ('A' for Active; 'I' for Inactive)
REMARK    1  A    between atoms: C_6  and  C_10
REMARK    2  A    between atoms: C_12  and  N_24
REMARK                            x       y       z     vdW  Elec       q    Type
REMARK                         _______ _______ _______ _____ _____    ______ ____
ROOT
ATOM      1  C   UNL     1       3.542  -2.787  -1.302  0.00  0.00    +0.158 C 
ATOM      2  C   UNL     1       5.076  -2.833  -1.338  0.00  0.00    +0.254 C 
ATOM      3  O   UNL     1       5.554  -3.543  -0.196  0.00  0.00    -0.472 OA
ATOM      4  C   UNL     1       5.059  -4.778   0.057  0.00  0.00    +0.133 A 
ATOM      5  C   UNL     1       5.787  -5.672   0.830  0.00  0.00    +0.048 A 
ATOM      6  C   UNL     1       5.281  -6.929   1.095  0.00  0.00    +0.023 A 
ATOM      7  C   UNL     1       4.046  -7.315   0.595  0.00  0.00    +0.042 A 
ATOM      8  C   UNL     1       3.308  -6.443  -0.178  0.00  0.00    +0.035 A 
ATOM      9  C   UNL     1       3.812  -5.170  -0.454  0.00  0.00    +0.061 A 
ATOM     10  C   UNL     1       3.048  -4.223  -1.288  0.00  0.00    +0.178 C 
ATOM     11  O   UNL     1       2.079  -4.571  -1.928  0.00  0.00    -0.291 OA
ATOM     12 CL   UNL     1       3.428  -8.900   0.942  0.00  0.00    -0.084 Cl
ENDROOT
BRANCH   1  18
ATOM     13  C   UNL     1      -0.016   1.344   0.009  0.00  0.00    +0.002 A 
ATOM     14  C   UNL     1       1.158   2.118   0.002  0.00  0.00    +0.002 A 
ATOM     15  C   UNL     1       2.389   1.570  -0.013  0.00  0.00    +0.027 A 
ATOM     16  C   UNL     1       2.533   0.108  -0.022  0.00  0.00    +0.060 A 
ATOM     17  N   UNL     1       3.569  -0.680  -0.036  0.00  0.00    -0.363 N 
ATOM     18  C   UNL     1       3.071  -2.062  -0.039  0.00  0.00    +0.190 C 
ATOM     19  N   UNL     1       1.606  -1.974  -0.024  0.00  0.00    -0.363 N 
ATOM     20  C   UNL     1       1.290  -0.712  -0.014  0.00  0.00    +0.060 A 
ATOM     21  C   UNL     1       0.002  -0.004   0.002  0.00  0.00    +0.027 A 
ATOM     22  H   UNL     1       4.499  -0.405  -0.045  0.00  0.00    +0.162 HD
ATOM     23  H   UNL     1       0.987  -2.721  -0.022  0.00  0.00    +0.162 HD
ENDBRANCH   1  18
BRANCH   2  24
ATOM     24  N   UNL     1       5.517  -3.516  -2.561  0.00  0.00    -0.295 NA
ATOM     25  H   UNL     1       6.524  -3.559  -2.608  0.00  0.00    +0.122 HD
ATOM     26  H   UNL     1       5.112  -4.438  -2.627  0.00  0.00    +0.122 HD
ENDBRANCH   2  24
TORSDOF 2
