REMARK  Name = ZINC04700815
REMARK  8 active torsions:
REMARK  status: ('A' for Active; 'I' for Inactive)
REMARK    1  A    between atoms: C_1  and  C_2
REMARK    2  A    between atoms: C_3  and  C_26
REMARK    3  A    between atoms: C_5  and  N_9
REMARK    4  A    between atoms: C_6  and  C_7
REMARK    5  A    between atoms: N_9  and  C_10
REMARK    6  A    between atoms: C_10  and  N_12
REMARK    7  A    between atoms: C_13  and  C_15
REMARK    8  A    between atoms: C_15  and  C_16
REMARK                            x       y       z     vdW  Elec       q    Type
REMARK                         _______ _______ _______ _____ _____    ______ ____
ROOT
ATOM      1  N   UNL     1      -1.137  -2.041   0.002  0.00  0.00    -0.268 N 
ATOM      2  C   UNL     1      -2.295  -2.731   0.009  0.00  0.00    +0.219 C 
ATOM      3  O   UNL     1      -3.353  -2.139   0.023  0.00  0.00    -0.275 OA
ATOM      4  H   UNL     1      -0.291  -2.515  -0.009  0.00  0.00    +0.156 HD
ENDROOT
BRANCH   1   5
ATOM      5  C   UNL     1      -1.156  -0.694   0.009  0.00  0.00    +0.141 C 
ATOM      6  S   UNL     1      -2.650   0.142   0.028  0.00  0.00    -0.018 S 
BRANCH   5   7
ATOM      7  N   UNL     1       0.002  -0.004   0.002  0.00  0.00    -0.290 N 
ATOM      8  H   UNL     1       0.849  -0.478  -0.009  0.00  0.00    +0.154 HD
BRANCH   7  13
ATOM      9  C   UNL     1       1.836   4.714   0.009  0.00  0.00    +0.046 C 
ATOM     10  C   UNL     1       0.750   3.670   0.014  0.00  0.00    -0.021 A 
ATOM     11  C   UNL     1      -0.552   4.012   0.027  0.00  0.00    -0.007 A 
ATOM     12  S   UNL     1      -1.388   2.440   0.021  0.00  0.00    -0.077 S 
ATOM     13  C   UNL     1      -0.017   1.383   0.010  0.00  0.00    +0.089 A 
ATOM     14  C   UNL     1       1.060   2.261   0.004  0.00  0.00    +0.083 A 
ATOM     15  C   UNL     1      -1.156   5.393   0.040  0.00  0.00    +0.052 C 
BRANCH  14  16
ATOM     16  C   UNL     1       2.413   1.790  -0.010  0.00  0.00    +0.102 C 
ATOM     17  N   UNL     1       3.485   1.416  -0.021  0.00  0.00    -0.191 NA
ENDBRANCH  14  16
ENDBRANCH   7  13
ENDBRANCH   5   7
ENDBRANCH   1   5
BRANCH   2  18
ATOM     18  C   UNL     1      -2.275  -4.238   0.001  0.00  0.00    +0.103 C 
BRANCH  18  19
ATOM     19  C   UNL     1      -3.710  -4.768   0.012  0.00  0.00    -0.020 C 
ATOM     20  C   UNL     1      -4.426  -4.274   1.271  0.00  0.00    +0.011 C 
ATOM     21  C   UNL     1      -5.862  -4.804   1.282  0.00  0.00    -0.010 C 
ATOM     22  C   UNL     1      -5.841  -6.333   1.273  0.00  0.00    +0.007 C 
ATOM     23  C   UNL     1      -5.125  -6.827   0.014  0.00  0.00    -0.010 C 
ATOM     24  C   UNL     1      -3.690  -6.297   0.004  0.00  0.00    +0.011 C 
ATOM     25  C   UNL     1      -5.865  -6.320  -1.225  0.00  0.00    +0.007 C 
ATOM     26  C   UNL     1      -5.886  -4.790  -1.217  0.00  0.00    -0.010 C 
ATOM     27  C   UNL     1      -6.602  -4.297   0.042  0.00  0.00    +0.007 C 
ATOM     28  C   UNL     1      -4.450  -4.261  -1.228  0.00  0.00    +0.011 C 
ENDBRANCH  18  19
ENDBRANCH   2  18
TORSDOF 6
