REMARK  Name = ZINC09508933
REMARK  3 active torsions:
REMARK  status: ('A' for Active; 'I' for Inactive)
REMARK    1  A    between atoms: C_4  and  C_7
REMARK    2  A    between atoms: C_8  and  C_15
REMARK    3  A    between atoms: N_19  and  C_23
REMARK                            x       y       z     vdW  Elec       q    Type
REMARK                         _______ _______ _______ _____ _____    ______ ____
ROOT
ATOM      1  C   UNL     1      -3.264   6.185   1.870  0.00  0.00    +0.098 A 
ATOM      2  C   UNL     1      -2.431   5.721   0.850  0.00  0.00    +0.076 A 
ATOM      3  N   UNL     1      -3.233   5.579  -0.294  0.00  0.00    -0.293 N 
ATOM      4  C   UNL     1      -3.087   5.175  -1.601  0.00  0.00    +0.101 A 
ATOM      5  C   UNL     1      -4.129   5.164  -2.433  0.00  0.00    +0.067 A 
ATOM      6  S   UNL     1      -5.448   5.742  -1.377  0.00  0.00    -0.058 S 
ATOM      7  C   UNL     1      -4.488   5.953   0.105  0.00  0.00    +0.178 A 
ATOM      8  N   UNL     1      -4.495   6.307   1.364  0.00  0.00    -0.221 NA
ENDROOT
BRANCH   2   9
ATOM      9  C   UNL     1      -1.056   5.455   0.947  0.00  0.00    +0.048 C 
ATOM     10  C   UNL     1      -0.553   4.251   0.498  0.00  0.00    +0.079 C 
ATOM     11  C   UNL     1       0.786   3.774   0.498  0.00  0.00    +0.263 C 
ATOM     12  O   UNL     1       1.694   4.458   0.938  0.00  0.00    -0.269 OA
ATOM     13  N   UNL     1       1.020   2.570   0.006  0.00  0.00    -0.224 N 
ATOM     14  C   UNL     1       0.013   1.812  -0.483  0.00  0.00    +0.125 C 
ATOM     15  S   UNL     1       0.083   0.241  -1.161  0.00  0.00    -0.027 S 
ATOM     16  S   UNL     1      -1.408   2.869  -0.248  0.00  0.00    -0.061 S 
BRANCH  13  17
ATOM     17  C   UNL     1       2.330   2.072  -0.008  0.00  0.00    +0.043 A 
ATOM     18  C   UNL     1       3.148   2.300  -1.106  0.00  0.00    +0.024 A 
ATOM     19  C   UNL     1       4.441   1.812  -1.115  0.00  0.00    +0.002 A 
ATOM     20  C   UNL     1       4.915   1.088  -0.037  0.00  0.00    +0.000 A 
ATOM     21  C   UNL     1       4.101   0.855   1.056  0.00  0.00    +0.002 A 
ATOM     22  C   UNL     1       2.809   1.345   1.073  0.00  0.00    +0.024 A 
ENDBRANCH  13  17
ENDBRANCH   2   9
BRANCH   1  26
ATOM     23  C   UNL     1      -2.095   7.053   5.862  0.00  0.00    +0.000 A 
ATOM     24  C   UNL     1      -3.070   7.819   5.248  0.00  0.00    +0.001 A 
ATOM     25  C   UNL     1      -3.454   7.543   3.952  0.00  0.00    +0.010 A 
ATOM     26  C   UNL     1      -2.857   6.487   3.261  0.00  0.00    +0.002 A 
ATOM     27  C   UNL     1      -1.878   5.715   3.888  0.00  0.00    +0.010 A 
ATOM     28  C   UNL     1      -1.499   6.006   5.182  0.00  0.00    +0.001 A 
ENDBRANCH   1  26
TORSDOF 3
