REMARK  Name = ZINC39637495
REMARK  9 active torsions:
REMARK  status: ('A' for Active; 'I' for Inactive)
REMARK    1  A    between atoms: C_1  and  C_2
REMARK    2  A    between atoms: C_2  and  C_3
REMARK    3  A    between atoms: C_3  and  C_5
REMARK    4  A    between atoms: C_3  and  C_6
REMARK    5  A    between atoms: C_6  and  C_7
REMARK    6  A    between atoms: C_11  and  C_20
REMARK    7  A    between atoms: N_22  and  C_23
REMARK    8  A    between atoms: C_28  and  C_33
REMARK    9  A    between atoms: C_30  and  C_32
REMARK                            x       y       z     vdW  Elec       q    Type
REMARK                         _______ _______ _______ _____ _____    ______ ____
ROOT
ATOM      1  C   UNL     1       1.197  -2.547  -2.316  0.00  0.00    +0.216 C 
ATOM      2  O   UNL     1       1.654  -1.678  -3.027  0.00  0.00    -0.276 OA
ATOM      3  N   UNL     1       1.242  -3.835  -2.712  0.00  0.00    -0.300 N 
ATOM      4  C   UNL     1       0.735  -5.026  -1.991  0.00  0.00    +0.121 C 
ATOM      5  C   UNL     1       0.117  -5.916  -3.092  0.00  0.00    +0.100 C 
ATOM      6  C   UNL     1       0.829  -5.488  -4.387  0.00  0.00    -0.004 C 
ATOM      7  C   UNL     1       1.805  -4.379  -3.971  0.00  0.00    +0.115 C 
ATOM      8  C   UNL     1      -0.183  -4.944  -5.391  0.00  0.00    -0.010 C 
ATOM      9  C   UNL     1       0.541  -4.579  -6.690  0.00  0.00    -0.082 C 
ATOM     10  N   UNL     1       1.206  -5.769  -7.233  0.00  0.00    +0.379 N 
ATOM     11  C   UNL     1       2.242  -6.232  -6.302  0.00  0.00    -0.082 C 
ATOM     12  C   UNL     1       1.590  -6.667  -4.986  0.00  0.00    -0.010 C 
ATOM     13  H   UNL     1       0.525  -6.501  -7.368  0.00  0.00    -0.086 HD
ATOM     14  H   UNL     1       1.630  -5.541  -8.119  0.00  0.00    -0.086 HD
ENDROOT
BRANCH   5  15
ATOM     15  C   UNL     1      -1.365  -5.666  -3.199  0.00  0.00    +0.218 C 
ATOM     16  O   UNL     1      -1.817  -4.574  -2.929  0.00  0.00    -0.275 OA
ATOM     17  N   UNL     1      -2.189  -6.658  -3.593  0.00  0.00    -0.312 N 
ATOM     18  H   UNL     1      -1.827  -7.532  -3.809  0.00  0.00    +0.149 HD
BRANCH  17  19
ATOM     19  C   UNL     1      -3.630  -6.415  -3.697  0.00  0.00    +0.076 C 
ATOM     20  C   UNL     1      -4.281  -6.618  -2.327  0.00  0.00    +0.022 C 
ATOM     21  C   UNL     1      -5.786  -6.365  -2.435  0.00  0.00    +0.002 C 
ATOM     22  C   UNL     1      -6.397  -7.344  -3.440  0.00  0.00    +0.003 C 
ATOM     23  C   UNL     1      -5.746  -7.141  -4.810  0.00  0.00    -0.009 C 
ATOM     24  C   UNL     1      -4.241  -7.394  -4.702  0.00  0.00    +0.009 C 
ATOM     25  C   UNL     1      -3.998  -8.828  -4.229  0.00  0.00    +0.009 C 
ATOM     26  C   UNL     1      -6.357  -8.119  -5.815  0.00  0.00    +0.008 C 
ENDBRANCH  17  19
ENDBRANCH   5  15
BRANCH   1  27
ATOM     27  C   UNL     1       0.578  -2.189  -0.990  0.00  0.00    +0.099 C 
BRANCH  27  28
ATOM     28  C   UNL     1       0.655  -0.674  -0.784  0.00  0.00    -0.006 C 
ATOM     29  C   UNL     1       2.120  -0.248  -0.676  0.00  0.00    +0.008 C 
BRANCH  28  31
ATOM     30  C   UNL     1      -0.114   1.227   0.643  0.00  0.00    +0.004 C 
ATOM     31  C   UNL     1      -0.083  -0.296   0.502  0.00  0.00    +0.000 C 
ENDBRANCH  28  31
ENDBRANCH  27  28
ENDBRANCH   1  27
TORSDOF 5
