REMARK  Name = ZINC06444093
REMARK  7 active torsions:
REMARK  status: ('A' for Active; 'I' for Inactive)
REMARK    1  A    between atoms: C_1  and  C_2
REMARK    2  A    between atoms: C_12  and  C_14
REMARK    3  A    between atoms: C_14  and  C_16
REMARK    4  A    between atoms: C_14  and  N_60
REMARK    5  A    between atoms: N_20  and  C_21
REMARK    6  A    between atoms: C_21  and  C_22
REMARK    7  A    between atoms: C_32  and  C_35
REMARK                            x       y       z     vdW  Elec       q    Type
REMARK                         _______ _______ _______ _____ _____    ______ ____
ROOT
ATOM      1  C   UNL     1      -1.504   3.958   1.603  0.00  0.00    +0.039 C 
ENDROOT
BRANCH   1  13
ATOM      2  C   UNL     1      -5.409  -1.050   3.297  0.00  0.00    +0.046 C 
ATOM      3  C   UNL     1      -4.078  -0.599   3.840  0.00  0.00    -0.026 A 
ATOM      4  C   UNL     1      -3.483  -1.287   4.876  0.00  0.00    +0.005 A 
ATOM      5  C   UNL     1      -2.256  -0.882   5.383  0.00  0.00    +0.001 A 
ATOM      6  C   UNL     1      -1.615   0.208   4.866  0.00  0.00    +0.010 A 
ATOM      7  C   UNL     1      -2.200   0.922   3.815  0.00  0.00    -0.001 A 
ATOM      8  C   UNL     1      -3.444   0.514   3.297  0.00  0.00    +0.052 A 
ATOM      9  N   UNL     1      -4.016   1.222   2.261  0.00  0.00    -0.322 N 
ATOM     10  H   UNL     1      -4.873   0.939   1.905  0.00  0.00    +0.169 HD
ATOM     11  C   UNL     1      -3.403   2.297   1.737  0.00  0.00    +0.251 A 
ATOM     12  O   UNL     1      -3.938   2.899   0.822  0.00  0.00    -0.268 OA
ATOM     13  C   UNL     1      -2.156   2.748   2.220  0.00  0.00    +0.011 A 
ATOM     14  C   UNL     1      -1.539   2.092   3.234  0.00  0.00    +0.017 A 
ENDBRANCH   1  13
BRANCH   1  21
ATOM     15  C   UNL     1      -1.817   6.305   1.095  0.00  0.00    -0.077 C 
ATOM     16  C   UNL     1      -2.849   7.434   1.066  0.00  0.00    -0.018 C 
ATOM     17  C   UNL     1      -3.320   7.726   2.494  0.00  0.00    -0.001 C 
ATOM     18  C   UNL     1      -3.901   6.446   3.102  0.00  0.00    -0.031 C 
ATOM     19  C   UNL     1      -2.838   5.345   3.072  0.00  0.00    -0.074 C 
ATOM     20  C   UNL     1      -4.320   6.713   4.549  0.00  0.00    +0.005 C 
ATOM     21  N   UNL     1      -2.445   5.096   1.669  0.00  0.00    +0.389 N 
ATOM     22  H   UNL     1      -3.285   4.866   1.124  0.00  0.00    -0.080 HD
ENDBRANCH   1  21
BRANCH   1  23
ATOM     23  C   UNL     1      -0.233   4.279   2.346  0.00  0.00    +0.143 A 
ATOM     24  N   UNL     1      -0.136   4.741   3.569  0.00  0.00    -0.115 NA
ATOM     25  N   UNL     1       1.114   4.889   3.840  0.00  0.00    -0.023 NA
ATOM     26  N   UNL     1       1.818   4.528   2.824  0.00  0.00    -0.044 NA
ATOM     27  N   UNL     1       1.024   4.143   1.884  0.00  0.00    -0.226 N 
BRANCH  27  28
ATOM     28  C   UNL     1       1.416   3.654   0.559  0.00  0.00    +0.182 C 
BRANCH  28  29
ATOM     29  C   UNL     1       1.738   2.184   0.641  0.00  0.00    -0.026 A 
ATOM     30  C   UNL     1       0.762   1.247   0.355  0.00  0.00    +0.008 A 
ATOM     31  C   UNL     1       1.056  -0.101   0.430  0.00  0.00    +0.038 A 
ATOM     32  C   UNL     1       2.328  -0.513   0.791  0.00  0.00    +0.123 A 
ATOM     33  C   UNL     1       3.304   0.426   1.077  0.00  0.00    +0.038 A 
ATOM     34  C   UNL     1       3.008   1.774   1.002  0.00  0.00    +0.008 A 
ATOM     35  F   UNL     1       2.616  -1.831   0.864  0.00  0.00    -0.205 F 
ENDBRANCH  28  29
ENDBRANCH  27  28
ENDBRANCH   1  23
TORSDOF 5
