REMARK  Name = ZINC08789294
REMARK  10 active torsions:
REMARK  status: ('A' for Active; 'I' for Inactive)
REMARK    1  A    between atoms: C_1  and  C_2
REMARK    2  A    between atoms: C_2  and  C_3
REMARK    3  A    between atoms: C_2  and  C_4
REMARK    4  A    between atoms: C_4  and  N_5
REMARK    5  A    between atoms: C_11  and  C_27
REMARK    6  A    between atoms: C_23  and  C_26
REMARK    7  A    between atoms: C_31  and  O_35
REMARK    8  A    between atoms: C_32  and  O_33
REMARK    9  A    between atoms: O_33  and  C_34
REMARK   10  A    between atoms: O_35  and  C_36
REMARK                            x       y       z     vdW  Elec       q    Type
REMARK                         _______ _______ _______ _____ _____    ______ ____
ROOT
ATOM      1  N   UNL     1       3.529   7.571  -1.837  0.00  0.00    -0.290 N 
ATOM      2  C   UNL     1       2.629   8.713  -1.844  0.00  0.00    +0.203 C 
ATOM      3  C   UNL     1       1.492   8.541  -0.890  0.00  0.00    +0.234 C 
ATOM      4  O   UNL     1       0.659   9.420  -0.836  0.00  0.00    -0.274 OA
ATOM      5  N   UNL     1       1.335   7.481  -0.092  0.00  0.00    -0.280 N 
ATOM      6  C   UNL     1       0.079   7.331   0.667  0.00  0.00    +0.122 C 
ATOM      7  C   UNL     1      -0.658   6.085   0.161  0.00  0.00    +0.072 C 
ATOM      8  C   UNL     1       0.324   4.950   0.029  0.00  0.00    -0.008 A 
ATOM      9  C   UNL     1       0.051   3.531  -0.067  0.00  0.00    +0.004 A 
ATOM     10  C   UNL     1      -1.135   2.791  -0.065  0.00  0.00    +0.010 A 
ATOM     11  C   UNL     1      -1.018   1.428  -0.182  0.00  0.00    +0.001 A 
ATOM     12  C   UNL     1       0.214   0.802  -0.287  0.00  0.00    +0.002 A 
ATOM     13  C   UNL     1       1.404   1.509  -0.292  0.00  0.00    +0.026 A 
ATOM     14  C   UNL     1       1.315   2.895  -0.180  0.00  0.00    +0.047 A 
ATOM     15  N   UNL     1       2.266   3.874  -0.153  0.00  0.00    -0.356 N 
ATOM     16  H   UNL     1       3.223   3.724  -0.215  0.00  0.00    +0.166 HD
ATOM     17  C   UNL     1       1.667   5.098  -0.026  0.00  0.00    +0.054 A 
ATOM     18  C   UNL     1       2.353   6.441   0.051  0.00  0.00    +0.151 C 
ATOM     19  C   UNL     1       3.416   6.546  -0.993  0.00  0.00    +0.245 C 
ATOM     20  O   UNL     1       4.223   5.645  -1.077  0.00  0.00    -0.273 OA
ATOM     21  C   UNL     1       3.014   6.581   1.424  0.00  0.00    +0.048 C 
ENDROOT
BRANCH   7  22
ATOM     22  C   UNL     1      -1.276   6.376  -1.182  0.00  0.00    +0.007 A 
ATOM     23  C   UNL     1      -0.474   6.751  -2.245  0.00  0.00    +0.008 A 
ATOM     24  C   UNL     1      -1.037   7.018  -3.479  0.00  0.00    +0.004 A 
ATOM     25  C   UNL     1      -2.404   6.911  -3.656  0.00  0.00    +0.049 A 
ATOM     26  C   UNL     1      -3.213   6.536  -2.596  0.00  0.00    +0.162 A 
ATOM     27  C   UNL     1      -2.646   6.262  -1.355  0.00  0.00    +0.165 A 
BRANCH  27  28
ATOM     28  O   UNL     1      -3.435   5.888  -0.312  0.00  0.00    -0.491 OA
ATOM     29  C   UNL     1      -3.954   6.931   0.515  0.00  0.00    +0.277 C 
ENDBRANCH  27  28
BRANCH  26  30
ATOM     30  O   UNL     1      -4.558   6.430  -2.769  0.00  0.00    -0.491 OA
ATOM     31  C   UNL     1      -5.069   6.720  -4.071  0.00  0.00    +0.277 C 
ENDBRANCH  26  30
ENDBRANCH   7  22
BRANCH   1  32
ATOM     32  C   UNL     1       4.622   7.547  -2.811  0.00  0.00    +0.111 C 
BRANCH  32  34
ATOM     33  C   UNL     1       6.370   7.643  -1.028  0.00  0.00    +0.009 C 
ATOM     34  C   UNL     1       5.809   8.345  -2.267  0.00  0.00    +0.000 C 
ATOM     35  C   UNL     1       6.897   8.435  -3.338  0.00  0.00    +0.009 C 
ENDBRANCH  32  34
ENDBRANCH   1  32
TORSDOF 5
