REMARK  Name = ZINC40549385
REMARK  9 active torsions:
REMARK  status: ('A' for Active; 'I' for Inactive)
REMARK    1  A    between atoms: C_1  and  C_2
REMARK    2  A    between atoms: C_2  and  C_3
REMARK    3  A    between atoms: C_6  and  O_32
REMARK    4  A    between atoms: C_7  and  C_9
REMARK    5  A    between atoms: C_11  and  C_15
REMARK    6  A    between atoms: N_17  and  C_18
REMARK    7  A    between atoms: C_19  and  C_27
REMARK    8  A    between atoms: N_29  and  C_30
REMARK    9  A    between atoms: C_30  and  C_31
REMARK                            x       y       z     vdW  Elec       q    Type
REMARK                         _______ _______ _______ _____ _____    ______ ____
ROOT
ATOM      1  C   UNL     1      -6.842  -2.508  -4.624  0.00  0.00    +0.266 C 
ATOM      2  O   UNL     1      -7.802  -2.859  -3.965  0.00  0.00    -0.268 OA
ATOM      3  N   UNL     1      -6.905  -2.529  -5.971  0.00  0.00    -0.274 N 
ATOM      4  H   UNL     1      -6.139  -2.248  -6.496  0.00  0.00    +0.156 HD
ENDROOT
BRANCH   3   5
ATOM      5  C   UNL     1      -8.062  -2.951  -6.604  0.00  0.00    +0.085 A 
ATOM      6  C   UNL     1      -8.304  -3.044  -7.966  0.00  0.00    +0.069 A 
ATOM      7  C   UNL     1      -9.613  -3.520  -8.377  0.00  0.00    -0.023 A 
ATOM      8  C   UNL     1     -10.440  -3.817  -7.352  0.00  0.00    -0.004 A 
ATOM      9  S   UNL     1      -9.493  -3.475  -5.897  0.00  0.00    -0.077 S 
ATOM     10  C   UNL     1     -11.845  -4.325  -7.448  0.00  0.00    +0.043 C 
ATOM     11  C   UNL     1     -12.341  -4.104  -8.884  0.00  0.00    +0.005 C 
ATOM     12  C   UNL     1     -11.275  -4.610  -9.860  0.00  0.00    +0.005 C 
ATOM     13  C   UNL     1     -10.055  -3.687  -9.823  0.00  0.00    +0.037 C 
BRANCH   6  14
ATOM     14  C   UNL     1      -7.281  -2.675  -8.949  0.00  0.00    +0.247 C 
ATOM     15  O   UNL     1      -6.497  -3.513  -9.355  0.00  0.00    -0.270 OA
ATOM     16  N   UNL     1      -7.209  -1.409  -9.405  0.00  0.00    -0.312 N 
ATOM     17  H   UNL     1      -7.835  -0.741  -9.082  0.00  0.00    +0.149 HD
BRANCH  16  18
ATOM     18  C   UNL     1      -6.188  -1.041 -10.388  0.00  0.00    +0.101 C 
ATOM     19  C   UNL     1      -6.324   0.443 -10.735  0.00  0.00    +0.024 C 
ENDBRANCH  16  18
ENDBRANCH   6  14
ENDBRANCH   3   5
BRANCH   1  22
ATOM     20  C   UNL     1      -4.081  -1.502  -2.449  0.00  0.00    +0.097 A 
ATOM     21  C   UNL     1      -5.396  -1.982  -2.589  0.00  0.00    +0.062 A 
ATOM     22  C   UNL     1      -5.613  -2.059  -3.952  0.00  0.00    +0.121 A 
ATOM     23  N   UNL     1      -4.459  -1.638  -4.552  0.00  0.00    -0.272 N 
ATOM     24  H   UNL     1      -4.317  -1.584  -5.510  0.00  0.00    +0.189 HD
ATOM     25  N   UNL     1      -3.594  -1.317  -3.658  0.00  0.00    -0.173 NA
BRANCH  20  30
ATOM     26  C   UNL     1      -1.412  -0.526   0.013  0.00  0.00    -0.047 A 
ATOM     27  C   UNL     1      -2.049  -0.765   1.217  0.00  0.00    +0.007 A 
ATOM     28  C   UNL     1      -3.345  -1.244   1.237  0.00  0.00    +0.046 A 
ATOM     29  C   UNL     1      -4.014  -1.487   0.048  0.00  0.00    +0.126 A 
ATOM     30  C   UNL     1      -3.373  -1.245  -1.170  0.00  0.00    +0.044 A 
ATOM     31  C   UNL     1      -2.068  -0.757  -1.179  0.00  0.00    +0.017 A 
BRANCH  26  33
ATOM     32  C   UNL     1      -0.019   1.526   0.010  0.00  0.00    +0.009 C 
ATOM     33  C   UNL     1       0.002  -0.004   0.002  0.00  0.00    +0.032 C 
ENDBRANCH  26  33
BRANCH  29  34
ATOM     34  O   UNL     1      -5.288  -1.958   0.066  0.00  0.00    -0.506 OA
ATOM     35  H   UNL     1      -5.963  -1.266   0.074  0.00  0.00    +0.292 HD
ENDBRANCH  29  34
ENDBRANCH  20  30
ENDBRANCH   1  22
TORSDOF 7
