REMARK  Name = ZINC08856096
REMARK  14 active torsions:
REMARK  status: ('A' for Active; 'I' for Inactive)
REMARK    1  A    between atoms: C_1  and  C_2
REMARK    2  A    between atoms: C_2  and  O_3
REMARK    3  A    between atoms: O_3  and  C_4
REMARK    4  A    between atoms: C_4  and  C_6
REMARK    5  A    between atoms: C_11  and  C_28
REMARK    6  A    between atoms: C_13  and  C_27
REMARK    7  A    between atoms: C_16  and  C_25
REMARK    8  A    between atoms: C_16  and  C_26
REMARK    9  A    between atoms: C_19  and  C_20
REMARK   10  A    between atoms: C_20  and  O_22
REMARK   11  A    between atoms: O_22  and  C_23
REMARK   12  A    between atoms: C_23  and  C_24
REMARK   13  A    between atoms: C_30  and  C_32
REMARK   14  A    between atoms: C_30  and  C_33
REMARK                            x       y       z     vdW  Elec       q    Type
REMARK                         _______ _______ _______ _____ _____    ______ ____
ROOT
ATOM      1  C   UNL     1      -2.152   1.090   0.189  0.00  0.00    +0.114 C 
ATOM      2  C   UNL     1      -1.007   1.849   0.350  0.00  0.00    +0.035 C 
ATOM      3  C   UNL     1       0.187   1.187   0.576  0.00  0.00    +0.028 C 
ATOM      4  C   UNL     1       1.438   1.587   0.811  0.00  0.00    -0.026 C 
ATOM      5  C   UNL     1       1.928   2.899   0.825  0.00  0.00    -0.038 C 
ATOM      6  C   UNL     1       3.251   3.124   1.088  0.00  0.00    -0.047 C 
ATOM      7  C   UNL     1       4.227   2.088   1.352  0.00  0.00    +0.004 C 
ATOM      8  C   UNL     1       3.872   0.798   1.351  0.00  0.00    -0.056 C 
ATOM      9  C   UNL     1       2.436   0.466   1.070  0.00  0.00    +0.057 C 
ATOM     10  C   UNL     1       2.393  -0.460  -0.156  0.00  0.00    +0.047 C 
ATOM     11  C   UNL     1       2.207  -1.855   0.485  0.00  0.00    +0.028 C 
ATOM     12  N   UNL     1       1.531  -1.584   1.765  0.00  0.00    -0.341 N 
ATOM     13  C   UNL     1       1.902  -0.349   2.220  0.00  0.00    +0.026 C 
ATOM     14  C   UNL     1       1.805   0.073   3.498  0.00  0.00    +0.111 C 
ATOM     15  C   UNL     1       3.566  -2.516   0.729  0.00  0.00    +0.031 C 
ATOM     16  C   UNL     1       1.334  -2.743  -0.403  0.00  0.00    +0.031 C 
ATOM     17  C   UNL     1       4.882  -0.287   1.622  0.00  0.00    +0.040 C 
ATOM     18  C   UNL     1       3.727   4.554   1.105  0.00  0.00    +0.044 C 
ATOM     19  C   UNL     1       1.122   4.134   0.567  0.00  0.00    +0.060 C 
ATOM     20  C   UNL     1      -0.294   4.094   1.071  0.00  0.00    +0.030 C 
ATOM     21  N   UNL     1      -1.124   3.204   0.284  0.00  0.00    -0.338 N 
ATOM     22  C   UNL     1      -0.291   3.617   2.525  0.00  0.00    +0.031 C 
ATOM     23  C   UNL     1      -0.883   5.505   1.014  0.00  0.00    +0.031 C 
ATOM     24  H   UNL     1       0.851  -2.333   2.197  0.00  0.00    +0.146 HD
ATOM     25  H   UNL     1      -1.882   3.618  -0.398  0.00  0.00    +0.147 HD
ENDROOT
BRANCH   1  26
ATOM     26  C   UNL     1      -3.404   1.715   0.117  0.00  0.00    +0.334 C 
ATOM     27  O   UNL     1      -3.499   2.913   0.321  0.00  0.00    -0.246 OA
BRANCH  26  28
ATOM     28  O   UNL     1      -4.505   0.991  -0.178  0.00  0.00    -0.462 OA
BRANCH  28  30
ATOM     29  C   UNL     1      -6.872   0.714  -0.580  0.00  0.00    +0.048 C 
ATOM     30  C   UNL     1      -5.748   1.693  -0.235  0.00  0.00    +0.229 C 
ENDBRANCH  28  30
ENDBRANCH  26  28
ENDBRANCH   1  26
BRANCH  14  31
ATOM     31  C   UNL     1       1.286  -0.788   4.489  0.00  0.00    +0.333 C 
ATOM     32  O   UNL     1       0.925  -1.911   4.191  0.00  0.00    -0.246 OA
BRANCH  31  33
ATOM     33  O   UNL     1       1.189  -0.365   5.767  0.00  0.00    -0.462 OA
BRANCH  33  34
ATOM     34  C   UNL     1       0.654  -1.289   6.717  0.00  0.00    +0.229 C 
ATOM     35  C   UNL     1       0.622  -0.637   8.101  0.00  0.00    +0.048 C 
ENDBRANCH  33  34
ENDBRANCH  31  33
ENDBRANCH  14  31
TORSDOF 6
