REMARK  Name = ZINC24593505
REMARK  7 active torsions:
REMARK  status: ('A' for Active; 'I' for Inactive)
REMARK    1  A    between atoms: C_1  and  C_2
REMARK    2  A    between atoms: C_2  and  N_3
REMARK    3  A    between atoms: C_14  and  N_16
REMARK    4  A    between atoms: C_17  and  C_19
REMARK    5  A    between atoms: C_19  and  C_21
REMARK    6  A    between atoms: C_19  and  N_22
REMARK    7  A    between atoms: C_28  and  C_30
REMARK                            x       y       z     vdW  Elec       q    Type
REMARK                         _______ _______ _______ _____ _____    ______ ____
ROOT
ATOM      1  N   UNL     1      -0.711   8.840   0.056  0.00  0.00    -0.287 N 
ATOM      2  C   UNL     1      -0.124  10.049   0.158  0.00  0.00    +0.203 C 
ATOM      3  O   UNL     1       1.085  10.139   0.147  0.00  0.00    -0.277 OA
ATOM      4  H   UNL     1      -1.807   8.764  -0.010  0.00  0.00    +0.155 HD
ENDROOT
BRANCH   1  16
ATOM      5  N   UNL     1       2.573   4.375  -0.161  0.00  0.00    -0.340 N 
ATOM      6  C   UNL     1       3.659   4.870  -0.861  0.00  0.00    +0.050 A 
ATOM      7  C   UNL     1       4.854   4.286  -1.270  0.00  0.00    +0.026 A 
ATOM      8  C   UNL     1       5.781   5.030  -1.969  0.00  0.00    +0.002 A 
ATOM      9  C   UNL     1       5.538   6.362  -2.264  0.00  0.00    +0.001 A 
ATOM     10  C   UNL     1       4.358   6.956  -1.872  0.00  0.00    +0.010 A 
ATOM     11  C   UNL     1       3.413   6.217  -1.166  0.00  0.00    +0.008 A 
ATOM     12  C   UNL     1       2.087   6.537  -0.606  0.00  0.00    +0.009 A 
ATOM     13  C   UNL     1       1.616   5.364   0.001  0.00  0.00    +0.050 A 
ATOM     14  C   UNL     1       0.371   5.367   0.622  0.00  0.00    +0.028 A 
ATOM     15  C   UNL     1      -0.391   6.514   0.637  0.00  0.00    +0.025 A 
ATOM     16  C   UNL     1       0.074   7.679   0.034  0.00  0.00    +0.034 A 
ATOM     17  C   UNL     1       1.311   7.693  -0.587  0.00  0.00    +0.034 A 
BRANCH   5  19
ATOM     18  C   UNL     1       3.028   2.919   1.750  0.00  0.00    +0.027 C 
ATOM     19  C   UNL     1       2.452   3.002   0.336  0.00  0.00    +0.119 C 
ENDBRANCH   5  19
ENDBRANCH   1  16
BRANCH   2  20
ATOM     20  C   UNL     1      -0.971  11.289   0.287  0.00  0.00    +0.017 C 
ATOM     21  C   UNL     1      -1.833  11.190   1.546  0.00  0.00    -0.004 C 
BRANCH  20  22
ATOM     22  N   UNL     1      -0.100  12.469   0.382  0.00  0.00    +0.389 N 
ATOM     23  C   UNL     1       0.772  12.386   1.561  0.00  0.00    -0.058 C 
ATOM     24  C   UNL     1       1.784  13.536   1.526  0.00  0.00    +0.089 C 
ATOM     25  N   UNL     1       1.048  14.801   1.384  0.00  0.00    -0.305 N 
ATOM     26  C   UNL     1       0.054  14.911   0.306  0.00  0.00    +0.089 C 
ATOM     27  C   UNL     1      -0.890  13.707   0.389  0.00  0.00    -0.058 C 
ATOM     28  C   UNL     1       1.279  15.833   2.220  0.00  0.00    +0.219 C 
ATOM     29  O   UNL     1       0.663  16.869   2.089  0.00  0.00    -0.275 OA
ATOM     30  H   UNL     1       0.544  12.488  -0.510  0.00  0.00    -0.081 HD
BRANCH  28  31
ATOM     31  C   UNL     1       2.302  15.699   3.318  0.00  0.00    +0.075 C 
ATOM     32  C   UNL     1       1.791  15.663   4.760  0.00  0.00    +0.013 C 
ATOM     33  C   UNL     1       2.517  16.904   4.236  0.00  0.00    +0.013 C 
ENDBRANCH  28  31
ENDBRANCH  20  22
ENDBRANCH   2  20
TORSDOF 5
