REMARK  Name = ZINC03032994
REMARK  8 active torsions:
REMARK  status: ('A' for Active; 'I' for Inactive)
REMARK    1  A    between atoms: C_1  and  C_2
REMARK    2  A    between atoms: C_2  and  C_3
REMARK    3  A    between atoms: C_8  and  N_9
REMARK    4  A    between atoms: C_10  and  C_12
REMARK    5  A    between atoms: C_12  and  C_14
REMARK    6  A    between atoms: C_12  and  S_16
REMARK    7  A    between atoms: C_14  and  C_15
REMARK    8  A    between atoms: S_16  and  C_17
REMARK                            x       y       z     vdW  Elec       q    Type
REMARK                         _______ _______ _______ _____ _____    ______ ____
ROOT
ATOM      1  C   UNL     1       4.948  -0.214   1.161  0.00  0.00    +0.139 C 
ENDROOT
BRANCH   1   3
ATOM      2  N   UNL     1       2.978  -0.499  -0.308  0.00  0.00    -0.284 N 
ATOM      3  C   UNL     1       4.311  -0.611  -0.146  0.00  0.00    +0.231 C 
ATOM      4  O   UNL     1       4.999  -1.031  -1.052  0.00  0.00    -0.274 OA
ATOM      5  H   UNL     1       2.437  -0.096   0.389  0.00  0.00    +0.155 HD
BRANCH   2  11
ATOM      6  C   UNL     1       1.101  -1.517  -1.437  0.00  0.00    -0.026 A 
ATOM      7  C   UNL     1       0.506  -1.970  -2.598  0.00  0.00    +0.005 A 
ATOM      8  C   UNL     1       1.178  -1.877  -3.803  0.00  0.00    +0.000 A 
ATOM      9  C   UNL     1       2.447  -1.331  -3.850  0.00  0.00    +0.002 A 
ATOM     10  C   UNL     1       3.048  -0.876  -2.693  0.00  0.00    +0.023 A 
ATOM     11  C   UNL     1       2.374  -0.963  -1.482  0.00  0.00    +0.037 A 
BRANCH   6  13
ATOM     12  C   UNL     1      -0.355  -0.300   0.159  0.00  0.00    +0.009 C 
ATOM     13  C   UNL     1       0.368  -1.618  -0.124  0.00  0.00    +0.033 C 
ENDBRANCH   6  13
ENDBRANCH   2  11
ENDBRANCH   1   3
BRANCH   1  14
ATOM     14  C   UNL     1       4.878  -1.388   2.139  0.00  0.00    +0.020 C 
ATOM     15  C   UNL     1       5.416  -0.949   3.503  0.00  0.00    +0.005 C 
ENDBRANCH   1  14
BRANCH   1  16
ATOM     16  S   UNL     1       6.682   0.234   0.877  0.00  0.00    -0.092 S 
BRANCH  16  17
ATOM     17  C   UNL     1       6.591   1.670  -0.139  0.00  0.00    +0.115 A 
ATOM     18  C   UNL     1       7.742   2.250  -0.659  0.00  0.00    +0.071 A 
ATOM     19  C   UNL     1       7.670   3.390  -1.467  0.00  0.00    +0.090 A 
ATOM     20  C   UNL     1       8.958   3.915  -1.961  0.00  0.00    +0.015 A 
ATOM     21  C   UNL     1       9.166   5.043  -2.785  0.00  0.00    +0.011 A 
ATOM     22  C   UNL     1      10.432   5.409  -3.163  0.00  0.00    +0.001 A 
ATOM     23  C   UNL     1      11.543   4.687  -2.751  0.00  0.00    +0.001 A 
ATOM     24  C   UNL     1      11.373   3.579  -1.945  0.00  0.00    +0.016 A 
ATOM     25  C   UNL     1      10.101   3.204  -1.559  0.00  0.00    +0.022 A 
ATOM     26  S   UNL     1       9.472   1.882  -0.557  0.00  0.00    -0.084 S 
ATOM     27  N   UNL     1       6.430   3.877  -1.700  0.00  0.00    -0.234 NA
ATOM     28  C   UNL     1       5.367   3.306  -1.192  0.00  0.00    +0.223 A 
ATOM     29  N   UNL     1       5.416   2.226  -0.433  0.00  0.00    -0.228 NA
ENDBRANCH  16  17
ENDBRANCH   1  16
TORSDOF 6
