REMARK  Name = ZINC03447782
REMARK  4 active torsions:
REMARK  status: ('A' for Active; 'I' for Inactive)
REMARK    1  A    between atoms: C_12  and  C_14
REMARK    2  A    between atoms: C_17  and  S_23
REMARK    3  A    between atoms: C_18  and  N_20
REMARK    4  A    between atoms: S_23  and  C_24
REMARK                            x       y       z     vdW  Elec       q    Type
REMARK                         _______ _______ _______ _____ _____    ______ ____
ROOT
ATOM      1  C   UNL     1       1.183   1.782   0.011  0.00  0.00    +0.039 A 
ATOM      2  C   UNL     1       1.135   3.079   0.534  0.00  0.00    +0.014 A 
ATOM      3  C   UNL     1      -0.051   3.754   0.579  0.00  0.00    +0.018 A 
ATOM      4  C   UNL     1      -1.217   3.155   0.106  0.00  0.00    +0.043 A 
ATOM      5  C   UNL     1      -1.177   1.867  -0.421  0.00  0.00    +0.141 A 
ATOM      6  C   UNL     1       0.014   1.179  -0.465  0.00  0.00    +0.047 A 
ENDROOT
BRANCH   1  18
ATOM      7  C   UNL     1       7.276  -0.228  -0.598  0.00  0.00    +0.002 A 
ATOM      8  C   UNL     1       6.262  -0.817   0.135  0.00  0.00    +0.002 A 
ATOM      9  C   UNL     1       5.043  -0.178   0.274  0.00  0.00    +0.025 A 
ATOM     10  C   UNL     1       4.842   1.054  -0.316  0.00  0.00    +0.058 A 
ATOM     11  C   UNL     1       5.862   1.649  -1.066  0.00  0.00    +0.055 A 
ATOM     12  C   UNL     1       7.081   1.002  -1.199  0.00  0.00    +0.025 A 
ATOM     13  N   UNL     1       5.642   2.892  -1.670  0.00  0.00    -0.283 N 
ATOM     14  C   UNL     1       4.583   3.647  -1.323  0.00  0.00    +0.235 C 
ATOM     15  O   UNL     1       4.387   4.701  -1.891  0.00  0.00    -0.274 OA
ATOM     16  C   UNL     1       3.637   3.199  -0.238  0.00  0.00    +0.210 C 
ATOM     17  N   UNL     1       3.619   1.729  -0.195  0.00  0.00    -0.257 N 
ATOM     18  C   UNL     1       2.464   1.053  -0.038  0.00  0.00    +0.251 C 
ATOM     19  O   UNL     1       2.478  -0.159   0.063  0.00  0.00    -0.270 OA
ATOM     20  H   UNL     1       6.259   3.212  -2.346  0.00  0.00    +0.155 HD
ENDBRANCH   1  18
BRANCH   5  21
ATOM     21  N   UNL     1      -2.416   1.235  -0.929  0.00  0.00    +0.058 N 
ATOM     22  O   UNL     1      -2.381   0.107  -1.385  0.00  0.00    -0.126 OA
ATOM     23  O   UNL     1      -3.470   1.845  -0.890  0.00  0.00    -0.126 OA
ENDBRANCH   5  21
BRANCH   4  24
ATOM     24  S   UNL     1      -2.744   4.033   0.168  0.00  0.00    -0.087 S 
BRANCH  24  25
ATOM     25  C   UNL     1      -3.580   3.334   1.553  0.00  0.00    +0.013 A 
ATOM     26  C   UNL     1      -3.026   2.254   2.228  0.00  0.00    +0.016 A 
ATOM     27  C   UNL     1      -3.682   1.712   3.316  0.00  0.00    +0.021 A 
ATOM     28  C   UNL     1      -4.895   2.236   3.726  0.00  0.00    +0.041 A 
ATOM     29  C   UNL     1      -5.452   3.308   3.052  0.00  0.00    +0.021 A 
ATOM     30  C   UNL     1      -4.799   3.858   1.967  0.00  0.00    +0.016 A 
ATOM     31 CL   UNL     1      -5.719   1.548   5.090  0.00  0.00    -0.084 Cl
ENDBRANCH  24  25
ENDBRANCH   4  24
TORSDOF 4
