REMARK  Name = ZINC24434270
REMARK  6 active torsions:
REMARK  status: ('A' for Active; 'I' for Inactive)
REMARK    1  A    between atoms: C_1  and  C_2
REMARK    2  A    between atoms: C_5  and  C_20
REMARK    3  A    between atoms: C_7  and  N_8
REMARK    4  A    between atoms: N_8  and  S_9
REMARK    5  A    between atoms: S_9  and  C_12
REMARK    6  A    between atoms: C_17  and  C_18
REMARK                            x       y       z     vdW  Elec       q    Type
REMARK                         _______ _______ _______ _____ _____    ______ ____
ROOT
ATOM      1  C   UNL     1       3.035   2.299  -0.513  0.00  0.00    +0.046 C 
ATOM      2  C   UNL     1       1.744   1.601  -0.169  0.00  0.00    -0.028 A 
ATOM      3  C   UNL     1       1.677   0.221  -0.202  0.00  0.00    +0.006 A 
ATOM      4  C   UNL     1       0.498  -0.425   0.112  0.00  0.00    +0.012 A 
ATOM      5  C   UNL     1      -0.631   0.316   0.464  0.00  0.00    +0.021 A 
ATOM      6  C   UNL     1      -0.564   1.707   0.497  0.00  0.00    +0.036 A 
ATOM      7  C   UNL     1       0.625   2.347   0.180  0.00  0.00    +0.052 A 
ENDROOT
BRANCH   5   8
ATOM      8  C   UNL     1      -1.896  -0.375   0.801  0.00  0.00    +0.164 A 
ATOM      9  N   UNL     1      -2.919   0.137   1.451  0.00  0.00    -0.129 NA
ATOM     10  N   UNL     1      -3.851  -0.746   1.559  0.00  0.00    -0.134 NA
ATOM     11  C   UNL     1      -3.476  -1.858   0.992  0.00  0.00    +0.134 A 
ATOM     12  N   UNL     1      -2.223  -1.665   0.503  0.00  0.00    -0.311 N 
ATOM     13  C   UNL     1      -1.396  -2.654  -0.190  0.00  0.00    +0.125 C 
ATOM     14  C   UNL     1      -2.301  -3.662  -0.902  0.00  0.00    +0.022 C 
ATOM     15  C   UNL     1      -2.627  -4.819   0.040  0.00  0.00    +0.002 C 
ATOM     16  C   UNL     1      -3.377  -4.316   1.270  0.00  0.00    +0.008 C 
ATOM     17  C   UNL     1      -4.270  -3.134   0.879  0.00  0.00    +0.076 C 
ENDBRANCH   5   8
BRANCH   7  18
ATOM     18  N   UNL     1       0.697   3.742   0.212  0.00  0.00    -0.216 N 
ATOM     19  H   UNL     1       1.319   4.277  -0.522  0.00  0.00    +0.174 HD
BRANCH  18  20
ATOM     20  S   UNL     1      -0.152   4.590   1.353  0.00  0.00    +0.073 S 
ATOM     21  O   UNL     1       0.231   5.951   1.216  0.00  0.00    -0.150 OA
ATOM     22  O   UNL     1      -1.504   4.165   1.252  0.00  0.00    -0.150 OA
BRANCH  20  23
ATOM     23  C   UNL     1       0.426   4.061   2.931  0.00  0.00    +0.112 A 
ATOM     24  C   UNL     1      -0.420   3.378   3.784  0.00  0.00    +0.044 A 
ATOM     25  C   UNL     1       0.035   2.958   5.021  0.00  0.00    +0.020 A 
ATOM     26  C   UNL     1       1.334   3.232   5.408  0.00  0.00    +0.015 A 
ATOM     27  C   UNL     1       2.178   3.921   4.558  0.00  0.00    +0.006 A 
ATOM     28  C   UNL     1       1.724   4.335   3.319  0.00  0.00    -0.024 A 
ATOM     29  C   UNL     1       2.645   5.086   2.392  0.00  0.00    +0.046 C 
ATOM     30 BR   UNL     1      -1.120   2.015   6.184  0.00  0.00    -0.050 Br
ENDBRANCH  20  23
ENDBRANCH  18  20
ENDBRANCH   7  18
TORSDOF 4
