REMARK  Name = ZINC09620162
REMARK  5 active torsions:
REMARK  status: ('A' for Active; 'I' for Inactive)
REMARK    1  A    between atoms: C_1  and  C_2
REMARK    2  A    between atoms: C_2  and  C_3
REMARK    3  A    between atoms: C_2  and  S_4
REMARK    4  A    between atoms: S_4  and  C_5
REMARK    5  A    between atoms: C_8  and  C_11
REMARK                            x       y       z     vdW  Elec       q    Type
REMARK                         _______ _______ _______ _____ _____    ______ ____
ROOT
ATOM      1  C   UNL     1      -0.308  10.152  -0.080  0.00  0.00    +0.250 C 
ATOM      2  O   UNL     1      -1.434   9.693  -0.067  0.00  0.00    -0.270 OA
ATOM      3  N   UNL     1       0.756   9.325  -0.131  0.00  0.00    -0.261 N 
ATOM      4  C   UNL     1       0.566   7.953  -0.168  0.00  0.00    +0.166 A 
ATOM      5  N   UNL     1      -0.559   7.275  -0.159  0.00  0.00    -0.225 NA
ATOM      6  C   UNL     1      -0.595   5.926  -0.200  0.00  0.00    +0.081 A 
ATOM      7  C   UNL     1      -1.747   5.087  -0.197  0.00  0.00    +0.029 A 
ATOM      8  C   UNL     1      -1.648   3.742  -0.239  0.00  0.00    +0.010 A 
ATOM      9  C   UNL     1      -0.395   3.101  -0.289  0.00  0.00    -0.017 A 
ATOM     10  C   UNL     1      -0.284   1.705  -0.339  0.00  0.00    +0.008 A 
ATOM     11  C   UNL     1       0.948   1.125  -0.381  0.00  0.00    +0.001 A 
ATOM     12  C   UNL     1       2.103   1.902  -0.386  0.00  0.00    +0.001 A 
ATOM     13  C   UNL     1       2.033   3.262  -0.344  0.00  0.00    +0.009 A 
ATOM     14  C   UNL     1       0.782   3.896  -0.295  0.00  0.00    -0.002 A 
ATOM     15  C   UNL     1       0.654   5.284  -0.251  0.00  0.00    +0.048 A 
ATOM     16  S   UNL     1       1.788   6.651  -0.237  0.00  0.00    -0.051 S 
ATOM     17  H   UNL     1       1.654   9.691  -0.142  0.00  0.00    +0.157 HD
ENDROOT
BRANCH   1  21
ATOM     18  C   UNL     1       0.274  14.351   0.033  0.00  0.00    +0.008 A 
ATOM     19  C   UNL     1      -1.017  13.827   0.048  0.00  0.00    +0.015 A 
ATOM     20  C   UNL     1      -1.208  12.470   0.012  0.00  0.00    +0.014 A 
ATOM     21  C   UNL     1      -0.106  11.611  -0.041  0.00  0.00    +0.037 A 
ATOM     22  C   UNL     1       1.189  12.140  -0.051  0.00  0.00    +0.014 A 
ATOM     23  C   UNL     1       1.374  13.498  -0.020  0.00  0.00    +0.015 A 
BRANCH  18  24
ATOM     24  S   UNL     1       0.515  16.096   0.079  0.00  0.00    -0.122 S 
BRANCH  24  26
ATOM     25  C   UNL     1       1.648  15.893   2.560  0.00  0.00    +0.019 C 
ATOM     26  C   UNL     1       0.440  16.502   1.845  0.00  0.00    +0.045 C 
ATOM     27  C   UNL     1       0.458  18.022   2.019  0.00  0.00    +0.019 C 
ENDBRANCH  24  26
ENDBRANCH  18  24
ENDBRANCH   1  21
TORSDOF 3
