REMARK  Name = ZINC67391485
REMARK  11 active torsions:
REMARK  status: ('A' for Active; 'I' for Inactive)
REMARK    1  A    between atoms: C_1  and  C_2
REMARK    2  A    between atoms: C_4  and  C_10
REMARK    3  A    between atoms: C_6  and  C_9
REMARK    4  A    between atoms: C_7  and  O_8
REMARK    5  A    between atoms: C_10  and  N_11
REMARK    6  A    between atoms: N_14  and  C_15
REMARK    7  A    between atoms: C_15  and  C_17
REMARK    8  A    between atoms: C_15  and  C_18
REMARK    9  A    between atoms: C_22  and  S_24
REMARK   10  A    between atoms: S_24  and  N_27
REMARK   11  A    between atoms: N_27  and  C_28
REMARK                            x       y       z     vdW  Elec       q    Type
REMARK                         _______ _______ _______ _____ _____    ______ ____
ROOT
ATOM      1  N   UNL     1       1.410  -3.038  -2.948  0.00  0.00    -0.295 N 
ATOM      2  C   UNL     1       1.659  -3.689  -4.101  0.00  0.00    +0.300 C 
ATOM      3  O   UNL     1       0.737  -4.092  -4.784  0.00  0.00    -0.253 OA
ATOM      4  N   UNL     1       2.931  -3.894  -4.498  0.00  0.00    -0.293 N 
ATOM      5  H   UNL     1       2.146  -2.717  -2.404  0.00  0.00    +0.151 HD
ATOM      6  H   UNL     1       3.667  -3.573  -3.954  0.00  0.00    +0.151 HD
ENDROOT
BRANCH   4   7
ATOM      7  C   UNL     1       3.202  -4.602  -5.752  0.00  0.00    +0.102 C 
ATOM      8  C   UNL     1       3.152  -3.612  -6.918  0.00  0.00    +0.033 C 
BRANCH   7   9
ATOM      9  C   UNL     1       4.569  -5.233  -5.687  0.00  0.00    -0.026 A 
ATOM     10  C   UNL     1       5.618  -4.551  -5.100  0.00  0.00    +0.005 A 
ATOM     11  C   UNL     1       6.872  -5.130  -5.041  0.00  0.00    +0.002 A 
ATOM     12  C   UNL     1       7.076  -6.392  -5.568  0.00  0.00    +0.028 A 
ATOM     13  C   UNL     1       6.027  -7.074  -6.154  0.00  0.00    +0.106 A 
ATOM     14  C   UNL     1       4.772  -6.497  -6.209  0.00  0.00    +0.034 A 
BRANCH  13  15
ATOM     15  S   UNL     1       6.287  -8.682  -6.825  0.00  0.00    +0.058 S 
ATOM     16  O   UNL     1       5.276  -8.883  -7.803  0.00  0.00    -0.153 OA
ATOM     17  O   UNL     1       7.672  -8.775  -7.132  0.00  0.00    -0.153 OA
BRANCH  15  18
ATOM     18  N   UNL     1       5.997  -9.772  -5.613  0.00  0.00    -0.193 NA
ATOM     19  C   UNL     1       4.651  -9.902  -5.051  0.00  0.00    +0.127 C 
ATOM     20  H   UNL     1       6.719 -10.325  -5.275  0.00  0.00    +0.148 HD
ENDBRANCH  15  18
ENDBRANCH  13  15
ENDBRANCH   7   9
ENDBRANCH   4   7
BRANCH   1  21
ATOM     21  C   UNL     1       0.028  -2.816  -2.516  0.00  0.00    +0.141 C 
BRANCH  21  25
ATOM     22  C   UNL     1      -0.018   1.503   0.010  0.00  0.00    +0.047 C 
ATOM     23  C   UNL     1       0.002  -0.004   0.002  0.00  0.00    -0.008 A 
ATOM     24  C   UNL     1       0.006  -0.689  -1.198  0.00  0.00    +0.012 A 
ATOM     25  C   UNL     1       0.024  -2.071  -1.206  0.00  0.00    -0.030 A 
ATOM     26  C   UNL     1       0.040  -2.772  -0.014  0.00  0.00    +0.012 A 
ATOM     27  C   UNL     1       0.036  -2.092   1.188  0.00  0.00    -0.008 A 
ATOM     28  C   UNL     1       0.023  -0.705   1.199  0.00  0.00    +0.123 A 
ATOM     29  C   UNL     1       0.052  -2.856   2.487  0.00  0.00    +0.047 C 
BRANCH  28  30
ATOM     30  O   UNL     1       0.025  -0.033   2.381  0.00  0.00    -0.506 OA
ATOM     31  H   UNL     1      -0.857   0.149   2.731  0.00  0.00    +0.292 HD
ENDBRANCH  28  30
ENDBRANCH  21  25
ENDBRANCH   1  21
TORSDOF 7
