REMARK  Name = ZINC63572504
REMARK  2 active torsions:
REMARK  status: ('A' for Active; 'I' for Inactive)
REMARK    1  A    between atoms: C_3  and  N_8
REMARK    2  A    between atoms: C_24  and  C_26
REMARK                            x       y       z     vdW  Elec       q    Type
REMARK                         _______ _______ _______ _____ _____    ______ ____
ROOT
ATOM      1  N   UNL     1       3.550   1.427  -0.349  0.00  0.00    -0.269 N 
ATOM      2  C   UNL     1       4.806   1.015  -0.082  0.00  0.00    +0.307 C 
ATOM      3  O   UNL     1       5.033  -0.166   0.096  0.00  0.00    -0.252 OA
ATOM      4  N   UNL     1       5.809   1.912  -0.013  0.00  0.00    -0.276 N 
ATOM      5  C   UNL     1       5.507   3.345  -0.087  0.00  0.00    +0.114 C 
ATOM      6  C   UNL     1       6.040   4.048   1.176  0.00  0.00    +0.052 C 
ATOM      7  C   UNL     1       7.436   3.524   1.405  0.00  0.00    -0.035 C 
ATOM      8  C   UNL     1       8.589   4.153   1.593  0.00  0.00    +0.001 A 
ATOM      9  C   UNL     1       8.912   5.580   1.754  0.00  0.00    +0.030 A 
ATOM     10  C   UNL     1      10.228   5.884   1.911  0.00  0.00    +0.042 A 
ATOM     11  C   UNL     1      11.244   4.921   1.923  0.00  0.00    +0.022 A 
ATOM     12  C   UNL     1      11.037   3.587   1.790  0.00  0.00    +0.027 A 
ATOM     13  C   UNL     1       9.691   3.144   1.627  0.00  0.00    +0.043 A 
ATOM     14  N   UNL     1       9.211   1.942   1.503  0.00  0.00    -0.375 N 
ATOM     15  C   UNL     1       7.752   2.033   1.437  0.00  0.00    +0.131 C 
ATOM     16  C   UNL     1       7.195   1.443   0.143  0.00  0.00    +0.134 C 
ATOM     17 CL   UNL     1      10.672   7.551   2.106  0.00  0.00    -0.084 Cl
ATOM     18  H   UNL     1       3.381   2.357  -0.566  0.00  0.00    +0.156 HD
ATOM     19  H   UNL     1       9.731   1.125   1.460  0.00  0.00    +0.160 HD
ENDROOT
BRANCH   1  22
ATOM     20  C   UNL     1       0.185   0.022   0.125  0.00  0.00    +0.003 A 
ATOM     21  C   UNL     1       1.229   0.926   0.091  0.00  0.00    +0.023 A 
ATOM     22  C   UNL     1       2.491   0.513  -0.314  0.00  0.00    +0.036 A 
ATOM     23  C   UNL     1       2.701  -0.809  -0.685  0.00  0.00    +0.038 A 
ATOM     24  C   UNL     1       1.653  -1.709  -0.649  0.00  0.00    +0.020 A 
ATOM     25  C   UNL     1       0.396  -1.294  -0.245  0.00  0.00    +0.015 A 
ATOM     26 BR   UNL     1       1.936  -3.509  -1.154  0.00  0.00    -0.050 Br
ENDBRANCH   1  22
BRANCH  16  27
ATOM     27  C   UNL     1       8.026   1.909  -1.025  0.00  0.00    -0.025 A 
ATOM     28  C   UNL     1       8.504   0.992  -1.942  0.00  0.00    +0.008 A 
ATOM     29  C   UNL     1       9.266   1.419  -3.014  0.00  0.00    +0.038 A 
ATOM     30  C   UNL     1       9.549   2.765  -3.168  0.00  0.00    +0.123 A 
ATOM     31  C   UNL     1       9.069   3.683  -2.249  0.00  0.00    +0.038 A 
ATOM     32  C   UNL     1       8.304   3.255  -1.181  0.00  0.00    +0.008 A 
ATOM     33  F   UNL     1      10.294   3.183  -4.215  0.00  0.00    -0.205 F 
ENDBRANCH  16  27
TORSDOF 2
