REMARK  Name = ZINC22362169
REMARK  13 active torsions:
REMARK  status: ('A' for Active; 'I' for Inactive)
REMARK    1  A    between atoms: C_1  and  C_2
REMARK    2  A    between atoms: C_2  and  C_3
REMARK    3  A    between atoms: N_9  and  C_10
REMARK    4  A    between atoms: C_10  and  C_11
REMARK    5  A    between atoms: C_11  and  C_12
REMARK    6  A    between atoms: C_12  and  N_13
REMARK    7  A    between atoms: C_14  and  C_16
REMARK    8  A    between atoms: C_16  and  N_17
REMARK    9  A    between atoms: N_17  and  C_18
REMARK   10  A    between atoms: N_17  and  S_26
REMARK   11  A    between atoms: C_22  and  C_25
REMARK   12  A    between atoms: C_23  and  C_24
REMARK   13  A    between atoms: S_26  and  C_29
REMARK                            x       y       z     vdW  Elec       q    Type
REMARK                         _______ _______ _______ _____ _____    ______ ____
ROOT
ATOM      1  N   UNL     1       0.656   3.862  -0.409  0.00  0.00    -0.194 N 
ENDROOT
BRANCH   1   2
ATOM      2  C   UNL     1       0.373   4.727   0.651  0.00  0.00    +0.055 A 
ATOM      3  C   UNL     1      -0.907   4.773   1.189  0.00  0.00    +0.025 A 
ATOM      4  C   UNL     1      -1.182   5.625   2.240  0.00  0.00    +0.002 A 
ATOM      5  C   UNL     1      -0.188   6.441   2.750  0.00  0.00    +0.004 A 
ATOM      6  C   UNL     1       1.085   6.402   2.212  0.00  0.00    -0.046 A 
ATOM      7  C   UNL     1       1.369   5.548   1.165  0.00  0.00    -0.025 A 
ATOM      8  C   UNL     1       2.757   5.505   0.581  0.00  0.00    +0.046 C 
ATOM      9  C   UNL     1       2.165   7.292   2.771  0.00  0.00    +0.044 C 
ENDBRANCH   1   2
BRANCH   1  10
ATOM     10  S   UNL     1       0.571   4.409  -1.969  0.00  0.00    +0.075 S 
ATOM     11  O   UNL     1       0.865   5.799  -1.929  0.00  0.00    -0.150 OA
ATOM     12  O   UNL     1       1.318   3.496  -2.761  0.00  0.00    -0.150 OA
BRANCH  10  13
ATOM     13  C   UNL     1      -1.108   4.264  -2.482  0.00  0.00    +0.109 A 
ATOM     14  C   UNL     1      -1.570   3.070  -3.005  0.00  0.00    +0.029 A 
ATOM     15  C   UNL     1      -2.889   2.954  -3.403  0.00  0.00    +0.002 A 
ATOM     16  C   UNL     1      -3.743   4.035  -3.287  0.00  0.00    +0.000 A 
ATOM     17  C   UNL     1      -3.280   5.230  -2.769  0.00  0.00    +0.002 A 
ATOM     18  C   UNL     1      -1.962   5.344  -2.366  0.00  0.00    +0.029 A 
ENDBRANCH  10  13
ENDBRANCH   1  10
BRANCH   1  19
ATOM     19  C   UNL     1       1.028   2.471  -0.139  0.00  0.00    +0.227 C 
BRANCH  19  21
ATOM     20  N   UNL     1      -0.120   0.300   0.155  0.00  0.00    -0.314 N 
ATOM     21  C   UNL     1      -0.218   1.635  -0.005  0.00  0.00    +0.232 C 
ATOM     22  O   UNL     1      -1.309   2.162  -0.046  0.00  0.00    -0.274 OA
ATOM     23  H   UNL     1       0.870  -0.179   0.188  0.00  0.00    +0.149 HD
BRANCH  20  24
ATOM     24  C   UNL     1      -1.331  -0.513   0.286  0.00  0.00    +0.102 C 
BRANCH  24  25
ATOM     25  C   UNL     1      -0.943  -1.983   0.455  0.00  0.00    +0.000 C 
BRANCH  25  26
ATOM     26  C   UNL     1      -2.209  -2.832   0.591  0.00  0.00    -0.077 C 
BRANCH  26  32
ATOM     27  C   UNL     1      -3.015  -5.069   1.046  0.00  0.00    -0.069 C 
ATOM     28  C   UNL     1      -2.573  -6.502   1.352  0.00  0.00    -0.015 C 
ATOM     29  C   UNL     1      -1.818  -7.067   0.145  0.00  0.00    -0.003 C 
ATOM     30  C   UNL     1      -0.623  -6.162  -0.168  0.00  0.00    -0.019 C 
ATOM     31  C   UNL     1      -1.121  -4.739  -0.430  0.00  0.00    -0.078 C 
ATOM     32  N   UNL     1      -1.836  -4.244   0.754  0.00  0.00    +0.382 N 
ATOM     33  H   UNL     1      -1.153  -4.318   1.613  0.00  0.00    -0.081 HD
BRANCH  27  35
ATOM     34  C   UNL     1      -2.799  -4.431   3.452  0.00  0.00    +0.002 C 
ATOM     35  C   UNL     1      -3.752  -4.494   2.257  0.00  0.00    -0.019 C 
ENDBRANCH  27  35
ENDBRANCH  26  32
ENDBRANCH  25  26
ENDBRANCH  24  25
ENDBRANCH  20  24
ENDBRANCH  19  21
ENDBRANCH   1  19
TORSDOF 10
