REMARK  Name = ZINC38984439
REMARK  10 active torsions:
REMARK  status: ('A' for Active; 'I' for Inactive)
REMARK    1  A    between atoms: C_1  and  C_2
REMARK    2  A    between atoms: C_5  and  S_9
REMARK    3  A    between atoms: C_7  and  C_8
REMARK    4  A    between atoms: S_9  and  N_12
REMARK    5  A    between atoms: C_14  and  N_24
REMARK    6  A    between atoms: N_24  and  C_25
REMARK    7  A    between atoms: C_27  and  O_33
REMARK    8  A    between atoms: C_29  and  O_31
REMARK    9  A    between atoms: O_31  and  C_32
REMARK   10  A    between atoms: O_33  and  C_34
REMARK                            x       y       z     vdW  Elec       q    Type
REMARK                         _______ _______ _______ _____ _____    ______ ____
ROOT
ATOM      1  N   UNL     1       1.494  -5.117  -0.281  0.00  0.00    -0.110 NA
ATOM      2  C   UNL     1       1.900  -6.346  -0.160  0.00  0.00    +0.192 C 
ATOM      3  C   UNL     1       3.375  -6.659  -0.040  0.00  0.00    +0.237 C 
ATOM      4  N   UNL     1       3.770  -8.069   0.095  0.00  0.00    -0.359 N 
ATOM      5  C   UNL     1       2.835  -8.979   0.104  0.00  0.00    +0.063 A 
ATOM      6  C   UNL     1       3.177 -10.403   0.236  0.00  0.00    +0.027 A 
ATOM      7  C   UNL     1       2.182 -11.316   0.241  0.00  0.00    +0.002 A 
ATOM      8  C   UNL     1       0.833 -10.939   0.125  0.00  0.00    +0.002 A 
ATOM      9  C   UNL     1       0.442  -9.652   0.000  0.00  0.00    +0.030 A 
ATOM     10  C   UNL     1       1.403  -8.610  -0.018  0.00  0.00    +0.089 A 
ATOM     11  N   UNL     1       1.016  -7.357  -0.135  0.00  0.00    -0.226 NA
ATOM     12  H   UNL     1       4.704  -8.318   0.174  0.00  0.00    +0.162 HD
ENDROOT
BRANCH   1  13
ATOM     13  S   UNL     1      -0.125  -4.789  -0.405  0.00  0.00    +0.100 S 
ATOM     14  O   UNL     1      -0.709  -5.149   0.839  0.00  0.00    -0.146 OA
ATOM     15  O   UNL     1      -0.558  -5.343  -1.639  0.00  0.00    -0.146 OA
BRANCH  13  20
ATOM     16  C   UNL     1      -0.700   1.196  -0.908  0.00  0.00    +0.044 C 
ATOM     17  C   UNL     1      -0.556  -0.298  -0.782  0.00  0.00    -0.047 A 
ATOM     18  C   UNL     1      -0.417  -1.077  -1.916  0.00  0.00    +0.005 A 
ATOM     19  C   UNL     1      -0.285  -2.448  -1.801  0.00  0.00    +0.029 A 
ATOM     20  C   UNL     1      -0.292  -3.041  -0.552  0.00  0.00    +0.113 A 
ATOM     21  C   UNL     1      -0.430  -2.262   0.582  0.00  0.00    +0.032 A 
ATOM     22  C   UNL     1      -0.558  -0.890   0.467  0.00  0.00    -0.046 A 
ATOM     23  C   UNL     1      -0.703  -0.041   1.703  0.00  0.00    +0.044 C 
ENDBRANCH  13  20
ENDBRANCH   1  13
BRANCH   3  24
ATOM     24  N   UNL     1       4.044  -6.119  -1.226  0.00  0.00    -0.318 N 
ATOM     25  H   UNL     1       3.649  -6.240  -2.103  0.00  0.00    +0.148 HD
BRANCH  24  26
ATOM     26  C   UNL     1       5.252  -5.429  -1.093  0.00  0.00    +0.036 A 
ATOM     27  C   UNL     1       5.805  -4.781  -2.189  0.00  0.00    +0.068 A 
ATOM     28  C   UNL     1       7.004  -4.097  -2.057  0.00  0.00    +0.125 A 
ATOM     29  C   UNL     1       7.650  -4.060  -0.830  0.00  0.00    +0.091 A 
ATOM     30  C   UNL     1       7.097  -4.707   0.265  0.00  0.00    +0.125 A 
ATOM     31  C   UNL     1       5.896  -5.387   0.136  0.00  0.00    +0.068 A 
BRANCH  30  32
ATOM     32  O   UNL     1       7.731  -4.671   1.467  0.00  0.00    -0.495 OA
ATOM     33  C   UNL     1       8.963  -3.948   1.529  0.00  0.00    +0.277 C 
ENDBRANCH  30  32
BRANCH  28  34
ATOM     34  O   UNL     1       7.546  -3.462  -3.129  0.00  0.00    -0.495 OA
ATOM     35  C   UNL     1       8.782  -2.777  -2.921  0.00  0.00    +0.277 C 
ENDBRANCH  28  34
ENDBRANCH  24  26
ENDBRANCH   3  24
TORSDOF 6
