REMARK  Name = ZINC06016217
REMARK  13 active torsions:
REMARK  status: ('A' for Active; 'I' for Inactive)
REMARK    1  A    between atoms: C_1  and  C_2
REMARK    2  A    between atoms: C_3  and  C_37
REMARK    3  A    between atoms: C_4  and  C_15
REMARK    4  A    between atoms: C_6  and  C_11
REMARK    5  A    between atoms: C_11  and  O_13
REMARK    6  A    between atoms: O_13  and  C_14
REMARK    7  A    between atoms: C_18  and  O_23
REMARK    8  A    between atoms: C_19  and  O_21
REMARK    9  A    between atoms: O_21  and  C_22
REMARK   10  A    between atoms: O_23  and  S_24
REMARK   11  A    between atoms: S_24  and  C_27
REMARK   12  A    between atoms: C_31  and  N_33
REMARK   13  A    between atoms: C_37  and  C_39
REMARK                            x       y       z     vdW  Elec       q    Type
REMARK                         _______ _______ _______ _____ _____    ______ ____
ROOT
ATOM      1  C   UNL     1       1.569  -4.757  -0.843  0.00  0.00    -0.038 A 
ATOM      2  C   UNL     1       1.835  -3.431  -0.557  0.00  0.00    +0.008 A 
ATOM      3  C   UNL     1       2.136  -3.046   0.736  0.00  0.00    +0.053 A 
ATOM      4  C   UNL     1       2.181  -3.992   1.748  0.00  0.00    +0.198 A 
ATOM      5  C   UNL     1       1.912  -5.327   1.460  0.00  0.00    +0.165 A 
ATOM      6  C   UNL     1       1.606  -5.705   0.163  0.00  0.00    +0.053 A 
ENDROOT
BRANCH   1  10
ATOM      7  C   UNL     1      -0.243  -2.636  -4.790  0.00  0.00    +0.061 C 
ATOM      8  C   UNL     1       0.617  -3.730  -4.211  0.00  0.00    +0.027 C 
ATOM      9  C   UNL     1       0.452  -4.076  -2.920  0.00  0.00    +0.107 C 
ATOM     10  C   UNL     1       1.236  -5.171  -2.253  0.00  0.00    +0.054 C 
ATOM     11  C   UNL     1       2.533  -5.440  -3.023  0.00  0.00    +0.154 C 
ATOM     12  C   UNL     1       2.194  -5.471  -4.502  0.00  0.00    +0.049 C 
ATOM     13  C   UNL     1       2.499  -6.503  -5.266  0.00  0.00    +0.034 C 
ATOM     14  N   UNL     1       1.540  -4.341  -5.010  0.00  0.00    -0.260 NA
BRANCH   9  15
ATOM     15  C   UNL     1      -0.499  -3.381  -2.160  0.00  0.00    +0.139 C 
ATOM     16  O   UNL     1      -0.343  -2.199  -1.925  0.00  0.00    -0.297 OA
ATOM     17  C   UNL     1      -1.716  -4.099  -1.635  0.00  0.00    +0.086 C 
ENDBRANCH   9  15
BRANCH  11  18
ATOM     18  C   UNL     1       3.526  -4.340  -2.749  0.00  0.00    +0.316 C 
ATOM     19  O   UNL     1       3.368  -3.247  -3.237  0.00  0.00    -0.250 OA
BRANCH  18  20
ATOM     20  O   UNL     1       4.588  -4.576  -1.961  0.00  0.00    -0.467 OA
ATOM     21  C   UNL     1       5.503  -3.470  -1.741  0.00  0.00    +0.280 C 
ENDBRANCH  18  20
ENDBRANCH  11  18
ENDBRANCH   1  10
BRANCH   5  22
ATOM     22  O   UNL     1       1.949  -6.258   2.451  0.00  0.00    -0.491 OA
ATOM     23  C   UNL     1       1.662  -7.609   2.083  0.00  0.00    +0.277 C 
ENDBRANCH   5  22
BRANCH   4  24
ATOM     24  O   UNL     1       2.482  -3.616   3.019  0.00  0.00    -0.339 OA
BRANCH  24  25
ATOM     25  S   UNL     1       3.969  -3.662   3.343  0.00  0.00    +0.151 S 
ATOM     26  O   UNL     1       4.488  -4.819   2.704  0.00  0.00    -0.131 OA
ATOM     27  O   UNL     1       4.086  -3.447   4.743  0.00  0.00    -0.131 OA
BRANCH  25  28
ATOM     28  C   UNL     1       4.716  -2.274   2.557  0.00  0.00    +0.130 A 
ATOM     29  C   UNL     1       5.202  -2.389   1.268  0.00  0.00    +0.032 A 
ATOM     30  C   UNL     1       5.789  -1.300   0.650  0.00  0.00    +0.024 A 
ATOM     31  C   UNL     1       5.889  -0.095   1.323  0.00  0.00    +0.071 A 
ATOM     32  C   UNL     1       5.402   0.020   2.612  0.00  0.00    +0.146 A 
ATOM     33  C   UNL     1       4.816  -1.070   3.229  0.00  0.00    +0.064 A 
ATOM     34 CL   UNL     1       6.627   1.272   0.548  0.00  0.00    -0.081 Cl
BRANCH  32  35
ATOM     35  N   UNL     1       5.509   1.309   3.332  0.00  0.00    +0.058 N 
ATOM     36  O   UNL     1       5.080   1.410   4.467  0.00  0.00    -0.126 OA
ATOM     37  O   UNL     1       6.026   2.269   2.788  0.00  0.00    -0.126 OA
ENDBRANCH  32  35
ENDBRANCH  25  28
ENDBRANCH  24  25
ENDBRANCH   4  24
TORSDOF 9
