REMARK  Name = ZINC62706190
REMARK  5 active torsions:
REMARK  status: ('A' for Active; 'I' for Inactive)
REMARK    1  A    between atoms: C_1  and  C_2
REMARK    2  A    between atoms: C_4  and  C_21
REMARK    3  A    between atoms: C_8  and  C_13
REMARK    4  A    between atoms: C_8  and  N_15
REMARK    5  A    between atoms: C_13  and  N_14
REMARK                            x       y       z     vdW  Elec       q    Type
REMARK                         _______ _______ _______ _____ _____    ______ ____
ROOT
ATOM      1  C   UNL     1       0.480   1.485   0.027  0.00  0.00    +0.044 C 
ATOM      2  C   UNL     1       0.423  -0.021   0.021  0.00  0.00    -0.050 A 
ATOM      3  C   UNL     1       0.520  -0.712  -1.173  0.00  0.00    +0.010 A 
ATOM      4  C   UNL     1       0.465  -2.090  -1.176  0.00  0.00    -0.008 A 
ATOM      5  C   UNL     1       0.313  -2.788   0.019  0.00  0.00    +0.128 A 
ATOM      6  C   UNL     1       0.220  -2.097   1.212  0.00  0.00    +0.013 A 
ATOM      7  C   UNL     1       0.279  -0.711   1.208  0.00  0.00    +0.012 A 
ATOM      8  C   UNL     1       0.066  -2.799   2.537  0.00  0.00    +0.035 C 
ATOM      9  C   UNL     1       0.726  -4.177   2.501  0.00  0.00    +0.028 C 
ATOM     10  C   UNL     1      -0.311  -5.210   2.039  0.00  0.00    +0.043 C 
ATOM     11  C   UNL     1      -0.817  -4.792   0.654  0.00  0.00    +0.229 C 
ATOM     12  O   UNL     1       0.258  -4.143  -0.029  0.00  0.00    -0.491 OA
ATOM     13  C   UNL     1       0.569  -2.843  -2.477  0.00  0.00    +0.047 C 
ENDROOT
BRANCH   8  14
ATOM     14  N   UNL     1      -1.363  -2.954   2.839  0.00  0.00    -0.290 NA
ATOM     15  C   UNL     1      -2.079  -1.682   2.669  0.00  0.00    +0.113 C 
ATOM     16  C   UNL     1      -3.570  -1.902   2.935  0.00  0.00    +0.175 C 
ATOM     17  O   UNL     1      -3.740  -2.448   4.246  0.00  0.00    -0.377 OA
ATOM     18  C   UNL     1      -3.056  -3.689   4.446  0.00  0.00    +0.175 C 
ATOM     19  C   UNL     1      -1.560  -3.486   4.195  0.00  0.00    +0.113 C 
ENDBRANCH   8  14
BRANCH   8  20
ATOM     20  C   UNL     1       0.722  -1.956   3.632  0.00  0.00    -0.059 C 
BRANCH  20  21
ATOM     21  N   UNL     1       2.143  -1.757   3.313  0.00  0.00    +0.380 N 
ATOM     22  H   UNL     1       2.595  -1.277   4.076  0.00  0.00    -0.090 HD
ATOM     23  H   UNL     1       2.583  -2.654   3.170  0.00  0.00    -0.090 HD
ATOM     24  H   UNL     1       2.224  -1.205   2.472  0.00  0.00    -0.090 HD
ENDBRANCH  20  21
ENDBRANCH   8  20
TORSDOF 3
