REMARK  Name = ZINC13988460
REMARK  8 active torsions:
REMARK  status: ('A' for Active; 'I' for Inactive)
REMARK    1  A    between atoms: C_4  and  C_7
REMARK    2  A    between atoms: C_7  and  O_8
REMARK    3  A    between atoms: O_8  and  C_9
REMARK    4  A    between atoms: C_9  and  C_11
REMARK    5  A    between atoms: C_11  and  C_12
REMARK    6  A    between atoms: N_19  and  C_20
REMARK    7  A    between atoms: C_20  and  N_22
REMARK    8  A    between atoms: C_23  and  C_25
REMARK                            x       y       z     vdW  Elec       q    Type
REMARK                         _______ _______ _______ _____ _____    ______ ____
ROOT
ATOM      1  C   UNL     1      -6.054   5.683  -2.776  0.00  0.00    +0.171 C 
ATOM      2  C   UNL     1      -6.577   5.965  -4.158  0.00  0.00    +0.234 C 
ATOM      3  O   UNL     1      -6.087   6.879  -4.787  0.00  0.00    -0.274 OA
ATOM      4  N   UNL     1      -7.555   5.256  -4.724  0.00  0.00    -0.312 N 
ATOM      5  C   UNL     1      -8.296   4.193  -4.059  0.00  0.00    +0.123 C 
ATOM      6  C   UNL     1      -7.498   3.629  -2.882  0.00  0.00    +0.126 C 
ATOM      7  N   UNL     1      -6.976   4.760  -2.097  0.00  0.00    -0.299 N 
ATOM      8  H   UNL     1      -7.789   5.463  -5.642  0.00  0.00    +0.149 HD
ENDROOT
BRANCH   7   9
ATOM      9  C   UNL     1      -7.328   4.942  -0.809  0.00  0.00    +0.140 C 
ATOM     10  S   UNL     1      -8.292   3.773  -0.012  0.00  0.00    -0.018 S 
BRANCH   9  11
ATOM     11  N   UNL     1      -6.920   6.044  -0.148  0.00  0.00    -0.263 N 
ATOM     12  C   UNL     1      -7.357   6.278   1.105  0.00  0.00    +0.258 C 
ATOM     13  O   UNL     1      -8.119   5.495   1.640  0.00  0.00    -0.269 OA
ATOM     14  H   UNL     1      -6.313   6.668  -0.575  0.00  0.00    +0.157 HD
BRANCH  12  15
ATOM     15  C   UNL     1      -6.914   7.477   1.824  0.00  0.00    +0.094 A 
ATOM     16  C   UNL     1      -7.246   7.885   3.080  0.00  0.00    +0.068 A 
ATOM     17  C   UNL     1      -6.705   9.077   3.597  0.00  0.00    +0.008 A 
ATOM     18  C   UNL     1      -6.923   9.661   4.871  0.00  0.00    +0.010 A 
ATOM     19  C   UNL     1      -6.322  10.829   5.212  0.00  0.00    +0.001 A 
ATOM     20  C   UNL     1      -5.476  11.496   4.334  0.00  0.00    +0.001 A 
ATOM     21  C   UNL     1      -5.236  10.964   3.084  0.00  0.00    +0.016 A 
ATOM     22  C   UNL     1      -5.839   9.777   2.724  0.00  0.00    +0.021 A 
ATOM     23  S   UNL     1      -5.813   8.765   1.266  0.00  0.00    -0.082 S 
ATOM     24 CL   UNL     1      -8.331   6.933   4.045  0.00  0.00    -0.082 Cl
ENDBRANCH  12  15
ENDBRANCH   9  11
ENDBRANCH   7   9
BRANCH   1  25
ATOM     25  C   UNL     1      -4.668   5.043  -2.873  0.00  0.00    +0.152 C 
BRANCH  25  26
ATOM     26  C   UNL     1      -4.088   4.888  -1.491  0.00  0.00    +0.310 C 
ATOM     27  O   UNL     1      -4.660   5.364  -0.539  0.00  0.00    -0.251 OA
BRANCH  26  28
ATOM     28  O   UNL     1      -2.936   4.221  -1.317  0.00  0.00    -0.460 OA
BRANCH  28  29
ATOM     29  C   UNL     1      -2.436   4.111   0.041  0.00  0.00    +0.267 C 
BRANCH  29  33
ATOM     30  C   UNL     1       1.226   1.913   0.037  0.00  0.00    +0.000 A 
ATOM     31  C   UNL     1       0.022   1.249   0.181  0.00  0.00    +0.000 A 
ATOM     32  C   UNL     1      -1.163   1.960   0.178  0.00  0.00    +0.007 A 
ATOM     33  C   UNL     1      -1.144   3.336   0.040  0.00  0.00    -0.010 A 
ATOM     34  C   UNL     1       0.060   3.999  -0.102  0.00  0.00    +0.007 A 
ATOM     35  C   UNL     1       1.245   3.288  -0.104  0.00  0.00    +0.000 A 
ENDBRANCH  29  33
ENDBRANCH  28  29
ENDBRANCH  26  28
ENDBRANCH  25  26
ENDBRANCH   1  25
TORSDOF 8
