REMARK  Name = ZINC58725147
REMARK  10 active torsions:
REMARK  status: ('A' for Active; 'I' for Inactive)
REMARK    1  A    between atoms: C_1  and  C_2
REMARK    2  A    between atoms: C_2  and  C_3
REMARK    3  A    between atoms: C_2  and  N_4
REMARK    4  A    between atoms: C_5  and  C_7
REMARK    5  A    between atoms: C_7  and  C_8
REMARK    6  A    between atoms: C_8  and  N_9
REMARK    7  A    between atoms: C_10  and  C_12
REMARK    8  A    between atoms: C_25  and  C_26
REMARK    9  A    between atoms: C_29  and  O_32
REMARK   10  A    between atoms: O_32  and  C_33
REMARK                            x       y       z     vdW  Elec       q    Type
REMARK                         _______ _______ _______ _____ _____    ______ ____
ROOT
ATOM      1  C   UNL     1      -6.076  -6.076  -1.673  0.00  0.00    +0.051 A 
ATOM      2  C   UNL     1      -6.992  -5.824  -2.786  0.00  0.00    +0.013 A 
ATOM      3  C   UNL     1      -6.579  -5.145  -3.936  0.00  0.00    +0.011 A 
ATOM      4  C   UNL     1      -7.467  -4.932  -4.949  0.00  0.00    +0.001 A 
ATOM      5  C   UNL     1      -8.781  -5.383  -4.851  0.00  0.00    +0.002 A 
ATOM      6  C   UNL     1      -9.216  -6.047  -3.745  0.00  0.00    +0.028 A 
ATOM      7  C   UNL     1      -8.328  -6.286  -2.679  0.00  0.00    +0.072 A 
ATOM      8  N   UNL     1      -8.724  -6.933  -1.585  0.00  0.00    -0.247 NA
ATOM      9  C   UNL     1      -7.917  -7.177  -0.558  0.00  0.00    +0.072 A 
ATOM     10  C   UNL     1      -6.574  -6.763  -0.576  0.00  0.00    -0.009 A 
ATOM     11  C   UNL     1      -5.896  -7.178   0.706  0.00  0.00    +0.043 C 
ATOM     12  C   UNL     1      -6.957  -7.909   1.538  0.00  0.00    +0.042 C 
ATOM     13  C   UNL     1      -8.215  -7.876   0.706  0.00  0.00    -0.021 C 
ATOM     14  C   UNL     1      -9.402  -8.407   1.052  0.00  0.00    +0.013 C 
ENDROOT
BRANCH  14  15
ATOM     15  C   UNL     1      -9.522  -9.200   2.287  0.00  0.00    -0.024 A 
ATOM     16  C   UNL     1     -10.703  -9.898   2.559  0.00  0.00    +0.011 A 
ATOM     17  C   UNL     1     -10.810 -10.639   3.716  0.00  0.00    +0.046 A 
ATOM     18  C   UNL     1      -9.749 -10.692   4.611  0.00  0.00    +0.120 A 
ATOM     19  C   UNL     1      -8.574 -10.000   4.344  0.00  0.00    +0.046 A 
ATOM     20  C   UNL     1      -8.455  -9.261   3.188  0.00  0.00    +0.011 A 
BRANCH  18  21
ATOM     21  O   UNL     1      -9.860 -11.423   5.750  0.00  0.00    -0.495 OA
ATOM     22  C   UNL     1      -8.731 -11.434   6.627  0.00  0.00    +0.277 C 
ENDBRANCH  18  21
ENDBRANCH  14  15
BRANCH   1  24
ATOM     23  N   UNL     1      -4.340  -4.402  -1.248  0.00  0.00    -0.311 N 
ATOM     24  C   UNL     1      -4.670  -5.621  -1.719  0.00  0.00    +0.245 C 
ATOM     25  O   UNL     1      -3.811  -6.346  -2.182  0.00  0.00    -0.270 OA
ATOM     26  H   UNL     1      -5.025  -3.823  -0.879  0.00  0.00    +0.149 HD
BRANCH  23  27
ATOM     27  C   UNL     1      -2.947  -3.951  -1.294  0.00  0.00    +0.113 C 
BRANCH  27  28
ATOM     28  C   UNL     1      -2.846  -2.544  -0.702  0.00  0.00    +0.114 C 
BRANCH  28  30
ATOM     29  N   UNL     1      -1.083  -0.862  -0.278  0.00  0.00    -0.313 N 
ATOM     30  C   UNL     1      -1.413  -2.080  -0.749  0.00  0.00    +0.215 C 
ATOM     31  O   UNL     1      -0.556  -2.804  -1.210  0.00  0.00    -0.276 OA
ATOM     32  H   UNL     1      -1.769  -0.283   0.091  0.00  0.00    +0.149 HD
BRANCH  29  34
ATOM     33  C   UNL     1       0.351   1.118  -0.341  0.00  0.00    +0.027 C 
ATOM     34  C   UNL     1       0.310  -0.411  -0.324  0.00  0.00    +0.067 C 
ATOM     35  C   UNL     1       1.054  -0.927   0.910  0.00  0.00    +0.027 C 
ENDBRANCH  29  34
ENDBRANCH  28  30
ENDBRANCH  27  28
ENDBRANCH  23  27
ENDBRANCH   1  24
TORSDOF 7
