REMARK  Name = ZINC06887666
REMARK  9 active torsions:
REMARK  status: ('A' for Active; 'I' for Inactive)
REMARK    1  A    between atoms: C_1  and  C_2
REMARK    2  A    between atoms: C_5  and  N_9
REMARK    3  A    between atoms: C_6  and  C_8
REMARK    4  A    between atoms: N_9  and  S_10
REMARK    5  A    between atoms: S_10  and  C_13
REMARK    6  A    between atoms: C_15  and  C_21
REMARK    7  A    between atoms: C_18  and  O_19
REMARK    8  A    between atoms: O_19  and  C_20
REMARK    9  A    between atoms: C_23  and  C_26
REMARK                            x       y       z     vdW  Elec       q    Type
REMARK                         _______ _______ _______ _____ _____    ______ ____
ROOT
ATOM      1  C   UNL     1       2.555   0.523  -0.087  0.00  0.00    +0.151 A 
ATOM      2  C   UNL     1       1.248   0.099   0.017  0.00  0.00    +0.044 A 
ATOM      3  C   UNL     1       0.209   1.031  -0.006  0.00  0.00    +0.022 A 
ATOM      4  C   UNL     1       0.499   2.391  -0.135  0.00  0.00    +0.015 A 
ATOM      5  C   UNL     1       1.809   2.808  -0.238  0.00  0.00    +0.048 A 
ATOM      6  C   UNL     1       2.840   1.877  -0.214  0.00  0.00    +0.147 A 
ENDROOT
BRANCH   3   7
ATOM      7  C   UNL     1      -1.193   0.580   0.104  0.00  0.00    +0.168 A 
ATOM      8  C   UNL     1      -2.313   1.367   0.103  0.00  0.00    +0.075 A 
ATOM      9  C   UNL     1      -3.373   0.447   0.229  0.00  0.00    +0.081 A 
ATOM     10  N   UNL     1      -2.833  -0.737   0.300  0.00  0.00    -0.083 NA
ATOM     11  O   UNL     1      -1.627  -0.687   0.233  0.00  0.00    -0.354 OA
ATOM     12  C   UNL     1      -4.845   0.770   0.279  0.00  0.00    +0.069 C 
ENDBRANCH   3   7
BRANCH   1  13
ATOM     13  S   UNL     1       3.868  -0.652  -0.059  0.00  0.00    +0.076 S 
ATOM     14  O   UNL     1       4.808  -0.188   0.901  0.00  0.00    -0.150 OA
ATOM     15  O   UNL     1       3.262  -1.935   0.027  0.00  0.00    -0.150 OA
BRANCH  13  16
ATOM     16  N   UNL     1       4.621  -0.582  -1.532  0.00  0.00    -0.216 N 
ATOM     17  H   UNL     1       5.529  -0.247  -1.597  0.00  0.00    +0.174 HD
BRANCH  16  22
ATOM     18  C   UNL     1       1.890  -2.291  -6.199  0.00  0.00    +0.044 C 
ATOM     19  C   UNL     1       2.616  -1.837  -4.958  0.00  0.00    -0.050 A 
ATOM     20  C   UNL     1       1.910  -1.261  -3.918  0.00  0.00    +0.005 A 
ATOM     21  C   UNL     1       2.571  -0.844  -2.780  0.00  0.00    +0.025 A 
ATOM     22  C   UNL     1       3.948  -1.003  -2.681  0.00  0.00    +0.051 A 
ATOM     23  C   UNL     1       4.654  -1.578  -3.730  0.00  0.00    -0.028 A 
ATOM     24  C   UNL     1       3.986  -1.998  -4.863  0.00  0.00    +0.008 A 
ATOM     25  C   UNL     1       6.149  -1.748  -3.629  0.00  0.00    +0.046 C 
ENDBRANCH  16  22
ENDBRANCH  13  16
ENDBRANCH   1  13
BRANCH   6  26
ATOM     26  O   UNL     1       4.129   2.292  -0.317  0.00  0.00    -0.493 OA
ATOM     27  C   UNL     1       4.350   3.698  -0.445  0.00  0.00    +0.277 C 
ENDBRANCH   6  26
TORSDOF 5
