REMARK  Name = ZINC00892581
REMARK  7 active torsions:
REMARK  status: ('A' for Active; 'I' for Inactive)
REMARK    1  A    between atoms: C_4  and  C_7
REMARK    2  A    between atoms: C_7  and  C_9
REMARK    3  A    between atoms: C_7  and  C_25
REMARK    4  A    between atoms: C_9  and  C_10
REMARK    5  A    between atoms: N_12  and  C_13
REMARK    6  A    between atoms: C_13  and  C_14
REMARK    7  A    between atoms: C_30  and  O_31
REMARK                            x       y       z     vdW  Elec       q    Type
REMARK                         _______ _______ _______ _____ _____    ______ ____
ROOT
ATOM      1  C   UNL     1      -0.913   5.810   1.220  0.00  0.00    +0.108 C 
ENDROOT
BRANCH   1   2
ATOM      2  C   UNL     1      -0.865   7.313   1.315  0.00  0.00    +0.214 C 
ATOM      3  O   UNL     1      -0.220   7.952   0.511  0.00  0.00    -0.276 OA
ATOM      4  N   UNL     1      -1.539   7.949   2.295  0.00  0.00    -0.312 N 
ATOM      5  H   UNL     1      -2.055   7.438   2.938  0.00  0.00    +0.149 HD
BRANCH   4   6
ATOM      6  C   UNL     1      -1.492   9.410   2.387  0.00  0.00    +0.140 C 
BRANCH   6   7
ATOM      7  C   UNL     1      -2.335   9.873   3.577  0.00  0.00    +0.165 C 
ATOM      8  C   UNL     1      -2.268  11.374   3.681  0.00  0.00    -0.014 A 
ATOM      9  C   UNL     1      -1.040  11.999   3.527  0.00  0.00    +0.006 A 
ATOM     10  C   UNL     1      -0.941  13.373   3.620  0.00  0.00    +0.000 A 
ATOM     11  C   UNL     1      -2.071  14.130   3.868  0.00  0.00    +0.000 A 
ATOM     12  C   UNL     1      -3.295  13.510   4.020  0.00  0.00    +0.004 A 
ATOM     13  C   UNL     1      -3.396  12.131   3.925  0.00  0.00    -0.040 A 
ATOM     14  C   UNL     1      -4.749  11.489   4.091  0.00  0.00    +0.063 C 
ATOM     15  C   UNL     1      -4.583   9.994   4.367  0.00  0.00    +0.165 C 
ATOM     16  O   UNL     1      -3.685   9.450   3.393  0.00  0.00    -0.370 OA
ENDBRANCH   6   7
ENDBRANCH   4   6
ENDBRANCH   1   2
BRANCH   1  17
ATOM     17  C   UNL     1      -0.070   5.347   0.030  0.00  0.00    +0.061 C 
BRANCH  17  21
ATOM     18  C   UNL     1       0.077   1.078  -0.035  0.00  0.00    +0.000 A 
ATOM     19  C   UNL     1      -1.141   1.727   0.043  0.00  0.00    +0.000 A 
ATOM     20  C   UNL     1      -1.188   3.108   0.070  0.00  0.00    +0.004 A 
ATOM     21  C   UNL     1      -0.018   3.841   0.007  0.00  0.00    -0.039 A 
ATOM     22  C   UNL     1       1.200   3.193  -0.075  0.00  0.00    +0.004 A 
ATOM     23  C   UNL     1       1.248   1.812  -0.097  0.00  0.00    +0.000 A 
ENDBRANCH  17  21
BRANCH  17  24
ATOM     24  C   UNL     1      -0.690   5.848  -1.249  0.00  0.00    +0.002 A 
ATOM     25  C   UNL     1      -2.018   5.585  -1.524  0.00  0.00    +0.008 A 
ATOM     26  C   UNL     1      -2.587   6.045  -2.697  0.00  0.00    +0.001 A 
ATOM     27  C   UNL     1      -1.829   6.768  -3.599  0.00  0.00    +0.004 A 
ATOM     28  C   UNL     1      -0.500   7.034  -3.329  0.00  0.00    +0.046 A 
ATOM     29  C   UNL     1       0.072   6.578  -2.150  0.00  0.00    +0.121 A 
BRANCH  29  30
ATOM     30  O   UNL     1       1.377   6.842  -1.880  0.00  0.00    -0.506 OA
ATOM     31  H   UNL     1       1.991   6.171  -2.208  0.00  0.00    +0.292 HD
ENDBRANCH  29  30
ENDBRANCH  17  24
ENDBRANCH   1  17
TORSDOF 7
