REMARK  Name = ZINC44714363
REMARK  7 active torsions:
REMARK  status: ('A' for Active; 'I' for Inactive)
REMARK    1  A    between atoms: C_1  and  C_2
REMARK    2  A    between atoms: C_3  and  C_9
REMARK    3  A    between atoms: C_4  and  C_8
REMARK    4  A    between atoms: C_9  and  C_11
REMARK    5  A    between atoms: C_9  and  N_12
REMARK    6  A    between atoms: C_13  and  C_15
REMARK    7  A    between atoms: C_26  and  C_28
REMARK                            x       y       z     vdW  Elec       q    Type
REMARK                         _______ _______ _______ _____ _____    ______ ____
ROOT
ATOM      1  C   UNL     1      -2.474  -1.286  -5.534  0.00  0.00    +0.100 C 
ATOM      2  C   UNL     1      -3.758  -1.658  -4.759  0.00  0.00    +0.121 C 
ATOM      3  N   UNL     1      -4.714  -0.571  -5.075  0.00  0.00    -0.296 N 
ATOM      4  C   UNL     1      -4.482  -0.282  -6.510  0.00  0.00    +0.115 C 
ATOM      5  C   UNL     1      -2.954  -0.386  -6.685  0.00  0.00    -0.004 C 
ATOM      6  C   UNL     1      -2.618  -1.024  -8.030  0.00  0.00    -0.010 C 
ATOM      7  C   UNL     1      -3.052  -0.084  -9.158  0.00  0.00    -0.082 C 
ATOM      8  N   UNL     1      -2.361   1.204  -9.018  0.00  0.00    +0.379 N 
ATOM      9  C   UNL     1      -2.762   1.853  -7.764  0.00  0.00    -0.082 C 
ATOM     10  C   UNL     1      -2.315   0.995  -6.577  0.00  0.00    -0.010 C 
ATOM     11  C   UNL     1      -5.595   0.022  -4.245  0.00  0.00    +0.252 C 
ATOM     12  O   UNL     1      -6.319   0.907  -4.658  0.00  0.00    -0.270 OA
ATOM     13  H   UNL     1      -1.364   1.050  -9.011  0.00  0.00    -0.086 HD
ATOM     14  H   UNL     1      -2.602   1.800  -9.795  0.00  0.00    -0.086 HD
ENDROOT
BRANCH  11  15
ATOM     15  C   UNL     1      -5.682  -0.405  -2.835  0.00  0.00    +0.108 A 
ATOM     16  C   UNL     1      -4.893   0.218  -1.862  0.00  0.00    +0.138 A 
ATOM     17  C   UNL     1      -4.981  -0.187  -0.543  0.00  0.00    +0.041 A 
ATOM     18  C   UNL     1      -5.846  -1.206  -0.184  0.00  0.00    +0.026 A 
ATOM     19  C   UNL     1      -6.630  -1.827  -1.140  0.00  0.00    +0.077 A 
ATOM     20  C   UNL     1      -6.559  -1.430  -2.463  0.00  0.00    +0.156 A 
ATOM     21  F   UNL     1      -7.329  -2.034  -3.395  0.00  0.00    -0.203 F 
ATOM     22 CL   UNL     1      -7.711  -3.104  -0.676  0.00  0.00    -0.081 Cl
ATOM     23  F   UNL     1      -4.047   1.212  -2.210  0.00  0.00    -0.205 F 
ENDBRANCH  11  15
BRANCH   1  25
ATOM     24  N   UNL     1      -0.194  -0.599  -4.865  0.00  0.00    -0.308 N 
ATOM     25  C   UNL     1      -1.521  -0.533  -4.641  0.00  0.00    +0.219 C 
ATOM     26  O   UNL     1      -1.949   0.131  -3.721  0.00  0.00    -0.275 OA
ATOM     27  H   UNL     1       0.148  -1.130  -5.601  0.00  0.00    +0.149 HD
BRANCH  24  28
ATOM     28  C   UNL     1       0.732   0.133  -3.997  0.00  0.00    +0.104 C 
ATOM     29  C   UNL     1       0.852   1.579  -4.484  0.00  0.00    +0.033 C 
BRANCH  28  32
ATOM     30  C   UNL     1       2.243  -0.807  -6.570  0.00  0.00    +0.065 C 
ATOM     31  C   UNL     1       2.740  -0.931  -5.153  0.00  0.00    +0.038 A 
ATOM     32  C   UNL     1       2.087  -0.525  -4.040  0.00  0.00    +0.015 A 
ATOM     33  C   UNL     1       2.891  -0.825  -2.935  0.00  0.00    +0.065 A 
ATOM     34  N   UNL     1       3.988  -1.390  -3.370  0.00  0.00    -0.179 NA
ATOM     35  N   UNL     1       3.914  -1.473  -4.766  0.00  0.00    -0.281 N 
ATOM     36  H   UNL     1       4.588  -1.852  -5.352  0.00  0.00    +0.189 HD
ATOM     37  C   UNL     1       2.553  -0.543  -1.494  0.00  0.00    +0.068 C 
ENDBRANCH  28  32
ENDBRANCH  24  28
ENDBRANCH   1  25
TORSDOF 4
