REMARK  Name = ZINC04946803
REMARK  8 active torsions:
REMARK  status: ('A' for Active; 'I' for Inactive)
REMARK    1  A    between atoms: C_1  and  C_2
REMARK    2  A    between atoms: C_2  and  C_4
REMARK    3  A    between atoms: C_2  and  N_12
REMARK    4  A    between atoms: C_13  and  C_15
REMARK    5  A    between atoms: C_15  and  S_16
REMARK    6  A    between atoms: S_16  and  C_17
REMARK    7  A    between atoms: C_20  and  C_23
REMARK    8  A    between atoms: N_21  and  C_22
REMARK                            x       y       z     vdW  Elec       q    Type
REMARK                         _______ _______ _______ _____ _____    ______ ____
ROOT
ATOM      1  N   UNL     1       1.362   1.593  -0.002  0.00  0.00    -0.308 N 
ATOM      2  C   UNL     1       2.318   0.933  -0.685  0.00  0.00    +0.224 C 
ATOM      3  O   UNL     1       2.042  -0.081  -1.290  0.00  0.00    -0.275 OA
ATOM      4  H   UNL     1       1.583   2.404   0.482  0.00  0.00    +0.149 HD
ENDROOT
BRANCH   1   6
ATOM      5  C   UNL     1      -0.753   1.593  -1.232  0.00  0.00    +0.033 C 
ATOM      6  C   UNL     1      -0.013   1.086   0.008  0.00  0.00    +0.102 C 
BRANCH   6   7
ATOM      7  C   UNL     1      -0.718   1.572   1.248  0.00  0.00    -0.009 A 
ATOM      8  C   UNL     1      -0.295   2.729   1.875  0.00  0.00    +0.008 A 
ATOM      9  C   UNL     1      -0.942   3.176   3.012  0.00  0.00    +0.020 A 
ATOM     10  C   UNL     1      -2.012   2.464   3.524  0.00  0.00    +0.042 A 
ATOM     11  C   UNL     1      -2.436   1.306   2.897  0.00  0.00    +0.040 A 
ATOM     12  C   UNL     1      -1.792   0.863   1.755  0.00  0.00    +0.047 A 
ATOM     13 CL   UNL     1      -2.327  -0.587   0.964  0.00  0.00    -0.083 Cl
ATOM     14 CL   UNL     1      -2.824   3.025   4.952  0.00  0.00    -0.083 Cl
ENDBRANCH   6   7
ENDBRANCH   1   6
BRANCH   2  15
ATOM     15  C   UNL     1       3.732   1.454  -0.695  0.00  0.00    +0.173 C 
BRANCH  15  16
ATOM     16  S   UNL     1       4.773   0.357  -1.690  0.00  0.00    -0.077 S 
BRANCH  16  17
ATOM     17  C   UNL     1       6.322   1.181  -1.534  0.00  0.00    +0.192 A 
ATOM     18  N   UNL     1       6.557   2.282  -0.859  0.00  0.00    -0.122 NA
ATOM     19  N   UNL     1       7.798   2.601  -0.961  0.00  0.00    -0.133 NA
ATOM     20  C   UNL     1       8.424   1.730  -1.701  0.00  0.00    +0.137 A 
ATOM     21  N   UNL     1       7.508   0.791  -2.087  0.00  0.00    -0.309 N 
ATOM     22  C   UNL     1       7.749  -0.387  -2.925  0.00  0.00    +0.152 C 
BRANCH  20  23
ATOM     23  C   UNL     1       9.888   1.750  -2.058  0.00  0.00    +0.057 C 
ATOM     24  C   UNL     1      10.775   2.775  -1.348  0.00  0.00    +0.012 C 
ATOM     25  C   UNL     1      10.412   2.968  -2.822  0.00  0.00    +0.012 C 
ENDBRANCH  20  23
ENDBRANCH  16  17
ENDBRANCH  15  16
ENDBRANCH   2  15
TORSDOF 6
