REMARK  Name = ZINC40899725
REMARK  9 active torsions:
REMARK  status: ('A' for Active; 'I' for Inactive)
REMARK    1  A    between atoms: C_1  and  C_2
REMARK    2  A    between atoms: C_2  and  C_3
REMARK    3  A    between atoms: C_2  and  C_4
REMARK    4  A    between atoms: C_9  and  O_10
REMARK    5  A    between atoms: O_10  and  C_11
REMARK    6  A    between atoms: C_11  and  C_12
REMARK    7  A    between atoms: N_14  and  C_15
REMARK    8  A    between atoms: C_15  and  N_17
REMARK    9  A    between atoms: N_17  and  C_18
REMARK                            x       y       z     vdW  Elec       q    Type
REMARK                         _______ _______ _______ _____ _____    ______ ____
ROOT
ATOM      1  C   UNL     1      -0.271  -3.410  -3.823  0.00  0.00    +0.256 C 
ATOM      2  O   UNL     1       0.905  -3.240  -3.585  0.00  0.00    -0.272 OA
ATOM      3  N   UNL     1      -0.660  -3.812  -5.049  0.00  0.00    -0.265 N 
ATOM      4  H   UNL     1      -1.601  -3.948  -5.240  0.00  0.00    +0.157 HD
ENDROOT
BRANCH   3   5
ATOM      5  C   UNL     1       0.260  -4.025  -6.011  0.00  0.00    +0.141 C 
ATOM      6  S   UNL     1       1.921  -3.785  -5.675  0.00  0.00    -0.018 S 
BRANCH   5   7
ATOM      7  N   UNL     1      -0.128  -4.427  -7.237  0.00  0.00    -0.297 N 
ATOM      8  H   UNL     1      -1.062  -4.622  -7.411  0.00  0.00    +0.154 HD
BRANCH   7   9
ATOM      9  C   UNL     1       0.816  -4.562  -8.261  0.00  0.00    +0.035 A 
ATOM     10  C   UNL     1       2.022  -5.205  -8.013  0.00  0.00    +0.043 A 
ATOM     11  C   UNL     1       2.953  -5.338  -9.026  0.00  0.00    +0.044 A 
ATOM     12  C   UNL     1       2.685  -4.831 -10.286  0.00  0.00    +0.040 A 
ATOM     13  C   UNL     1       1.484  -4.190 -10.534  0.00  0.00    +0.044 A 
ATOM     14  C   UNL     1       0.547  -4.060  -9.527  0.00  0.00    +0.043 A 
ATOM     15 CL   UNL     1       1.151  -3.554 -12.116  0.00  0.00    -0.083 Cl
ATOM     16 CL   UNL     1       4.461  -6.141  -8.718  0.00  0.00    -0.083 Cl
ENDBRANCH   7   9
ENDBRANCH   5   7
ENDBRANCH   3   5
BRANCH   1  17
ATOM     17  C   UNL     1      -1.300  -3.172  -2.747  0.00  0.00    +0.325 C 
BRANCH  17  18
ATOM     18  O   UNL     1      -0.646  -2.755  -1.547  0.00  0.00    -0.482 OA
BRANCH  18  24
ATOM     19  C   UNL     1      -0.867  -2.089   0.726  0.00  0.00    -0.003 A 
ATOM     20  C   UNL     1      -1.673  -1.821   1.816  0.00  0.00    +0.007 A 
ATOM     21  C   UNL     1      -3.044  -1.966   1.716  0.00  0.00    +0.001 A 
ATOM     22  C   UNL     1      -3.613  -2.379   0.524  0.00  0.00    +0.004 A 
ATOM     23  C   UNL     1      -2.812  -2.647  -0.568  0.00  0.00    +0.046 A 
ATOM     24  C   UNL     1      -1.436  -2.497  -0.471  0.00  0.00    +0.125 A 
BRANCH  19  26
ATOM     25  C   UNL     1       0.962  -0.484   1.203  0.00  0.00    +0.012 C 
ATOM     26  C   UNL     1       0.627  -1.931   0.837  0.00  0.00    +0.016 C 
ATOM     27  C   UNL     1       1.160  -2.869   1.922  0.00  0.00    +0.012 C 
ENDBRANCH  19  26
ENDBRANCH  18  24
ENDBRANCH  17  18
ENDBRANCH   1  17
TORSDOF 7
