REMARK  Name = ZINC14569133
REMARK  10 active torsions:
REMARK  status: ('A' for Active; 'I' for Inactive)
REMARK    1  A    between atoms: C_1  and  C_2
REMARK    2  A    between atoms: C_6  and  C_25
REMARK    3  A    between atoms: C_7  and  N_8
REMARK    4  A    between atoms: N_8  and  S_9
REMARK    5  A    between atoms: S_9  and  C_12
REMARK    6  A    between atoms: C_15  and  N_18
REMARK    7  A    between atoms: N_18  and  C_19
REMARK    8  A    between atoms: C_19  and  N_21
REMARK    9  A    between atoms: N_21  and  C_22
REMARK   10  A    between atoms: C_22  and  C_23
REMARK                            x       y       z     vdW  Elec       q    Type
REMARK                         _______ _______ _______ _____ _____    ______ ____
ROOT
ATOM      1  C   UNL     1      -3.822   2.182   0.207  0.00  0.00    +0.109 A 
ATOM      2  C   UNL     1      -4.123   0.842   0.367  0.00  0.00    +0.030 A 
ATOM      3  C   UNL     1      -3.121  -0.063   0.659  0.00  0.00    +0.025 A 
ATOM      4  C   UNL     1      -1.809   0.375   0.790  0.00  0.00    +0.033 A 
ATOM      5  C   UNL     1      -1.511   1.723   0.634  0.00  0.00    +0.025 A 
ATOM      6  C   UNL     1      -2.517   2.621   0.337  0.00  0.00    +0.030 A 
ENDROOT
BRANCH   1   7
ATOM      7  S   UNL     1      -5.104   3.333  -0.165  0.00  0.00    +0.072 S 
ATOM      8  O   UNL     1      -4.500   4.391  -0.896  0.00  0.00    -0.150 OA
ATOM      9  O   UNL     1      -6.192   2.576  -0.677  0.00  0.00    -0.150 OA
BRANCH   7  10
ATOM     10  N   UNL     1      -5.612   3.980   1.272  0.00  0.00    -0.216 N 
ATOM     11  H   UNL     1      -6.460   3.704   1.655  0.00  0.00    +0.174 HD
BRANCH  10  18
ATOM     12  C   UNL     1      -4.208   3.157   3.605  0.00  0.00    +0.046 C 
ATOM     13  C   UNL     1      -4.118   4.564   3.075  0.00  0.00    -0.028 A 
ATOM     14  C   UNL     1      -3.333   5.498   3.722  0.00  0.00    +0.005 A 
ATOM     15  C   UNL     1      -3.255   6.792   3.240  0.00  0.00    +0.001 A 
ATOM     16  C   UNL     1      -3.957   7.154   2.105  0.00  0.00    +0.005 A 
ATOM     17  C   UNL     1      -4.740   6.223   1.450  0.00  0.00    -0.028 A 
ATOM     18  C   UNL     1      -4.821   4.923   1.932  0.00  0.00    +0.054 A 
ATOM     19  C   UNL     1      -5.505   6.618   0.213  0.00  0.00    +0.046 C 
ENDBRANCH  10  18
ENDBRANCH   7  10
ENDBRANCH   1   7
BRANCH   4  20
ATOM     20  N   UNL     1      -0.792  -0.538   1.085  0.00  0.00    -0.297 N 
ATOM     21  H   UNL     1      -0.129  -0.325   1.760  0.00  0.00    +0.154 HD
BRANCH  20  22
ATOM     22  C   UNL     1      -0.736  -1.718   0.435  0.00  0.00    +0.135 C 
ATOM     23  S   UNL     1      -1.962  -2.138  -0.683  0.00  0.00    -0.019 S 
BRANCH  22  24
ATOM     24  N   UNL     1       0.286  -2.566   0.666  0.00  0.00    -0.323 N 
ATOM     25  H   UNL     1       0.981  -2.328   1.299  0.00  0.00    +0.148 HD
BRANCH  24  26
ATOM     26  C   UNL     1       0.347  -3.848  -0.041  0.00  0.00    +0.130 C 
BRANCH  26  27
ATOM     27  C   UNL     1       1.577  -4.603   0.393  0.00  0.00    -0.016 C 
ATOM     28  C   UNL     1       1.467  -5.819   0.866  0.00  0.00    +0.005 C 
ENDBRANCH  26  27
ENDBRANCH  24  26
ENDBRANCH  22  24
ENDBRANCH  20  22
ENDBRANCH   4  20
TORSDOF 8
