REMARK  Name = ZINC14157795
REMARK  8 active torsions:
REMARK  status: ('A' for Active; 'I' for Inactive)
REMARK    1  A    between atoms: C_1  and  C_2
REMARK    2  A    between atoms: C_5  and  N_9
REMARK    3  A    between atoms: N_9  and  C_10
REMARK    4  A    between atoms: C_10  and  N_12
REMARK    5  A    between atoms: N_14  and  C_15
REMARK    6  A    between atoms: C_15  and  C_16
REMARK    7  A    between atoms: C_28  and  C_33
REMARK    8  A    between atoms: C_30  and  C_32
REMARK                            x       y       z     vdW  Elec       q    Type
REMARK                         _______ _______ _______ _____ _____    ______ ____
ROOT
ATOM      1  N   UNL     1       8.177  -1.849   0.665  0.00  0.00    -0.159 NA
ATOM      2  C   UNL     1       7.330  -1.485   1.613  0.00  0.00    +0.196 C 
ATOM      3  N   UNL     1       6.024  -1.235   1.301  0.00  0.00    -0.353 N 
ATOM      4  N   UNL     1       7.761  -1.360   2.906  0.00  0.00    -0.297 N 
ATOM      5  C   UNL     1       9.060  -1.714   3.242  0.00  0.00    +0.231 A 
ATOM      6  N   UNL     1       9.898  -2.082   2.284  0.00  0.00    -0.217 NA
ATOM      7  C   UNL     1      11.145  -2.420   2.569  0.00  0.00    +0.044 A 
ATOM      8  C   UNL     1      11.566  -2.398   3.889  0.00  0.00    +0.046 A 
ATOM      9  C   UNL     1      10.662  -2.014   4.867  0.00  0.00    +0.044 A 
ATOM     10  N   UNL     1       9.431  -1.683   4.513  0.00  0.00    -0.217 NA
ATOM     11  C   UNL     1      11.075  -1.974   6.315  0.00  0.00    +0.066 C 
ATOM     12  C   UNL     1      12.093  -2.830   1.472  0.00  0.00    +0.066 C 
ATOM     13  H   UNL     1       5.702  -1.394   0.400  0.00  0.00    +0.163 HD
ATOM     14  H   UNL     1       7.158  -1.023   3.587  0.00  0.00    +0.171 HD
ENDROOT
BRANCH   1  15
ATOM     15  C   UNL     1       7.781  -1.872  -0.615  0.00  0.00    +0.162 C 
ATOM     16  S   UNL     1       7.343  -0.417  -1.403  0.00  0.00    -0.016 S 
BRANCH  15  17
ATOM     17  N   UNL     1       7.729  -3.042  -1.283  0.00  0.00    -0.294 N 
ATOM     18  H   UNL     1       7.891  -3.876  -0.814  0.00  0.00    +0.154 HD
BRANCH  17  23
ATOM     19  C   UNL     1       6.558  -3.090  -6.834  0.00  0.00    +0.044 C 
ATOM     20  C   UNL     1       6.869  -3.077  -5.360  0.00  0.00    -0.049 A 
ATOM     21  C   UNL     1       7.627  -2.053  -4.823  0.00  0.00    +0.005 A 
ATOM     22  C   UNL     1       7.914  -2.038  -3.472  0.00  0.00    +0.025 A 
ATOM     23  C   UNL     1       7.440  -3.054  -2.652  0.00  0.00    +0.051 A 
ATOM     24  C   UNL     1       6.683  -4.085  -3.195  0.00  0.00    +0.062 A 
ATOM     25  C   UNL     1       6.395  -4.090  -4.547  0.00  0.00    +0.025 A 
ATOM     26 CL   UNL     1       6.095  -5.361  -2.176  0.00  0.00    -0.082 Cl
ENDBRANCH  17  23
ENDBRANCH  15  17
ENDBRANCH   1  15
BRANCH   3  27
ATOM     27  C   UNL     1       5.111  -0.727   2.327  0.00  0.00    +0.151 C 
BRANCH  27  28
ATOM     28  C   UNL     1       3.715  -0.652   1.765  0.00  0.00    -0.025 A 
ATOM     29  C   UNL     1       2.903  -1.771   1.784  0.00  0.00    +0.009 A 
ATOM     30  C   UNL     1       1.621  -1.708   1.269  0.00  0.00    +0.050 A 
ATOM     31  C   UNL     1       1.148  -0.522   0.732  0.00  0.00    +0.166 A 
ATOM     32  C   UNL     1       1.965   0.605   0.713  0.00  0.00    +0.167 A 
ATOM     33  C   UNL     1       3.248   0.534   1.231  0.00  0.00    +0.055 A 
ATOM     34  O   UNL     1       1.276   1.634   0.139  0.00  0.00    -0.453 OA
ATOM     35  C   UNL     1      -0.108   1.239   0.179  0.00  0.00    +0.466 C 
ATOM     36  O   UNL     1      -0.054  -0.199   0.170  0.00  0.00    -0.453 OA
ENDBRANCH  27  28
ENDBRANCH   3  27
TORSDOF 5
