REMARK  Name = ZINC03902322
REMARK  6 active torsions:
REMARK  status: ('A' for Active; 'I' for Inactive)
REMARK    1  A    between atoms: C_4  and  C_7
REMARK    2  A    between atoms: C_10  and  C_24
REMARK    3  A    between atoms: N_12  and  C_13
REMARK    4  A    between atoms: C_13  and  C_15
REMARK    5  A    between atoms: C_13  and  C_17
REMARK    6  A    between atoms: C_22  and  O_23
REMARK                            x       y       z     vdW  Elec       q    Type
REMARK                         _______ _______ _______ _____ _____    ______ ____
ROOT
ATOM      1  C   UNL     1       3.711  -0.707  -0.038  0.00  0.00    +0.130 C 
ATOM      2  C   UNL     1       4.005  -1.260  -1.446  0.00  0.00    +0.086 C 
ATOM      3  C   UNL     1       4.069  -2.757  -1.244  0.00  0.00    +0.068 C 
ATOM      4  N   UNL     1       3.861  -3.033  -0.003  0.00  0.00    -0.186 NA
ATOM      5  N   UNL     1       3.641  -1.913   0.802  0.00  0.00    -0.226 N 
ENDROOT
BRANCH   1   9
ATOM      6  C   UNL     1      -0.017   1.378   0.010  0.00  0.00    +0.000 A 
ATOM      7  C   UNL     1       1.171   2.086   0.002  0.00  0.00    +0.000 A 
ATOM      8  C   UNL     1       2.377   1.411  -0.013  0.00  0.00    +0.005 A 
ATOM      9  C   UNL     1       2.396   0.029  -0.020  0.00  0.00    -0.025 A 
ATOM     10  C   UNL     1       1.208  -0.679  -0.012  0.00  0.00    +0.005 A 
ATOM     11  C   UNL     1       0.002  -0.004   0.002  0.00  0.00    +0.000 A 
ENDBRANCH   1   9
BRANCH   3  12
ATOM     12  C   UNL     1       4.328  -3.749  -2.304  0.00  0.00    -0.002 A 
ATOM     13  C   UNL     1       4.545  -3.330  -3.619  0.00  0.00    +0.010 A 
ATOM     14  C   UNL     1       4.787  -4.263  -4.606  0.00  0.00    +0.001 A 
ATOM     15  C   UNL     1       4.816  -5.611  -4.296  0.00  0.00    +0.000 A 
ATOM     16  C   UNL     1       4.602  -6.033  -2.995  0.00  0.00    +0.001 A 
ATOM     17  C   UNL     1       4.363  -5.111  -1.998  0.00  0.00    +0.010 A 
ENDBRANCH   3  12
BRANCH   5  18
ATOM     18  C   UNL     1       3.382  -1.934   2.244  0.00  0.00    +0.228 C 
BRANCH  18  19
ATOM     19  C   UNL     1       4.550  -2.568   2.955  0.00  0.00    +0.030 A 
ATOM     20  C   UNL     1       5.431  -3.372   2.257  0.00  0.00    +0.010 A 
ATOM     21  C   UNL     1       6.502  -3.955   2.909  0.00  0.00    +0.001 A 
ATOM     22  C   UNL     1       6.695  -3.734   4.261  0.00  0.00    +0.004 A 
ATOM     23  C   UNL     1       5.817  -2.930   4.963  0.00  0.00    +0.046 A 
ATOM     24  C   UNL     1       4.745  -2.341   4.310  0.00  0.00    +0.123 A 
BRANCH  24  25
ATOM     25  O   UNL     1       3.883  -1.545   4.997  0.00  0.00    -0.506 OA
ATOM     26  H   UNL     1       3.135  -2.019   5.386  0.00  0.00    +0.292 HD
ENDBRANCH  24  25
ENDBRANCH  18  19
BRANCH  18  27
ATOM     27  C   UNL     1       2.162  -2.713   2.513  0.00  0.00    +0.092 C 
ATOM     28  N   UNL     1       1.221  -3.314   2.720  0.00  0.00    -0.194 NA
ENDBRANCH  18  27
ENDBRANCH   5  18
TORSDOF 6
