REMARK  Name = ZINC35571425
REMARK  8 active torsions:
REMARK  status: ('A' for Active; 'I' for Inactive)
REMARK    1  A    between atoms: C_1  and  C_2
REMARK    2  A    between atoms: C_2  and  C_3
REMARK    3  A    between atoms: C_2  and  C_4
REMARK    4  A    between atoms: C_2  and  O_5
REMARK    5  A    between atoms: O_5  and  C_6
REMARK    6  A    between atoms: N_16  and  C_19
REMARK    7  A    between atoms: C_19  and  C_20
REMARK    8  A    between atoms: C_24  and  N_26
REMARK                            x       y       z     vdW  Elec       q    Type
REMARK                         _______ _______ _______ _____ _____    ______ ____
ROOT
ATOM      1  C   UNL     1       1.952  -0.085  -1.337  0.00  0.00    +0.403 C 
ATOM      2  O   UNL     1       2.488   0.619  -0.503  0.00  0.00    -0.226 OA
ATOM      3  N   UNL     1       2.641  -0.485  -2.424  0.00  0.00    -0.266 N 
ATOM      4  C   UNL     1       2.006  -1.331  -3.444  0.00  0.00    +0.111 C 
ATOM      5  C   UNL     1       2.162  -0.660  -4.812  0.00  0.00    +0.020 C 
ATOM      6  C   UNL     1       3.646  -0.384  -5.073  0.00  0.00    +0.019 C 
ATOM      7  C   UNL     1       4.190   0.548  -3.996  0.00  0.00    +0.064 C 
ATOM      8  C   UNL     1       4.041  -0.079  -2.617  0.00  0.00    +0.127 C 
ATOM      9  C   UNL     1       5.671   0.870  -4.273  0.00  0.00    +0.036 C 
ATOM     10  C   UNL     1       5.758   2.348  -3.829  0.00  0.00    +0.109 C 
ATOM     11  N   UNL     1       4.395   2.877  -3.959  0.00  0.00    -0.297 N 
ATOM     12  C   UNL     1       3.492   1.884  -4.045  0.00  0.00    +0.224 C 
ATOM     13  O   UNL     1       2.293   2.039  -4.148  0.00  0.00    -0.275 OA
ENDROOT
BRANCH   1  14
ATOM     14  O   UNL     1       0.671  -0.465  -1.174  0.00  0.00    -0.445 OA
BRANCH  14  16
ATOM     15  C   UNL     1      -0.019   1.526   0.010  0.00  0.00    +0.055 C 
ATOM     16  C   UNL     1       0.002  -0.004   0.002  0.00  0.00    +0.107 C 
ATOM     17  C   UNL     1       0.742  -0.511   1.242  0.00  0.00    +0.055 C 
ATOM     18  C   UNL     1      -1.433  -0.534   0.013  0.00  0.00    +0.055 C 
ENDBRANCH  14  16
ENDBRANCH   1  14
BRANCH  11  19
ATOM     19  C   UNL     1       4.061   4.303  -3.991  0.00  0.00    +0.143 C 
BRANCH  19  20
ATOM     20  C   UNL     1       4.082   4.793  -5.416  0.00  0.00    -0.028 A 
ATOM     21  C   UNL     1       5.254   5.287  -5.959  0.00  0.00    +0.005 A 
ATOM     22  C   UNL     1       5.277   5.738  -7.266  0.00  0.00    +0.002 A 
ATOM     23  C   UNL     1       4.129   5.696  -8.033  0.00  0.00    +0.023 A 
ATOM     24  C   UNL     1       2.951   5.201  -7.491  0.00  0.00    +0.025 A 
ATOM     25  C   UNL     1       2.932   4.744  -6.179  0.00  0.00    +0.028 A 
BRANCH  24  26
ATOM     26  N   UNL     1       1.788   5.157  -8.264  0.00  0.00    -0.358 N 
ATOM     27  H   UNL     1       1.803   5.473  -9.181  0.00  0.00    +0.142 HD
ATOM     28  H   UNL     1       0.966   4.811  -7.883  0.00  0.00    +0.142 HD
ENDBRANCH  24  26
ENDBRANCH  19  20
ENDBRANCH  11  19
TORSDOF 5
