REMARK  Name = ZINC35908767
REMARK  6 active torsions:
REMARK  status: ('A' for Active; 'I' for Inactive)
REMARK    1  A    between atoms: C_1  and  C_2
REMARK    2  A    between atoms: C_7  and  N_8
REMARK    3  A    between atoms: C_9  and  C_15
REMARK    4  A    between atoms: C_18  and  N_21
REMARK    5  A    between atoms: C_22  and  C_24
REMARK    6  A    between atoms: C_24  and  C_26
REMARK                            x       y       z     vdW  Elec       q    Type
REMARK                         _______ _______ _______ _____ _____    ______ ____
ROOT
ATOM      1  C   UNL     1      -2.529   0.643   2.032  0.00  0.00    -0.017 A 
ATOM      2  C   UNL     1      -2.186   1.458   0.969  0.00  0.00    +0.008 A 
ATOM      3  C   UNL     1      -3.150   1.855   0.063  0.00  0.00    +0.023 A 
ATOM      4  C   UNL     1      -4.464   1.434   0.219  0.00  0.00    +0.033 A 
ATOM      5  C   UNL     1      -4.805   0.615   1.288  0.00  0.00    +0.023 A 
ATOM      6  C   UNL     1      -3.836   0.217   2.188  0.00  0.00    +0.008 A 
ENDROOT
BRANCH   1   8
ATOM      7  N   UNL     1      -0.360  -0.473   2.339  0.00  0.00    -0.254 N 
ATOM      8  C   UNL     1      -1.475   0.211   3.019  0.00  0.00    +0.170 C 
ATOM      9  S   UNL     1      -0.613   1.670   3.749  0.00  0.00    -0.124 S 
ATOM     10  C   UNL     1       1.091   0.966   3.667  0.00  0.00    +0.167 C 
ATOM     11  C   UNL     1       0.887  -0.135   2.638  0.00  0.00    +0.231 C 
ATOM     12  O   UNL     1       1.831  -0.681   2.107  0.00  0.00    -0.274 OA
BRANCH   7  19
ATOM     13  C   UNL     1      -0.587  -3.160   3.249  0.00  0.00    +0.045 C 
ATOM     14  C   UNL     1      -0.733  -2.796   1.794  0.00  0.00    -0.029 A 
ATOM     15  C   UNL     1      -0.990  -3.779   0.858  0.00  0.00    +0.005 A 
ATOM     16  C   UNL     1      -1.124  -3.447  -0.477  0.00  0.00    +0.000 A 
ATOM     17  C   UNL     1      -1.001  -2.129  -0.881  0.00  0.00    +0.002 A 
ATOM     18  C   UNL     1      -0.745  -1.142   0.050  0.00  0.00    +0.024 A 
ATOM     19  C   UNL     1      -0.615  -1.472   1.393  0.00  0.00    +0.041 A 
ENDBRANCH   7  19
ENDBRANCH   1   8
BRANCH   4  20
ATOM     20  N   UNL     1      -5.442   1.835  -0.697  0.00  0.00    -0.284 N 
ATOM     21  C   UNL     1      -5.125   1.988  -1.998  0.00  0.00    +0.239 C 
ATOM     22  O   UNL     1      -4.014   1.700  -2.389  0.00  0.00    -0.273 OA
ATOM     23  H   UNL     1      -6.349   2.003  -0.396  0.00  0.00    +0.155 HD
BRANCH  21  24
ATOM     24  C   UNL     1      -6.151   2.517  -2.967  0.00  0.00    +0.196 C 
ATOM     25 CL   UNL     1      -5.763   4.229  -3.377  0.00  0.00    -0.107 Cl
BRANCH  24  26
ATOM     26  C   UNL     1      -6.133   1.683  -4.222  0.00  0.00    -0.021 A 
ATOM     27  C   UNL     1      -5.010   1.671  -5.027  0.00  0.00    +0.005 A 
ATOM     28  C   UNL     1      -4.994   0.906  -6.179  0.00  0.00    +0.000 A 
ATOM     29  C   UNL     1      -6.101   0.154  -6.525  0.00  0.00    +0.000 A 
ATOM     30  C   UNL     1      -7.224   0.166  -5.719  0.00  0.00    +0.000 A 
ATOM     31  C   UNL     1      -7.239   0.927  -4.565  0.00  0.00    +0.005 A 
ENDBRANCH  24  26
ENDBRANCH  21  24
ENDBRANCH   4  20
TORSDOF 5
