REMARK  Name = ZINC36206581
REMARK  15 active torsions:
REMARK  status: ('A' for Active; 'I' for Inactive)
REMARK    1  A    between atoms: C_1  and  O_2
REMARK    2  A    between atoms: O_2  and  C_3
REMARK    3  A    between atoms: C_3  and  C_4
REMARK    4  A    between atoms: C_4  and  C_5
REMARK    5  A    between atoms: C_5  and  N_6
REMARK    6  A    between atoms: N_6  and  C_7
REMARK    7  A    between atoms: N_6  and  C_27
REMARK    8  A    between atoms: C_7  and  C_8
REMARK    9  A    between atoms: C_14  and  C_19
REMARK   10  A    between atoms: C_24  and  O_25
REMARK   11  A    between atoms: O_25  and  C_26
REMARK   12  A    between atoms: C_27  and  C_28
REMARK   13  A    between atoms: C_28  and  C_30
REMARK   14  A    between atoms: C_28  and  O_37
REMARK   15  A    between atoms: C_30  and  C_31
REMARK                            x       y       z     vdW  Elec       q    Type
REMARK                         _______ _______ _______ _____ _____    ______ ____
ROOT
ATOM      1  C   UNL     1       2.004  -4.724   1.053  0.00  0.00    -0.003 C 
ENDROOT
BRANCH   1   2
ATOM      2  C   UNL     1       1.671  -6.179   0.852  0.00  0.00    +0.094 A 
ATOM      3  N   UNL     1       2.221  -6.852  -0.191  0.00  0.00    -0.312 N 
ATOM      4  H   UNL     1       2.822  -6.386  -0.793  0.00  0.00    +0.170 HD
ATOM      5  C   UNL     1       1.949  -8.153  -0.406  0.00  0.00    +0.260 A 
ATOM      6  O   UNL     1       2.451  -8.743  -1.347  0.00  0.00    -0.267 OA
ATOM      7  C   UNL     1       1.062  -8.833   0.488  0.00  0.00    +0.080 A 
ATOM      8  C   UNL     1       0.617 -10.221   0.468  0.00  0.00    +0.007 A 
ATOM      9  C   UNL     1      -0.236 -10.646   1.431  0.00  0.00    +0.056 A 
ATOM     10  S   UNL     1      -0.493  -9.190   2.427  0.00  0.00    -0.076 S 
ATOM     11  C   UNL     1       0.542  -8.056   1.536  0.00  0.00    +0.116 A 
ATOM     12  N   UNL     1       0.861  -6.774   1.687  0.00  0.00    -0.229 NA
BRANCH   8  13
ATOM     13  C   UNL     1       1.090 -11.150  -0.586  0.00  0.00    +0.025 A 
ATOM     14  C   UNL     1       0.189 -11.679  -1.509  0.00  0.00    +0.012 A 
ATOM     15  C   UNL     1       0.635 -12.543  -2.488  0.00  0.00    +0.001 A 
ATOM     16  C   UNL     1       1.973 -12.888  -2.557  0.00  0.00    +0.004 A 
ATOM     17  C   UNL     1       2.875 -12.369  -1.647  0.00  0.00    +0.046 A 
ATOM     18  C   UNL     1       2.443 -11.496  -0.662  0.00  0.00    +0.128 A 
BRANCH  18  19
ATOM     19  O   UNL     1       3.329 -10.982   0.230  0.00  0.00    -0.495 OA
ATOM     20  C   UNL     1       4.695 -11.380   0.091  0.00  0.00    +0.277 C 
ENDBRANCH  18  19
ENDBRANCH   8  13
ENDBRANCH   1   2
BRANCH   1  21
ATOM     21  N   UNL     1       1.425  -4.259   2.321  0.00  0.00    +0.386 N 
ATOM     22  H   UNL     1       0.441  -4.480   2.342  0.00  0.00    -0.081 HD
BRANCH  21  23
ATOM     23  C   UNL     1       1.604  -2.806   2.437  0.00  0.00    -0.076 C 
BRANCH  23  24
ATOM     24  C   UNL     1       0.793  -2.103   1.347  0.00  0.00    +0.009 C 
BRANCH  24  25
ATOM     25  C   UNL     1       0.861  -0.589   1.556  0.00  0.00    +0.157 C 
BRANCH  25  27
ATOM     26  C   UNL     1       0.102   1.492   0.642  0.00  0.00    +0.193 C 
ATOM     27  O   UNL     1       0.104   0.067   0.538  0.00  0.00    -0.383 OA
ENDBRANCH  25  27
ENDBRANCH  24  25
ENDBRANCH  23  24
ENDBRANCH  21  23
BRANCH  21  28
ATOM     28  C   UNL     1       2.101  -4.927   3.441  0.00  0.00    -0.046 C 
BRANCH  28  29
ATOM     29  C   UNL     1       1.416  -4.539   4.753  0.00  0.00    +0.102 C 
BRANCH  29  30
ATOM     30  O   UNL     1       0.080  -5.045   4.762  0.00  0.00    -0.393 OA
ATOM     31  H   UNL     1       0.023  -6.007   4.684  0.00  0.00    +0.210 HD
ENDBRANCH  29  30
BRANCH  29  32
ATOM     32  C   UNL     1       2.194  -5.133   5.929  0.00  0.00    +0.064 C 
BRANCH  32  33
ATOM     33  C   UNL     1       1.593  -4.651   7.224  0.00  0.00    -0.045 A 
ATOM     34  C   UNL     1       2.050  -3.483   7.806  0.00  0.00    +0.004 A 
ATOM     35  C   UNL     1       1.498  -3.040   8.993  0.00  0.00    +0.000 A 
ATOM     36  C   UNL     1       0.490  -3.765   9.600  0.00  0.00    +0.000 A 
ATOM     37  C   UNL     1       0.033  -4.933   9.018  0.00  0.00    +0.000 A 
ATOM     38  C   UNL     1       0.581  -5.373   7.828  0.00  0.00    +0.004 A 
ENDBRANCH  32  33
ENDBRANCH  29  32
ENDBRANCH  28  29
ENDBRANCH  21  28
ENDBRANCH   1  21
TORSDOF 13
