REMARK  Name = ZINC66057547
REMARK  4 active torsions:
REMARK  status: ('A' for Active; 'I' for Inactive)
REMARK    1  A    between atoms: C_1  and  C_2
REMARK    2  A    between atoms: C_8  and  N_10
REMARK    3  A    between atoms: C_14  and  C_16
REMARK    4  A    between atoms: C_16  and  N_17
REMARK                            x       y       z     vdW  Elec       q    Type
REMARK                         _______ _______ _______ _____ _____    ______ ____
ROOT
ATOM      1  C   UNL     1       6.152   1.247   3.525  0.00  0.00    +0.214 C 
ENDROOT
BRANCH   1   2
ATOM      2  N   UNL     1       6.664   1.296   4.894  0.00  0.00    -0.215 N 
ATOM      3  C   UNL     1       6.568   2.381   5.702  0.00  0.00    +0.247 C 
ATOM      4  O   UNL     1       6.286   3.492   5.341  0.00  0.00    -0.273 OA
ATOM      5  C   UNL     1       6.873   1.832   7.091  0.00  0.00    +0.113 C 
ATOM      6  C   UNL     1       5.538   1.476   7.766  0.00  0.00    +0.035 C 
ATOM      7  C   UNL     1       5.239   2.436   8.925  0.00  0.00    +0.003 C 
ATOM      8  C   UNL     1       4.304   3.565   8.503  0.00  0.00    +0.000 C 
ATOM      9  C   UNL     1       5.106   4.607   7.708  0.00  0.00    +0.000 C 
ATOM     10  C   UNL     1       6.444   4.857   8.405  0.00  0.00    +0.000 C 
ATOM     11  C   UNL     1       7.583   4.221   7.613  0.00  0.00    +0.003 C 
ATOM     12  C   UNL     1       7.757   2.740   7.910  0.00  0.00    +0.035 C 
ATOM     13  N   UNL     1       7.583   0.573   6.788  0.00  0.00    -0.285 N 
ATOM     14  C   UNL     1       7.308   0.293   5.501  0.00  0.00    +0.310 C 
ATOM     15  O   UNL     1       7.612  -0.748   4.954  0.00  0.00    -0.252 OA
ATOM     16  H   UNL     1       8.130   0.058   7.398  0.00  0.00    +0.151 HD
ENDBRANCH   1   2
BRANCH   1  21
ATOM     17  N   UNL     1       2.116  -0.004   1.231  0.00  0.00    -0.296 N 
ATOM     18  C   UNL     1       2.795   0.128   2.388  0.00  0.00    +0.306 C 
ATOM     19  O   UNL     1       2.267  -0.174   3.440  0.00  0.00    -0.252 OA
ATOM     20  N   UNL     1       4.059   0.594   2.379  0.00  0.00    -0.239 N 
ATOM     21  C   UNL     1       4.738   0.726   3.536  0.00  0.00    +0.238 C 
ATOM     22  O   UNL     1       4.211   0.424   4.585  0.00  0.00    -0.274 OA
ATOM     23  H   UNL     1       2.538   0.237   0.392  0.00  0.00    +0.151 HD
ATOM     24  H   UNL     1       4.481   0.835   1.539  0.00  0.00    +0.159 HD
BRANCH  17  31
ATOM     25  C   UNL     1      -0.019   1.526   0.010  0.00  0.00    +0.009 C 
ATOM     26  C   UNL     1       0.002  -0.004   0.002  0.00  0.00    +0.006 C 
ATOM     27  C   UNL     1      -1.433  -0.534   0.013  0.00  0.00    +0.005 C 
ATOM     28  C   UNL     1      -1.413  -2.063   0.004  0.00  0.00    +0.000 C 
ATOM     29  C   UNL     1      -0.673  -2.570   1.244  0.00  0.00    +0.002 C 
ATOM     30  C   UNL     1       0.763  -2.041   1.233  0.00  0.00    +0.022 C 
ATOM     31  C   UNL     1       0.742  -0.511   1.242  0.00  0.00    +0.077 C 
ENDBRANCH  17  31
ENDBRANCH   1  21
TORSDOF 3
