REMARK  Name = ZINC25152848
REMARK  12 active torsions:
REMARK  status: ('A' for Active; 'I' for Inactive)
REMARK    1  A    between atoms: C_1  and  O_2
REMARK    2  A    between atoms: O_2  and  C_3
REMARK    3  A    between atoms: C_3  and  C_5
REMARK    4  A    between atoms: C_9  and  C_10
REMARK    5  A    between atoms: C_10  and  N_11
REMARK    6  A    between atoms: N_11  and  C_12
REMARK    7  A    between atoms: N_11  and  C_20
REMARK    8  A    between atoms: C_12  and  C_13
REMARK    9  A    between atoms: C_13  and  C_14
REMARK   10  A    between atoms: C_21  and  N_36
REMARK   11  A    between atoms: N_22  and  C_29
REMARK   12  A    between atoms: C_29  and  C_30
REMARK                            x       y       z     vdW  Elec       q    Type
REMARK                         _______ _______ _______ _____ _____    ______ ____
ROOT
ATOM      1  N   UNL     1      -2.191   4.581  -1.348  0.00  0.00    -0.315 N 
ENDROOT
BRANCH   1   2
ATOM      2  C   UNL     1      -1.078   4.972  -2.128  0.00  0.00    +0.134 A 
ATOM      3  C   UNL     1      -0.609   4.161  -3.125  0.00  0.00    +0.127 A 
ATOM      4  N   UNL     1       0.473   4.567  -3.873  0.00  0.00    -0.276 N 
ATOM      5  C   UNL     1       1.071   5.746  -3.621  0.00  0.00    +0.331 A 
ATOM      6  O   UNL     1       2.029   6.086  -4.288  0.00  0.00    -0.246 OA
ATOM      7  N   UNL     1       0.626   6.553  -2.641  0.00  0.00    -0.273 N 
ATOM      8  H   UNL     1       1.128   7.513  -2.450  0.00  0.00    +0.173 HD
ATOM      9  C   UNL     1      -0.433   6.199  -1.887  0.00  0.00    +0.277 A 
ATOM     10  O   UNL     1      -0.830   6.937  -1.001  0.00  0.00    -0.266 OA
BRANCH   3  11
ATOM     11  N   UNL     1      -1.216   2.952  -3.380  0.00  0.00    -0.343 N 
ATOM     12  H   UNL     1      -0.834   2.304  -4.183  0.00  0.00    +0.144 HD
ATOM     13  H   UNL     1      -2.082   2.635  -2.782  0.00  0.00    +0.144 HD
ENDBRANCH   3  11
BRANCH   4  14
ATOM     14  C   UNL     1       0.980   3.708  -4.946  0.00  0.00    +0.163 C 
BRANCH  14  15
ATOM     15  C   UNL     1       2.025   2.774  -4.391  0.00  0.00    -0.028 A 
ATOM     16  C   UNL     1       3.355   3.151  -4.385  0.00  0.00    +0.005 A 
ATOM     17  C   UNL     1       4.313   2.296  -3.871  0.00  0.00    +0.000 A 
ATOM     18  C   UNL     1       3.942   1.062  -3.373  0.00  0.00    +0.000 A 
ATOM     19  C   UNL     1       2.612   0.683  -3.383  0.00  0.00    +0.000 A 
ATOM     20  C   UNL     1       1.654   1.540  -3.892  0.00  0.00    +0.005 A 
ENDBRANCH  14  15
ENDBRANCH   4  14
ENDBRANCH   1   2
BRANCH   1  21
ATOM     21  C   UNL     1      -1.813   4.415   0.062  0.00  0.00    +0.180 C 
BRANCH  21  26
ATOM     22  C   UNL     1      -1.066   1.978   0.265  0.00  0.00    +0.101 A 
ATOM     23  C   UNL     1       0.241   1.312   0.367  0.00  0.00    +0.056 A 
ATOM     24  C   UNL     1       1.157   2.292   0.337  0.00  0.00    +0.196 A 
ATOM     25  O   UNL     1       0.532   3.475   0.232  0.00  0.00    -0.465 OA
ATOM     26  C   UNL     1      -0.793   3.312   0.182  0.00  0.00    +0.136 A 
BRANCH  22  27
ATOM     27  C   UNL     1      -2.393   1.338   0.254  0.00  0.00    +0.342 C 
ATOM     28  O   UNL     1      -3.397   2.022   0.259  0.00  0.00    -0.245 OA
BRANCH  27  30
ATOM     29  C   UNL     1      -3.831  -0.568   0.229  0.00  0.00    +0.280 C 
ATOM     30  O   UNL     1      -2.492  -0.006   0.239  0.00  0.00    -0.464 OA
ENDBRANCH  27  30
ENDBRANCH  22  27
ENDBRANCH  21  26
ENDBRANCH   1  21
BRANCH   1  31
ATOM     31  C   UNL     1      -3.295   5.540  -1.488  0.00  0.00    +0.110 C 
BRANCH  31  32
ATOM     32  C   UNL     1      -4.555   4.965  -0.839  0.00  0.00    +0.049 C 
BRANCH  32  33
ATOM     33  C   UNL     1      -5.688   5.949  -0.983  0.00  0.00    -0.072 C 
ATOM     34  C   UNL     1      -6.496   5.802  -1.983  0.00  0.00    -0.028 C 
ATOM     35  C   UNL     1      -7.660   6.706  -2.263  0.00  0.00    +0.027 C 
ATOM     36  C   UNL     1      -8.005   7.523  -1.015  0.00  0.00    +0.004 C 
ATOM     37  C   UNL     1      -6.714   8.155  -0.478  0.00  0.00    +0.005 C 
ATOM     38  C   UNL     1      -5.812   7.034   0.047  0.00  0.00    +0.030 C 
ENDBRANCH  32  33
ENDBRANCH  31  32
ENDBRANCH   1  31
TORSDOF 11
