REMARK  Name = ZINC17329504
REMARK  6 active torsions:
REMARK  status: ('A' for Active; 'I' for Inactive)
REMARK    1  A    between atoms: C_3  and  C_10
REMARK    2  A    between atoms: C_5  and  N_7
REMARK    3  A    between atoms: N_12  and  N_13
REMARK    4  A    between atoms: C_14  and  C_16
REMARK    5  A    between atoms: C_16  and  C_17
REMARK    6  A    between atoms: C_17  and  C_18
REMARK                            x       y       z     vdW  Elec       q    Type
REMARK                         _______ _______ _______ _____ _____    ______ ____
ROOT
ATOM      1  N   UNL     1       1.069   7.414   0.028  0.00  0.00    -0.234 N 
ATOM      2  C   UNL     1       2.227   8.103   0.020  0.00  0.00    +0.229 C 
ATOM      3  O   UNL     1       3.285   7.511   0.007  0.00  0.00    -0.274 OA
ATOM      4  H   UNL     1       0.222   7.887   0.039  0.00  0.00    +0.173 HD
ENDROOT
BRANCH   1   7
ATOM      5  C   UNL     1      -0.070   5.323   0.030  0.00  0.00    +0.260 C 
ATOM      6  O   UNL     1      -1.131   5.916   0.043  0.00  0.00    -0.269 OA
ATOM      7  N   UNL     1       1.088   6.013   0.022  0.00  0.00    -0.230 N 
ATOM      8  H   UNL     1       1.934   5.539   0.011  0.00  0.00    +0.173 HD
BRANCH   5  11
ATOM      9  C   UNL     1       1.178   1.781   0.000  0.00  0.00    +0.003 A 
ATOM     10  C   UNL     1       1.166   3.160   0.007  0.00  0.00    +0.013 A 
ATOM     11  C   UNL     1      -0.050   3.845   0.023  0.00  0.00    +0.040 A 
ATOM     12  C   UNL     1      -1.248   3.127   0.031  0.00  0.00    +0.045 A 
ATOM     13  C   UNL     1      -1.222   1.748   0.017  0.00  0.00    +0.127 A 
ATOM     14  C   UNL     1      -0.013   1.076   0.008  0.00  0.00    +0.033 A 
BRANCH  13  15
ATOM     15  N   UNL     1      -2.491   0.986   0.019  0.00  0.00    +0.056 N 
ATOM     16  O   UNL     1      -2.470  -0.232   0.013  0.00  0.00    -0.126 OA
ATOM     17  O   UNL     1      -3.556   1.577   0.028  0.00  0.00    -0.126 OA
ENDBRANCH  13  15
ENDBRANCH   5  11
ENDBRANCH   1   7
BRANCH   2  18
ATOM     18  C   UNL     1       2.206   9.610   0.028  0.00  0.00    +0.105 C 
BRANCH  18  19
ATOM     19  C   UNL     1       3.642  10.140   0.016  0.00  0.00    +0.083 C 
BRANCH  19  20
ATOM     20  C   UNL     1       3.621  11.647   0.023  0.00  0.00    +0.111 A 
ATOM     21  N   UNL     1       4.795  12.329   0.015  0.00  0.00    -0.310 N 
ATOM     22  H   UNL     1       5.630  11.837   0.004  0.00  0.00    +0.170 HD
ATOM     23  C   UNL     1       4.822  13.675   0.021  0.00  0.00    +0.260 A 
ATOM     24  O   UNL     1       5.884  14.274   0.013  0.00  0.00    -0.267 OA
ATOM     25  C   UNL     1       3.581  14.393   0.036  0.00  0.00    +0.075 A 
ATOM     26  C   UNL     1       3.369  15.840   0.045  0.00  0.00    -0.023 A 
ATOM     27  C   UNL     1       2.090  16.271   0.060  0.00  0.00    -0.004 A 
ATOM     28  S   UNL     1       1.108  14.795   0.062  0.00  0.00    -0.073 S 
ATOM     29  C   UNL     1       2.421  13.601   0.043  0.00  0.00    +0.116 A 
ATOM     30  N   UNL     1       2.474  12.273   0.032  0.00  0.00    -0.227 NA
ATOM     31  C   UNL     1       1.611  17.690   0.072  0.00  0.00    +0.043 C 
ATOM     32  C   UNL     1       2.794  18.598   0.440  0.00  0.00    +0.005 C 
ATOM     33  C   UNL     1       4.003  18.198  -0.411  0.00  0.00    +0.005 C 
ATOM     34  C   UNL     1       4.527  16.834   0.039  0.00  0.00    +0.037 C 
ENDBRANCH  19  20
ENDBRANCH  18  19
ENDBRANCH   2  18
TORSDOF 6
