REMARK  Name = ZINC39227965
REMARK  7 active torsions:
REMARK  status: ('A' for Active; 'I' for Inactive)
REMARK    1  A    between atoms: C_1  and  O_2
REMARK    2  A    between atoms: O_2  and  C_3
REMARK    3  A    between atoms: C_6  and  O_35
REMARK    4  A    between atoms: C_7  and  C_9
REMARK    5  A    between atoms: N_23  and  C_24
REMARK    6  A    between atoms: C_24  and  C_25
REMARK    7  A    between atoms: O_35  and  C_36
REMARK                            x       y       z     vdW  Elec       q    Type
REMARK                         _______ _______ _______ _____ _____    ______ ____
ROOT
ATOM      1  C   UNL     1       1.327  -3.785   2.158  0.00  0.00    +0.014 C 
ATOM      2  C   UNL     1       2.688  -3.861   1.507  0.00  0.00    +0.011 A 
ATOM      3  N   UNL     1       3.823  -3.193   1.878  0.00  0.00    -0.359 N 
ATOM      4  C   UNL     1       4.849  -3.524   1.039  0.00  0.00    +0.047 A 
ATOM      5  C   UNL     1       6.182  -3.123   0.991  0.00  0.00    +0.026 A 
ATOM      6  C   UNL     1       6.965  -3.666  -0.013  0.00  0.00    +0.002 A 
ATOM      7  C   UNL     1       6.462  -4.567  -0.936  0.00  0.00    +0.001 A 
ATOM      8  C   UNL     1       5.153  -4.981  -0.914  0.00  0.00    +0.010 A 
ATOM      9  C   UNL     1       4.338  -4.449   0.090  0.00  0.00    +0.003 A 
ATOM     10  C   UNL     1       2.946  -4.637   0.430  0.00  0.00    -0.022 A 
ATOM     11  H   UNL     1       3.890  -2.576   2.624  0.00  0.00    +0.166 HD
ATOM     12  C   UNL     1       1.906  -5.511  -0.226  0.00  0.00    +0.019 C 
ATOM     13  C   UNL     1       0.723  -5.641   0.743  0.00  0.00    -0.072 C 
ATOM     14  N   UNL     1       0.324  -4.309   1.218  0.00  0.00    +0.391 N 
ATOM     15  H   UNL     1       0.246  -3.684   0.430  0.00  0.00    -0.080 HD
ENDROOT
BRANCH   1  20
ATOM     16  C   UNL     1      -0.112  -0.296   1.974  0.00  0.00    +0.121 A 
ATOM     17  C   UNL     1       0.418   0.284   3.117  0.00  0.00    +0.049 A 
ATOM     18  C   UNL     1       1.241  -0.453   3.947  0.00  0.00    +0.049 A 
ATOM     19  C   UNL     1       1.537  -1.772   3.637  0.00  0.00    +0.122 A 
ATOM     20  C   UNL     1       1.006  -2.352   2.494  0.00  0.00    -0.010 A 
ATOM     21  C   UNL     1       0.179  -1.617   1.667  0.00  0.00    +0.051 A 
BRANCH  16  23
ATOM     22  C   UNL     1      -1.179   1.783   1.534  0.00  0.00    +0.277 C 
ATOM     23  O   UNL     1      -0.922   0.429   1.157  0.00  0.00    -0.495 OA
ENDBRANCH  16  23
BRANCH  19  24
ATOM     24  O   UNL     1       2.347  -2.497   4.454  0.00  0.00    -0.495 OA
ATOM     25  C   UNL     1       2.859  -1.836   5.613  0.00  0.00    +0.277 C 
ENDBRANCH  19  24
ENDBRANCH   1  20
BRANCH  14  26
ATOM     26  C   UNL     1      -0.977  -4.398   1.895  0.00  0.00    -0.040 C 
BRANCH  26  27
ATOM     27  C   UNL     1      -2.041  -4.764   0.892  0.00  0.00    -0.049 A 
ATOM     28  C   UNL     1      -1.754  -4.801  -0.417  0.00  0.00    +0.048 A 
ATOM     29  S   UNL     1      -3.299  -5.272  -1.169  0.00  0.00    -0.096 S 
ATOM     30  C   UNL     1      -4.289  -5.408   0.297  0.00  0.00    +0.020 A 
ATOM     31  C   UNL     1      -3.389  -5.087   1.336  0.00  0.00    -0.008 A 
ATOM     32  C   UNL     1      -3.904  -5.116   2.653  0.00  0.00    +0.029 A 
ATOM     33  C   UNL     1      -5.214  -5.447   2.883  0.00  0.00    +0.042 A 
ATOM     34  C   UNL     1      -6.074  -5.763   1.839  0.00  0.00    +0.021 A 
ATOM     35  C   UNL     1      -5.606  -5.734   0.540  0.00  0.00    +0.017 A 
ATOM     36 CL   UNL     1      -5.811  -5.473   4.513  0.00  0.00    -0.084 Cl
ENDBRANCH  26  27
ENDBRANCH  14  26
TORSDOF 5
