REMARK  Name = ZINC31076045
REMARK  6 active torsions:
REMARK  status: ('A' for Active; 'I' for Inactive)
REMARK    1  A    between atoms: C_1  and  C_2
REMARK    2  A    between atoms: N_11  and  S_12
REMARK    3  A    between atoms: S_12  and  C_15
REMARK    4  A    between atoms: C_18  and  O_24
REMARK    5  A    between atoms: C_19  and  N_21
REMARK    6  A    between atoms: O_24  and  C_25
REMARK                            x       y       z     vdW  Elec       q    Type
REMARK                         _______ _______ _______ _____ _____    ______ ____
ROOT
ATOM      1  S   UNL     1       1.434   0.547   2.300  0.00  0.00    +0.061 S 
ATOM      2  O   UNL     1       2.472  -0.241   2.867  0.00  0.00    -0.153 OA
ATOM      3  O   UNL     1       1.692   1.751   1.591  0.00  0.00    -0.153 OA
ENDROOT
BRANCH   1  13
ATOM      4  C   UNL     1       1.409  -2.274   2.683  0.00  0.00    +0.031 C 
ATOM      5  C   UNL     1       0.448  -1.872   1.563  0.00  0.00    +0.107 C 
ATOM      6  C   UNL     1       0.778  -2.653   0.292  0.00  0.00    -0.019 A 
ATOM      7  C   UNL     1       0.990  -4.031   0.276  0.00  0.00    +0.013 A 
ATOM      8  C   UNL     1       1.275  -4.658  -0.889  0.00  0.00    +0.046 A 
ATOM      9  S   UNL     1       1.260  -3.301  -2.050  0.00  0.00    -0.101 S 
ATOM     10  C   UNL     1       0.879  -2.005  -0.900  0.00  0.00    -0.004 A 
ATOM     11  C   UNL     1       0.711  -0.545  -1.169  0.00  0.00    +0.060 C 
ATOM     12  C   UNL     1       0.005   0.099   0.034  0.00  0.00    +0.115 C 
ATOM     13  N   UNL     1       0.601  -0.442   1.265  0.00  0.00    -0.169 NA
ENDBRANCH   1  13
BRANCH   1  14
ATOM     14  C   UNL     1       0.340   0.962   3.617  0.00  0.00    +0.108 A 
ATOM     15  C   UNL     1      -0.563   1.998   3.464  0.00  0.00    +0.032 A 
ATOM     16  C   UNL     1      -1.422   2.325   4.495  0.00  0.00    +0.050 A 
ATOM     17  C   UNL     1      -1.378   1.614   5.685  0.00  0.00    +0.150 A 
ATOM     18  C   UNL     1      -0.471   0.575   5.836  0.00  0.00    +0.169 A 
ATOM     19  C   UNL     1       0.382   0.248   4.800  0.00  0.00    +0.065 A 
BRANCH  18  20
ATOM     20  N   UNL     1      -0.421  -0.186   7.105  0.00  0.00    +0.060 N 
ATOM     21  O   UNL     1       0.369  -1.092   7.236  0.00  0.00    -0.126 OA
ATOM     22  O   UNL     1      -1.171   0.098   8.010  0.00  0.00    -0.126 OA
ENDBRANCH  18  20
BRANCH  17  23
ATOM     23  O   UNL     1      -2.221   1.934   6.702  0.00  0.00    -0.493 OA
ATOM     24  C   UNL     1      -3.128   3.015   6.476  0.00  0.00    +0.277 C 
ENDBRANCH  17  23
ENDBRANCH   1  14
TORSDOF 4
