REMARK  Name = ZINC39467720
REMARK  6 active torsions:
REMARK  status: ('A' for Active; 'I' for Inactive)
REMARK    1  A    between atoms: C_5  and  C_7
REMARK    2  A    between atoms: C_7  and  N_8
REMARK    3  A    between atoms: C_21  and  N_25
REMARK    4  A    between atoms: N_25  and  C_26
REMARK    5  A    between atoms: C_26  and  C_27
REMARK    6  A    between atoms: C_27  and  C_28
REMARK                            x       y       z     vdW  Elec       q    Type
REMARK                         _______ _______ _______ _____ _____    ______ ____
ROOT
ATOM      1  N   UNL     1       1.488  -2.679   1.333  0.00  0.00    -0.257 N 
ATOM      2  C   UNL     1       2.784  -2.891   1.760  0.00  0.00    +0.186 C 
ATOM      3  N   UNL     1       3.139  -2.744   3.010  0.00  0.00    -0.261 NA
ATOM      4  C   UNL     1       2.075  -2.361   3.922  0.00  0.00    +0.184 C 
ATOM      5  C   UNL     1       0.886  -3.308   3.555  0.00  0.00    +0.137 C 
ATOM      6  C   UNL     1       0.444  -2.929   2.190  0.00  0.00    +0.231 C 
ATOM      7  O   UNL     1      -0.721  -2.850   1.864  0.00  0.00    -0.274 OA
ATOM      8  C   UNL     1      -0.054  -3.428   4.693  0.00  0.00    -0.046 C 
ATOM      9  C   UNL     1       0.512  -3.319   5.907  0.00  0.00    -0.014 C 
ATOM     10  S   UNL     1       2.273  -2.965   5.643  0.00  0.00    -0.102 S 
ATOM     11  C   UNL     1      -0.171  -3.450   7.232  0.00  0.00    +0.026 C 
ATOM     12  C   UNL     1      -1.686  -3.319   7.026  0.00  0.00    -0.067 C 
ATOM     13  C   UNL     1      -2.100  -4.224   5.862  0.00  0.00    -0.011 C 
ATOM     14  C   UNL     1      -1.552  -3.661   4.551  0.00  0.00    +0.031 C 
ENDROOT
BRANCH  12  15
ATOM     15  N   UNL     1      -2.388  -3.730   8.249  0.00  0.00    +0.381 N 
ATOM     16  H   UNL     1      -3.383  -3.722   8.084  0.00  0.00    -0.086 HD
ATOM     17  H   UNL     1      -2.097  -4.661   8.507  0.00  0.00    -0.086 HD
BRANCH  15  18
ATOM     18  C   UNL     1      -2.063  -2.797   9.336  0.00  0.00    -0.077 C 
BRANCH  18  19
ATOM     19  C   UNL     1      -2.795  -3.225  10.610  0.00  0.00    +0.018 C 
BRANCH  19  20
ATOM     20  C   UNL     1      -2.462  -2.268  11.726  0.00  0.00    -0.024 A 
ATOM     21  C   UNL     1      -3.125  -0.992  12.006  0.00  0.00    +0.003 A 
ATOM     22  C   UNL     1      -4.176  -0.293  11.410  0.00  0.00    +0.010 A 
ATOM     23  C   UNL     1      -4.571   0.909  11.927  0.00  0.00    +0.001 A 
ATOM     24  C   UNL     1      -3.934   1.441  13.039  0.00  0.00    +0.002 A 
ATOM     25  C   UNL     1      -2.894   0.768  13.643  0.00  0.00    +0.026 A 
ATOM     26  C   UNL     1      -2.477  -0.457  13.134  0.00  0.00    +0.047 A 
ATOM     27  N   UNL     1      -1.496  -1.351  13.501  0.00  0.00    -0.360 N 
ATOM     28  C   UNL     1      -1.506  -2.426  12.655  0.00  0.00    +0.087 A 
ATOM     29  H   UNL     1      -0.890  -1.237  14.251  0.00  0.00    +0.165 HD
ENDBRANCH  19  20
ENDBRANCH  18  19
ENDBRANCH  15  18
ENDBRANCH  12  15
BRANCH   1  30
ATOM     30  C   UNL     1       1.228  -2.186  -0.022  0.00  0.00    +0.152 C 
BRANCH  30  35
ATOM     31  C   UNL     1      -0.017   1.378   0.010  0.00  0.00    +0.000 A 
ATOM     32  C   UNL     1       1.171   2.087   0.002  0.00  0.00    +0.003 A 
ATOM     33  C   UNL     1       2.377   1.414  -0.013  0.00  0.00    +0.038 A 
ATOM     34  C   UNL     1       2.397   0.029  -0.021  0.00  0.00    +0.128 A 
ATOM     35  C   UNL     1       1.208  -0.679  -0.013  0.00  0.00    +0.005 A 
ATOM     36  C   UNL     1       0.002  -0.004   0.002  0.00  0.00    +0.008 A 
ATOM     37  F   UNL     1       3.577  -0.630  -0.036  0.00  0.00    -0.205 F 
ENDBRANCH  30  35
ENDBRANCH   1  30
TORSDOF 6
