REMARK  Name = ZINC44538628
REMARK  3 active torsions:
REMARK  status: ('A' for Active; 'I' for Inactive)
REMARK    1  A    between atoms: C_5  and  C_6
REMARK    2  A    between atoms: C_12  and  C_14
REMARK    3  A    between atoms: C_15  and  C_16
REMARK                            x       y       z     vdW  Elec       q    Type
REMARK                         _______ _______ _______ _____ _____    ______ ____
ROOT
ATOM      1  C   UNL     1      -1.286  -0.786   0.011  0.00  0.00    +0.107 C 
ATOM      2  C   UNL     1      -1.585  -1.289   1.439  0.00  0.00    +0.029 C 
ATOM      3  C   UNL     1      -2.169  -2.705   1.194  0.00  0.00    +0.021 C 
ATOM      4  C   UNL     1      -1.336  -3.178  -0.024  0.00  0.00    +0.109 C 
ATOM      5  N   UNL     1      -1.158  -1.969  -0.854  0.00  0.00    -0.291 N 
ATOM      6  C   UNL     1      -0.919  -1.950  -2.180  0.00  0.00    +0.240 C 
ATOM      7  O   UNL     1      -0.790  -0.887  -2.761  0.00  0.00    -0.271 OA
ENDROOT
BRANCH   1  12
ATOM      8  C   UNL     1      -0.017   1.378   0.010  0.00  0.00    +0.013 A 
ATOM      9  C   UNL     1       1.160   2.051   0.002  0.00  0.00    +0.045 A 
ATOM     10  S   UNL     1       2.348   0.719  -0.017  0.00  0.00    -0.105 S 
ATOM     11  C   UNL     1       1.196  -0.645  -0.013  0.00  0.00    +0.050 A 
ATOM     12  C   UNL     1       0.002  -0.004   0.002  0.00  0.00    -0.020 A 
ENDBRANCH   1  12
BRANCH   6  13
ATOM     13  C   UNL     1      -0.820  -3.160  -2.895  0.00  0.00    +0.069 C 
ATOM     14  C   UNL     1      -0.578  -3.142  -4.235  0.00  0.00    +0.034 C 
BRANCH  14  15
ATOM     15  C   UNL     1      -0.478  -4.351  -4.949  0.00  0.00    +0.085 A 
ATOM     16  C   UNL     1       0.297  -5.448  -4.611  0.00  0.00    +0.156 A 
ATOM     17  N   UNL     1       0.113  -6.381  -5.538  0.00  0.00    -0.209 NA
ATOM     18  C   UNL     1      -0.729  -5.944  -6.441  0.00  0.00    +0.179 A 
ATOM     19  N   UNL     1      -1.151  -4.679  -6.140  0.00  0.00    -0.292 N 
ATOM     20  C   UNL     1      -2.048  -4.096  -7.004  0.00  0.00    +0.101 A 
ATOM     21  C   UNL     1      -2.481  -4.749  -8.082  0.00  0.00    +0.067 A 
ATOM     22  S   UNL     1      -1.602  -6.298  -7.950  0.00  0.00    -0.058 S 
ATOM     23 CL   UNL     1       1.328  -5.579  -3.220  0.00  0.00    -0.060 Cl
ENDBRANCH  14  15
ENDBRANCH   6  13
TORSDOF 3
