REMARK  Name = ZINC15228679
REMARK  7 active torsions:
REMARK  status: ('A' for Active; 'I' for Inactive)
REMARK    1  A    between atoms: C_4  and  C_7
REMARK    2  A    between atoms: C_22  and  C_27
REMARK    3  A    between atoms: N_29  and  C_30
REMARK    4  A    between atoms: C_30  and  C_31
REMARK    5  A    between atoms: C_31  and  S_32
REMARK    6  A    between atoms: S_32  and  C_33
REMARK    7  A    between atoms: C_33  and  C_34
REMARK                            x       y       z     vdW  Elec       q    Type
REMARK                         _______ _______ _______ _____ _____    ______ ____
ROOT
ATOM      1  C   UNL     1       2.480   5.240   0.567  0.00  0.00    +0.105 C 
ATOM      2  C   UNL     1       1.147   5.588   1.136  0.00  0.00    +0.024 C 
ATOM      3  C   UNL     1       0.811   6.949   1.741  0.00  0.00    -0.005 C 
ATOM      4  C   UNL     1      -0.177   6.503   2.886  0.00  0.00    +0.004 C 
ATOM      5  C   UNL     1      -1.341   5.852   2.100  0.00  0.00    +0.004 C 
ATOM      6  C   UNL     1      -1.103   6.181   0.601  0.00  0.00    -0.003 C 
ATOM      7  C   UNL     1      -0.255   7.537   0.737  0.00  0.00    +0.008 C 
ATOM      8  C   UNL     1       0.050   5.324   0.068  0.00  0.00    +0.029 C 
ATOM      9  C   UNL     1      -0.072   3.843   0.036  0.00  0.00    -0.022 A 
ATOM     10  C   UNL     1      -1.248   3.155   0.037  0.00  0.00    +0.018 A 
ATOM     11  C   UNL     1      -1.235   1.754   0.017  0.00  0.00    +0.037 A 
ATOM     12  C   UNL     1      -0.013   1.076   0.008  0.00  0.00    +0.015 A 
ATOM     13  C   UNL     1       1.171   1.776   0.000  0.00  0.00    +0.024 A 
ATOM     14  C   UNL     1       1.167   3.166   0.013  0.00  0.00    +0.031 A 
ATOM     15  N   UNL     1       2.361   3.881  -0.012  0.00  0.00    -0.336 N 
ATOM     16  H   UNL     1       3.142   3.475  -0.422  0.00  0.00    +0.147 HD
ENDROOT
BRANCH   1  20
ATOM     17  C   UNL     1       5.437   5.259   3.649  0.00  0.00    +0.000 A 
ATOM     18  C   UNL     1       5.347   6.323   2.771  0.00  0.00    +0.000 A 
ATOM     19  C   UNL     1       4.390   6.317   1.774  0.00  0.00    +0.005 A 
ATOM     20  C   UNL     1       3.523   5.246   1.654  0.00  0.00    -0.027 A 
ATOM     21  C   UNL     1       3.610   4.185   2.535  0.00  0.00    +0.005 A 
ATOM     22  C   UNL     1       4.570   4.189   3.530  0.00  0.00    +0.000 A 
ENDBRANCH   1  20
BRANCH  11  23
ATOM     23  C   UNL     1      -2.503   1.000   0.012  0.00  0.00    +0.244 C 
ATOM     24  O   UNL     1      -3.564   1.594   0.020  0.00  0.00    -0.270 OA
ATOM     25  N   UNL     1      -2.485  -0.347  -0.002  0.00  0.00    -0.311 N 
ATOM     26  H   UNL     1      -1.639  -0.821  -0.009  0.00  0.00    +0.149 HD
BRANCH  25  27
ATOM     27  C   UNL     1      -3.744  -1.097  -0.007  0.00  0.00    +0.115 C 
BRANCH  27  28
ATOM     28  C   UNL     1      -3.445  -2.597  -0.024  0.00  0.00    +0.088 C 
BRANCH  28  29
ATOM     29  S   UNL     1      -5.003  -3.525  -0.030  0.00  0.00    -0.151 S 
BRANCH  29  30
ATOM     30  C   UNL     1      -4.481  -5.261  -0.049  0.00  0.00    +0.143 C 
BRANCH  30  31
ATOM     31  C   UNL     1      -5.696  -6.152  -0.056  0.00  0.00    +0.115 A 
ATOM     32  C   UNL     1      -6.333  -6.606  -1.151  0.00  0.00    +0.045 A 
ATOM     33  C   UNL     1      -7.411  -7.401  -0.698  0.00  0.00    +0.041 A 
ATOM     34  C   UNL     1      -7.368  -7.385   0.647  0.00  0.00    +0.195 A 
ATOM     35  O   UNL     1      -6.324  -6.632   1.030  0.00  0.00    -0.467 OA
ENDBRANCH  30  31
ENDBRANCH  29  30
ENDBRANCH  28  29
ENDBRANCH  27  28
ENDBRANCH  25  27
ENDBRANCH  11  23
TORSDOF 7
