REMARK  Name = ZINC13607225
REMARK  6 active torsions:
REMARK  status: ('A' for Active; 'I' for Inactive)
REMARK    1  A    between atoms: C_3  and  S_27
REMARK    2  A    between atoms: C_6  and  N_7
REMARK    3  A    between atoms: C_8  and  C_10
REMARK    4  A    between atoms: C_10  and  O_11
REMARK    5  A    between atoms: O_11  and  C_12
REMARK    6  A    between atoms: S_27  and  N_30
REMARK                            x       y       z     vdW  Elec       q    Type
REMARK                         _______ _______ _______ _____ _____    ______ ____
ROOT
ATOM      1  C   UNL     1       4.786   5.155  -0.011  0.00  0.00    +0.325 C 
ENDROOT
BRANCH   1   3
ATOM      2  N   UNL     1       7.232   5.520  -0.038  0.00  0.00    -0.283 N 
ATOM      3  C   UNL     1       5.995   6.054  -0.027  0.00  0.00    +0.255 C 
ATOM      4  O   UNL     1       5.855   7.259  -0.029  0.00  0.00    -0.272 OA
ATOM      5  H   UNL     1       7.346   4.559   0.032  0.00  0.00    +0.155 HD
BRANCH   2  11
ATOM      6  C   UNL     1       9.470   5.922  -0.854  0.00  0.00    +0.025 A 
ATOM      7  C   UNL     1      10.572   6.747  -0.968  0.00  0.00    +0.030 A 
ATOM      8  C   UNL     1      10.567   7.995  -0.373  0.00  0.00    +0.105 A 
ATOM      9  C   UNL     1       9.458   8.424   0.333  0.00  0.00    +0.030 A 
ATOM     10  C   UNL     1       8.351   7.606   0.446  0.00  0.00    +0.025 A 
ATOM     11  C   UNL     1       8.352   6.351  -0.150  0.00  0.00    +0.034 A 
BRANCH   8  12
ATOM     12  S   UNL     1      11.977   9.042  -0.514  0.00  0.00    +0.056 S 
ATOM     13  O   UNL     1      12.673   8.630  -1.683  0.00  0.00    -0.153 OA
ATOM     14  O   UNL     1      11.515  10.373  -0.332  0.00  0.00    -0.153 OA
BRANCH  12  15
ATOM     15  N   UNL     1      12.968   8.704   0.769  0.00  0.00    -0.204 NA
ATOM     16  H   UNL     1      12.710   8.030   1.417  0.00  0.00    +0.144 HD
ATOM     17  H   UNL     1      13.806   9.181   0.873  0.00  0.00    +0.144 HD
ENDBRANCH  12  15
ENDBRANCH   8  12
ENDBRANCH   2  11
ENDBRANCH   1   3
BRANCH   1  18
ATOM     18  O   UNL     1       3.600   5.952  -0.001  0.00  0.00    -0.481 OA
BRANCH  18  19
ATOM     19  C   UNL     1       2.414   5.291   0.014  0.00  0.00    +0.143 A 
ATOM     20  C   UNL     1       2.399   3.906   0.019  0.00  0.00    +0.094 A 
ATOM     21  C   UNL     1       1.188   3.230   0.033  0.00  0.00    +0.143 A 
ATOM     22  C   UNL     1      -0.013   3.963   0.044  0.00  0.00    +0.023 A 
ATOM     23  C   UNL     1       0.019   5.362   0.039  0.00  0.00    +0.035 A 
ATOM     24  C   UNL     1       1.220   6.012   0.024  0.00  0.00    +0.083 A 
ATOM     25 CL   UNL     1       1.262   7.748   0.017  0.00  0.00    -0.080 Cl
ATOM     26  C   UNL     1      -1.286   3.239   0.061  0.00  0.00    -0.027 A 
ATOM     27  C   UNL     1      -1.258   1.883   0.059  0.00  0.00    +0.041 A 
ATOM     28  C   UNL     1      -0.013   1.213   0.052  0.00  0.00    +0.341 A 
ATOM     29  O   UNL     1       0.003  -0.005   0.054  0.00  0.00    -0.245 OA
ATOM     30  O   UNL     1       1.149   1.881   0.038  0.00  0.00    -0.422 OA
ATOM     31  C   UNL     1      -2.669   1.335   0.080  0.00  0.00    +0.043 C 
ATOM     32  C   UNL     1      -3.555   2.519   0.524  0.00  0.00    +0.010 C 
ATOM     33  C   UNL     1      -2.714   3.735   0.078  0.00  0.00    +0.036 C 
ENDBRANCH  18  19
ENDBRANCH   1  18
TORSDOF 6
