REMARK  Name = ZINC13511132
REMARK  9 active torsions:
REMARK  status: ('A' for Active; 'I' for Inactive)
REMARK    1  A    between atoms: C_1  and  C_2
REMARK    2  A    between atoms: C_2  and  C_3
REMARK    3  A    between atoms: C_2  and  C_4
REMARK    4  A    between atoms: C_2  and  C_5
REMARK    5  A    between atoms: C_13  and  C_25
REMARK    6  A    between atoms: C_15  and  C_21
REMARK    7  A    between atoms: C_15  and  C_23
REMARK    8  A    between atoms: C_16  and  N_20
REMARK    9  A    between atoms: C_17  and  C_18
REMARK                            x       y       z     vdW  Elec       q    Type
REMARK                         _______ _______ _______ _____ _____    ______ ____
ROOT
ATOM      1  C   UNL     1      -0.724   2.129  -0.727  0.00  0.00    -0.001 C 
ATOM      2  C   UNL     1      -0.938   0.614  -0.592  0.00  0.00    +0.031 C 
ATOM      3  C   UNL     1      -0.001  -0.067  -1.555  0.00  0.00    -0.021 C 
ATOM      4  C   UNL     1       1.179   0.452  -1.833  0.00  0.00    -0.029 C 
ATOM      5  C   UNL     1       1.712   1.702  -1.199  0.00  0.00    +0.031 C 
ATOM      6  C   UNL     1       0.719   2.446  -0.339  0.00  0.00    +0.013 C 
ATOM      7  C   UNL     1       2.299   2.586  -2.300  0.00  0.00    +0.066 C 
ATOM      8  C   UNL     1       3.477   1.856  -2.946  0.00  0.00    +0.188 C 
ATOM      9  C   UNL     1       3.111   0.458  -3.346  0.00  0.00    +0.054 C 
ATOM     10  C   UNL     1       2.053  -0.218  -2.832  0.00  0.00    +0.074 C 
ENDROOT
BRANCH   7  11
ATOM     11  C   UNL     1       2.776   3.885  -1.704  0.00  0.00    -0.041 A 
ATOM     12  C   UNL     1       3.498   3.881  -0.525  0.00  0.00    +0.004 A 
ATOM     13  C   UNL     1       3.940   5.072   0.020  0.00  0.00    +0.000 A 
ATOM     14  C   UNL     1       3.651   6.269  -0.609  0.00  0.00    +0.000 A 
ATOM     15  C   UNL     1       2.925   6.274  -1.786  0.00  0.00    +0.000 A 
ATOM     16  C   UNL     1       2.488   5.082  -2.333  0.00  0.00    +0.004 A 
ENDBRANCH   7  11
BRANCH   1  18
ATOM     17  C   UNL     1      -1.417   2.446   1.653  0.00  0.00    +0.011 C 
ATOM     18  C   UNL     1      -1.683   2.870   0.207  0.00  0.00    -0.035 C 
ATOM     19  C   UNL     1      -1.466   4.378   0.069  0.00  0.00    +0.011 C 
ATOM     20  C   UNL     1      -3.127   2.526  -0.168  0.00  0.00    +0.011 C 
ENDBRANCH   1  18
BRANCH   9  21
ATOM     21  N   UNL     1       3.886  -0.169  -4.281  0.00  0.00    -0.358 N 
ATOM     22  H   UNL     1       3.645  -1.195  -4.596  0.00  0.00    +0.142 HD
ATOM     23  H   UNL     1       4.751   0.352  -4.718  0.00  0.00    +0.142 HD
ENDBRANCH   9  21
BRANCH  10  24
ATOM     24  C   UNL     1       1.782  -1.562  -3.247  0.00  0.00    +0.101 C 
ATOM     25  N   UNL     1       1.566  -2.627  -3.576  0.00  0.00    -0.191 NA
ENDBRANCH  10  24
BRANCH   8  26
ATOM     26  C   UNL     1       4.593   1.804  -1.988  0.00  0.00    +0.091 C 
ATOM     27  N   UNL     1       5.455   1.764  -1.248  0.00  0.00    -0.194 NA
ENDBRANCH   8  26
BRANCH   8  28
ATOM     28  C   UNL     1       3.905   2.601  -4.141  0.00  0.00    +0.091 C 
ATOM     29  N   UNL     1       4.235   3.175  -5.064  0.00  0.00    -0.194 NA
ENDBRANCH   8  28
TORSDOF 6
