REMARK  Name = ZINC38546130
REMARK  8 active torsions:
REMARK  status: ('A' for Active; 'I' for Inactive)
REMARK    1  A    between atoms: C_1  and  C_2
REMARK    2  A    between atoms: C_2  and  O_3
REMARK    3  A    between atoms: O_3  and  C_4
REMARK    4  A    between atoms: C_7  and  C_10
REMARK    5  A    between atoms: C_10  and  C_12
REMARK    6  A    between atoms: C_10  and  N_29
REMARK    7  A    between atoms: C_16  and  N_17
REMARK    8  A    between atoms: C_18  and  C_20
REMARK                            x       y       z     vdW  Elec       q    Type
REMARK                         _______ _______ _______ _____ _____    ______ ____
ROOT
ATOM      1  C   UNL     1       2.419  -6.520   1.240  0.00  0.00    -0.025 A 
ATOM      2  C   UNL     1       2.512  -7.071  -0.038  0.00  0.00    -0.033 A 
ATOM      3  C   UNL     1       3.754  -7.436  -0.455  0.00  0.00    -0.005 A 
ATOM      4  S   UNL     1       4.802  -7.022   0.913  0.00  0.00    -0.078 S 
ATOM      5  C   UNL     1       3.540  -6.369   1.995  0.00  0.00    +0.074 A 
ATOM      6  C   UNL     1       4.132  -8.046  -1.766  0.00  0.00    +0.043 C 
ATOM      7  C   UNL     1       2.852  -8.546  -2.454  0.00  0.00    +0.005 C 
ATOM      8  C   UNL     1       1.796  -7.438  -2.389  0.00  0.00    +0.005 C 
ATOM      9  C   UNL     1       1.305  -7.267  -0.951  0.00  0.00    +0.036 C 
ENDROOT
BRANCH   5  10
ATOM     10  N   UNL     1       3.670  -5.842   3.282  0.00  0.00    -0.273 N 
ATOM     11  C   UNL     1       4.861  -5.888   3.912  0.00  0.00    +0.284 C 
ATOM     12  O   UNL     1       5.823  -6.389   3.359  0.00  0.00    -0.266 OA
ATOM     13  H   UNL     1       2.903  -5.443   3.723  0.00  0.00    +0.156 HD
BRANCH  11  14
ATOM     14  C   UNL     1       4.997  -5.336   5.263  0.00  0.00    +0.189 A 
ATOM     15  C   UNL     1       6.141  -5.312   6.009  0.00  0.00    +0.054 A 
ATOM     16  C   UNL     1       5.816  -4.695   7.227  0.00  0.00    +0.042 A 
ATOM     17  C   UNL     1       4.505  -4.372   7.172  0.00  0.00    +0.196 A 
ATOM     18  O   UNL     1       4.016  -4.755   5.985  0.00  0.00    -0.458 OA
ENDBRANCH  11  14
ENDBRANCH   5  10
BRANCH   1  19
ATOM     19  C   UNL     1       1.081  -6.088   1.781  0.00  0.00    -0.004 C 
BRANCH  19  20
ATOM     20  N   UNL     1       0.913  -6.606   3.145  0.00  0.00    +0.387 N 
ATOM     21  C   UNL     1       1.089  -8.063   3.139  0.00  0.00    -0.078 C 
ATOM     22  C   UNL     1       0.997  -8.598   4.570  0.00  0.00    -0.019 C 
ATOM     23  C   UNL     1      -0.377  -8.251   5.150  0.00  0.00    -0.004 C 
ATOM     24  C   UNL     1      -0.581  -6.734   5.083  0.00  0.00    -0.019 C 
ATOM     25  C   UNL     1      -0.429  -6.268   3.634  0.00  0.00    -0.078 C 
ATOM     26  H   UNL     1       1.605  -6.188   3.750  0.00  0.00    -0.080 HD
ENDBRANCH  19  20
BRANCH  19  30
ATOM     27  C   UNL     1       0.879  -1.819   1.843  0.00  0.00    +0.121 A 
ATOM     28  C   UNL     1       0.587  -2.512   0.677  0.00  0.00    +0.046 A 
ATOM     29  C   UNL     1       0.653  -3.892   0.659  0.00  0.00    +0.006 A 
ATOM     30  C   UNL     1       1.010  -4.582   1.803  0.00  0.00    -0.056 A 
ATOM     31  C   UNL     1       1.301  -3.894   2.966  0.00  0.00    +0.006 A 
ATOM     32  C   UNL     1       1.243  -2.514   2.987  0.00  0.00    +0.046 A 
BRANCH  27  33
ATOM     33  O   UNL     1       0.816  -0.462   1.863  0.00  0.00    -0.492 OA
BRANCH  33  35
ATOM     34  C   UNL     1       0.419   1.702   0.863  0.00  0.00    +0.048 C 
ATOM     35  C   UNL     1       0.435   0.187   0.648  0.00  0.00    +0.225 C 
ENDBRANCH  33  35
ENDBRANCH  27  33
ENDBRANCH  19  30
ENDBRANCH   1  19
TORSDOF 7
