REMARK  Name = ZINC64173208
REMARK  10 active torsions:
REMARK  status: ('A' for Active; 'I' for Inactive)
REMARK    1  A    between atoms: C_1  and  C_2
REMARK    2  A    between atoms: C_2  and  C_3
REMARK    3  A    between atoms: C_3  and  C_5
REMARK    4  A    between atoms: C_3  and  C_6
REMARK    5  A    between atoms: C_6  and  C_7
REMARK    6  A    between atoms: C_11  and  C_15
REMARK    7  A    between atoms: C_15  and  N_16
REMARK    8  A    between atoms: N_19  and  C_22
REMARK    9  A    between atoms: C_22  and  C_23
REMARK   10  A    between atoms: C_33  and  C_35
REMARK                            x       y       z     vdW  Elec       q    Type
REMARK                         _______ _______ _______ _____ _____    ______ ____
ROOT
ATOM      1  C   UNL     1      -6.035  -4.418  -3.933  0.00  0.00    +0.158 C 
ENDROOT
BRANCH   1   6
ATOM      2  C   UNL     1      -2.824  -2.571   0.265  0.00  0.00    -0.042 C 
ATOM      3  C   UNL     1      -3.513  -2.994  -0.806  0.00  0.00    +0.071 C 
ATOM      4  C   UNL     1      -4.892  -3.481  -0.586  0.00  0.00    +0.112 C 
ATOM      5  N   UNL     1      -5.617  -3.907  -1.593  0.00  0.00    -0.226 NA
ATOM      6  C   UNL     1      -5.142  -3.915  -2.829  0.00  0.00    +0.138 C 
ATOM      7  N   UNL     1      -3.936  -3.507  -3.143  0.00  0.00    -0.160 NA
ATOM      8  C   UNL     1      -3.070  -3.044  -2.236  0.00  0.00    +0.271 C 
ATOM      9  O   UNL     1      -1.955  -2.673  -2.562  0.00  0.00    -0.268 OA
ATOM     10  S   UNL     1      -5.156  -3.315   1.161  0.00  0.00    -0.098 S 
ATOM     11  C   UNL     1      -3.509  -2.631   1.611  0.00  0.00    +0.076 C 
ATOM     12  C   UNL     1      -2.765  -3.570   2.563  0.00  0.00    +0.024 C 
BRANCH   2  13
ATOM     13  C   UNL     1      -1.413  -2.059   0.130  0.00  0.00    +0.036 C 
BRANCH  13  14
ATOM     14  C   UNL     1      -1.433  -0.534   0.013  0.00  0.00    -0.010 C 
ATOM     15  C   UNL     1      -2.135  -0.131  -1.286  0.00  0.00    +0.008 C 
BRANCH  14  17
ATOM     16  C   UNL     1      -0.019   1.526   0.010  0.00  0.00    +0.004 C 
ATOM     17  C   UNL     1       0.002  -0.004   0.002  0.00  0.00    +0.000 C 
ENDBRANCH  14  17
ENDBRANCH  13  14
ENDBRANCH   2  13
ENDBRANCH   1   6
BRANCH   1  18
ATOM     18  N   UNL     1      -5.320  -4.342  -5.214  0.00  0.00    -0.293 NA
ATOM     19  C   UNL     1      -4.182  -5.271  -5.238  0.00  0.00    +0.100 C 
ATOM     20  C   UNL     1      -3.418  -5.105  -6.554  0.00  0.00    +0.100 C 
ATOM     21  N   UNL     1      -4.327  -5.361  -7.680  0.00  0.00    -0.294 NA
ATOM     22  C   UNL     1      -5.465  -4.432  -7.657  0.00  0.00    +0.100 C 
ATOM     23  C   UNL     1      -6.229  -4.598  -6.341  0.00  0.00    +0.100 C 
BRANCH  21  24
ATOM     24  C   UNL     1      -3.611  -5.285  -8.961  0.00  0.00    +0.139 C 
BRANCH  24  25
ATOM     25  C   UNL     1      -4.504  -5.789 -10.066  0.00  0.00    +0.048 A 
ATOM     26  C   UNL     1      -4.524  -7.050 -10.550  0.00  0.00    +0.115 A 
ATOM     27  N   UNL     1      -5.471  -7.089 -11.537  0.00  0.00    -0.308 N 
ATOM     28  C   UNL     1      -5.910  -8.089 -12.356  0.00  0.00    +0.092 A 
ATOM     29  C   UNL     1      -6.879  -7.856 -13.266  0.00  0.00    +0.018 A 
ATOM     30  C   UNL     1      -7.449  -6.577 -13.383  0.00  0.00    +0.005 A 
ATOM     31  C   UNL     1      -7.020  -5.572 -12.573  0.00  0.00    +0.045 A 
ATOM     32  C   UNL     1      -6.008  -5.831 -11.627  0.00  0.00    +0.115 A 
ATOM     33  N   UNL     1      -5.412  -5.064 -10.725  0.00  0.00    -0.342 N 
ATOM     34  H   UNL     1      -5.603  -4.126 -10.570  0.00  0.00    +0.167 HD
ENDBRANCH  24  25
ENDBRANCH  21  24
ENDBRANCH   1  18
TORSDOF 7
