REMARK  Name = ZINC14843995
REMARK  6 active torsions:
REMARK  status: ('A' for Active; 'I' for Inactive)
REMARK    1  A    between atoms: C_9  and  C_11
REMARK    2  A    between atoms: N_13  and  N_14
REMARK    3  A    between atoms: N_14  and  C_15
REMARK    4  A    between atoms: C_15  and  N_17
REMARK    5  A    between atoms: N_17  and  C_18
REMARK    6  A    between atoms: C_18  and  C_19
REMARK                            x       y       z     vdW  Elec       q    Type
REMARK                         _______ _______ _______ _____ _____    ______ ____
ROOT
ATOM      1  C   UNL     1      -0.486   4.614   6.647  0.00  0.00    +0.295 C 
ATOM      2  O   UNL     1      -1.245   4.892   7.557  0.00  0.00    -0.265 OA
ATOM      3  N   UNL     1      -0.978   4.235   5.451  0.00  0.00    -0.229 N 
ATOM      4  H   UNL     1      -0.373   4.014   4.726  0.00  0.00    +0.173 HD
ENDROOT
BRANCH   1  13
ATOM      5  C   UNL     1       5.524   4.676   6.646  0.00  0.00    +0.023 A 
ATOM      6  C   UNL     1       4.412   4.422   5.873  0.00  0.00    +0.048 A 
ATOM      7  C   UNL     1       3.141   4.579   6.414  0.00  0.00    +0.136 A 
ATOM      8  C   UNL     1       3.012   4.997   7.752  0.00  0.00    +0.022 A 
ATOM      9  C   UNL     1       4.151   5.249   8.520  0.00  0.00    +0.031 A 
ATOM     10  C   UNL     1       5.391   5.088   7.966  0.00  0.00    +0.042 A 
ATOM     11 CL   UNL     1       6.808   5.401   8.918  0.00  0.00    -0.084 Cl
ATOM     12  C   UNL     1       1.574   5.063   8.010  0.00  0.00    +0.063 A 
ATOM     13  C   UNL     1       0.967   4.694   6.852  0.00  0.00    +0.192 A 
ATOM     14  O   UNL     1       1.899   4.405   5.920  0.00  0.00    -0.450 OA
ENDBRANCH   1  13
BRANCH   3  15
ATOM     15  N   UNL     1      -2.364   4.159   5.256  0.00  0.00    -0.246 N 
ATOM     16  H   UNL     1      -2.969   4.380   5.981  0.00  0.00    +0.172 HD
BRANCH  15  17
ATOM     17  C   UNL     1      -2.856   3.780   4.060  0.00  0.00    +0.147 C 
ATOM     18  S   UNL     1      -4.548   3.687   3.821  0.00  0.00    -0.017 S 
BRANCH  17  19
ATOM     19  N   UNL     1      -2.015   3.472   3.052  0.00  0.00    -0.323 N 
ATOM     20  H   UNL     1      -1.056   3.525   3.188  0.00  0.00    +0.148 HD
BRANCH  19  21
ATOM     21  C   UNL     1      -2.550   3.059   1.752  0.00  0.00    +0.134 C 
BRANCH  21  22
ATOM     22  C   UNL     1      -1.394   2.771   0.793  0.00  0.00    +0.135 C 
ATOM     23  C   UNL     1      -1.928   2.453  -0.626  0.00  0.00    +0.035 C 
ATOM     24  C   UNL     1      -0.778   1.606  -1.224  0.00  0.00    +0.031 C 
ATOM     25  C   UNL     1      -0.013   1.086   0.008  0.00  0.00    +0.160 C 
ATOM     26  O   UNL     1      -0.705   1.559   1.176  0.00  0.00    -0.375 OA
ENDBRANCH  21  22
ENDBRANCH  19  21
ENDBRANCH  17  19
ENDBRANCH  15  17
ENDBRANCH   3  15
TORSDOF 6
