REMARK  Name = ZINC04100065
REMARK  3 active torsions:
REMARK  status: ('A' for Active; 'I' for Inactive)
REMARK    1  A    between atoms: C_2  and  N_8
REMARK    2  A    between atoms: C_9  and  C_11
REMARK    3  A    between atoms: N_12  and  C_13
REMARK                            x       y       z     vdW  Elec       q    Type
REMARK                         _______ _______ _______ _____ _____    ______ ____
ROOT
ATOM      1  N   UNL     1       1.079   3.347   0.236  0.00  0.00    -0.230 NA
ATOM      2  C   UNL     1       1.781   4.100   1.048  0.00  0.00    +0.157 C 
ATOM      3  N   UNL     1       2.508   3.523   2.069  0.00  0.00    -0.340 N 
ATOM      4  H   UNL     1       2.590   2.558   2.120  0.00  0.00    +0.144 HD
ATOM      5  H   UNL     1       2.937   4.082   2.736  0.00  0.00    +0.144 HD
ENDROOT
BRANCH   1   7
ATOM      6  C   UNL     1       0.494   1.536   1.691  0.00  0.00    +0.029 A 
ATOM      7  C   UNL     1       0.978   2.005   0.466  0.00  0.00    +0.066 A 
ATOM      8  C   UNL     1       1.358   1.093  -0.523  0.00  0.00    +0.029 A 
ATOM      9  C   UNL     1       1.252  -0.261  -0.285  0.00  0.00    +0.017 A 
ATOM     10  C   UNL     1       0.772  -0.719   0.931  0.00  0.00    +0.018 A 
ATOM     11  C   UNL     1       0.394   0.179   1.915  0.00  0.00    +0.017 A 
ATOM     12 BR   UNL     1       0.630  -2.577   1.248  0.00  0.00    -0.050 Br
ENDBRANCH   1   7
BRANCH   2  13
ATOM     13  C   UNL     1       1.793   5.566   0.871  0.00  0.00    +0.157 C 
ATOM     14  N   UNL     1       2.495   6.318   1.683  0.00  0.00    -0.230 NA
ATOM     15  N   UNL     1       1.066   6.143  -0.150  0.00  0.00    -0.340 N 
ATOM     16  H   UNL     1       0.459   5.602  -0.679  0.00  0.00    +0.144 HD
ATOM     17  H   UNL     1       1.163   7.090  -0.339  0.00  0.00    +0.144 HD
BRANCH  14  18
ATOM     18  C   UNL     1       2.408   7.679   1.600  0.00  0.00    +0.066 A 
ATOM     19  C   UNL     1       1.162   8.308   1.675  0.00  0.00    +0.029 A 
ATOM     20  C   UNL     1       1.081   9.682   1.591  0.00  0.00    +0.017 A 
ATOM     21  C   UNL     1       2.230  10.438   1.431  0.00  0.00    +0.018 A 
ATOM     22  C   UNL     1       3.467   9.822   1.355  0.00  0.00    +0.017 A 
ATOM     23  C   UNL     1       3.564   8.449   1.445  0.00  0.00    +0.029 A 
ATOM     24 BR   UNL     1       2.108  12.322   1.315  0.00  0.00    -0.050 Br
ENDBRANCH  14  18
ENDBRANCH   2  13
TORSDOF 3
