REMARK  Name = ZINC35192187
REMARK  9 active torsions:
REMARK  status: ('A' for Active; 'I' for Inactive)
REMARK    1  A    between atoms: C_1  and  C_2
REMARK    2  A    between atoms: C_7  and  C_8
REMARK    3  A    between atoms: C_11  and  C_23
REMARK    4  A    between atoms: C_15  and  C_17
REMARK    5  A    between atoms: N_25  and  C_26
REMARK    6  A    between atoms: C_26  and  C_27
REMARK    7  A    between atoms: C_27  and  C_28
REMARK    8  A    between atoms: C_28  and  C_29
REMARK    9  A    between atoms: C_28  and  C_35
REMARK                            x       y       z     vdW  Elec       q    Type
REMARK                         _______ _______ _______ _____ _____    ______ ____
ROOT
ATOM      1  C   UNL     1       0.272   0.464   0.246  0.00  0.00    +0.248 C 
ATOM      2  O   UNL     1       0.396  -0.494  -0.492  0.00  0.00    -0.270 OA
ATOM      3  N   UNL     1      -0.370   0.329   1.423  0.00  0.00    -0.273 N 
ATOM      4  C   UNL     1      -0.827  -0.970   1.911  0.00  0.00    +0.173 C 
ATOM      5  C   UNL     1      -2.121  -0.817   2.763  0.00  0.00    +0.103 C 
ATOM      6  S   UNL     1      -1.687   0.755   3.635  0.00  0.00    -0.136 S 
ATOM      7  C   UNL     1      -0.648   1.484   2.298  0.00  0.00    +0.138 C 
ENDROOT
BRANCH   1  14
ATOM      8  C   UNL     1       3.058   0.675  -0.505  0.00  0.00    +0.044 C 
ATOM      9  C   UNL     1       2.168   1.891  -0.512  0.00  0.00    -0.038 A 
ATOM     10  C   UNL     1       2.677   3.118  -0.885  0.00  0.00    +0.004 A 
ATOM     11  C   UNL     1       1.861   4.235  -0.892  0.00  0.00    +0.000 A 
ATOM     12  C   UNL     1       0.530   4.130  -0.526  0.00  0.00    +0.001 A 
ATOM     13  C   UNL     1       0.009   2.909  -0.153  0.00  0.00    +0.013 A 
ATOM     14  C   UNL     1       0.826   1.777  -0.148  0.00  0.00    +0.040 A 
ENDBRANCH   1  14
BRANCH   7  15
ATOM     15  C   UNL     1       0.651   2.054   2.870  0.00  0.00    +0.020 C 
ATOM     16  C   UNL     1       1.426   0.943   3.581  0.00  0.00    +0.006 C 
ATOM     17  C   UNL     1       2.726   1.513   4.153  0.00  0.00    +0.000 C 
ATOM     18  C   UNL     1       2.399   2.627   5.150  0.00  0.00    +0.000 C 
ATOM     19  C   UNL     1       1.624   3.738   4.439  0.00  0.00    +0.000 C 
ATOM     20  C   UNL     1       0.325   3.167   3.867  0.00  0.00    +0.006 C 
ENDBRANCH   7  15
BRANCH   4  21
ATOM     21  C   UNL     1      -1.112  -1.868   0.735  0.00  0.00    +0.234 C 
ATOM     22  O   UNL     1      -1.517  -1.395  -0.306  0.00  0.00    -0.274 OA
ATOM     23  N   UNL     1      -0.917  -3.198   0.841  0.00  0.00    -0.314 N 
ATOM     24  H   UNL     1      -0.668  -3.585   1.694  0.00  0.00    +0.149 HD
BRANCH  23  25
ATOM     25  C   UNL     1      -1.082  -4.058  -0.334  0.00  0.00    +0.105 C 
BRANCH  25  26
ATOM     26  C   UNL     1      -0.924  -5.522   0.080  0.00  0.00    +0.031 C 
BRANCH  26  27
ATOM     27  C   UNL     1      -1.095  -6.420  -1.147  0.00  0.00    +0.050 C 
BRANCH  27  28
ATOM     28  C   UNL     1       0.023  -6.158  -2.122  0.00  0.00    -0.040 A 
ATOM     29  C   UNL     1      -0.265  -5.857  -3.440  0.00  0.00    +0.004 A 
ATOM     30  C   UNL     1       0.761  -5.617  -4.335  0.00  0.00    +0.000 A 
ATOM     31  C   UNL     1       2.076  -5.677  -3.911  0.00  0.00    +0.000 A 
ATOM     32  C   UNL     1       2.364  -5.977  -2.592  0.00  0.00    +0.000 A 
ATOM     33  C   UNL     1       1.337  -6.213  -1.697  0.00  0.00    +0.004 A 
ENDBRANCH  27  28
BRANCH  27  34
ATOM     34  C   UNL     1      -1.062  -7.865  -0.720  0.00  0.00    -0.040 A 
ATOM     35  C   UNL     1      -0.005  -8.339   0.034  0.00  0.00    +0.004 A 
ATOM     36  C   UNL     1       0.026  -9.664   0.425  0.00  0.00    +0.000 A 
ATOM     37  C   UNL     1      -1.000 -10.516   0.062  0.00  0.00    +0.000 A 
ATOM     38  C   UNL     1      -2.058 -10.042  -0.691  0.00  0.00    +0.000 A 
ATOM     39  C   UNL     1      -2.091  -8.716  -1.079  0.00  0.00    +0.004 A 
ENDBRANCH  27  34
ENDBRANCH  26  27
ENDBRANCH  25  26
ENDBRANCH  23  25
ENDBRANCH   4  21
TORSDOF 8
