REMARK  Name = ZINC02252250
REMARK  6 active torsions:
REMARK  status: ('A' for Active; 'I' for Inactive)
REMARK    1  A    between atoms: C_7  and  C_11
REMARK    2  A    between atoms: C_11  and  C_12
REMARK    3  A    between atoms: C_12  and  N_13
REMARK    4  A    between atoms: C_14  and  C_16
REMARK    5  A    between atoms: C_16  and  C_28
REMARK    6  A    between atoms: C_17  and  C_18
REMARK                            x       y       z     vdW  Elec       q    Type
REMARK                         _______ _______ _______ _____ _____    ______ ____
ROOT
ATOM      1  N   UNL     1      -3.831   7.292   0.393  0.00  0.00    -0.310 N 
ATOM      2  C   UNL     1      -3.813   5.949   0.284  0.00  0.00    +0.254 C 
ATOM      3  O   UNL     1      -4.857   5.325   0.290  0.00  0.00    -0.269 OA
ATOM      4  H   UNL     1      -2.998   7.790   0.388  0.00  0.00    +0.149 HD
ENDROOT
BRANCH   2   5
ATOM      5  C   UNL     1      -2.531   5.238   0.158  0.00  0.00    +0.114 C 
ATOM      6  C   UNL     1      -2.513   3.865   0.046  0.00  0.00    +0.033 C 
BRANCH   6   7
ATOM      7  C   UNL     1      -1.239   3.145   0.069  0.00  0.00    -0.006 A 
ATOM      8  C   UNL     1      -0.171   3.627   0.841  0.00  0.00    +0.058 A 
ATOM      9  C   UNL     1       1.027   2.945   0.858  0.00  0.00    +0.167 A 
ATOM     10  C   UNL     1       1.178   1.776   0.107  0.00  0.00    +0.167 A 
ATOM     11  C   UNL     1       0.122   1.297  -0.658  0.00  0.00    +0.065 A 
ATOM     12  C   UNL     1      -1.078   1.974  -0.686  0.00  0.00    +0.029 A 
ATOM     13 BR   UNL     1      -2.508   1.320  -1.736  0.00  0.00    -0.050 Br
ATOM     14  O   UNL     1       2.442   1.300   0.294  0.00  0.00    -0.453 OA
ATOM     15  C   UNL     1       2.929   1.955   1.480  0.00  0.00    +0.466 C 
ATOM     16  O   UNL     1       2.199   3.196   1.512  0.00  0.00    -0.453 OA
ENDBRANCH   6   7
BRANCH   5  17
ATOM     17  C   UNL     1      -1.302   5.973   0.150  0.00  0.00    +0.104 C 
ATOM     18  N   UNL     1      -0.328   6.557   0.144  0.00  0.00    -0.191 NA
ENDBRANCH   5  17
ENDBRANCH   2   5
BRANCH   1  19
ATOM     19  C   UNL     1      -5.107   8.000   0.519  0.00  0.00    +0.109 C 
BRANCH  19  20
ATOM     20  C   UNL     1      -4.848   9.504   0.626  0.00  0.00    +0.056 C 
BRANCH  20  27
ATOM     21  C   UNL     1      -7.604  10.521   4.279  0.00  0.00    +0.001 A 
ATOM     22  C   UNL     1      -8.744  11.226   3.917  0.00  0.00    +0.002 A 
ATOM     23  C   UNL     1      -8.976  11.558   2.600  0.00  0.00    +0.026 A 
ATOM     24  C   UNL     1      -8.060  11.184   1.622  0.00  0.00    +0.047 A 
ATOM     25  C   UNL     1      -6.907  10.470   1.994  0.00  0.00    +0.003 A 
ATOM     26  C   UNL     1      -6.691  10.144   3.335  0.00  0.00    +0.010 A 
ATOM     27  C   UNL     1      -6.161  10.233   0.756  0.00  0.00    -0.021 A 
ATOM     28  C   UNL     1      -6.865  10.792  -0.240  0.00  0.00    +0.087 A 
ATOM     29  N   UNL     1      -8.006  11.360   0.257  0.00  0.00    -0.360 N 
ATOM     30  H   UNL     1      -8.675  11.822  -0.272  0.00  0.00    +0.165 HD
ENDBRANCH  20  27
ENDBRANCH  19  20
ENDBRANCH   1  19
TORSDOF 6
