REMARK  Name = ZINC10843555
REMARK  8 active torsions:
REMARK  status: ('A' for Active; 'I' for Inactive)
REMARK    1  A    between atoms: C_1  and  C_2
REMARK    2  A    between atoms: C_2  and  C_3
REMARK    3  A    between atoms: C_2  and  C_4
REMARK    4  A    between atoms: C_4  and  C_5
REMARK    5  A    between atoms: C_4  and  C_6
REMARK    6  A    between atoms: C_4  and  N_8
REMARK    7  A    between atoms: C_9  and  C_11
REMARK    8  A    between atoms: C_11  and  N_12
REMARK                            x       y       z     vdW  Elec       q    Type
REMARK                         _______ _______ _______ _____ _____    ______ ____
ROOT
ATOM      1  N   UNL     1       4.051  -0.111  -2.677  0.00  0.00    -0.225 N 
ATOM      2  C   UNL     1       4.428   1.054  -3.234  0.00  0.00    +0.256 C 
ATOM      3  O   UNL     1       3.695   1.839  -3.800  0.00  0.00    -0.269 OA
ATOM      4  C   UNL     1       5.883   1.219  -3.041  0.00  0.00    +0.071 A 
ATOM      5  C   UNL     1       6.312   0.069  -2.345  0.00  0.00    +0.071 A 
ATOM      6  C   UNL     1       7.651  -0.078  -2.014  0.00  0.00    +0.074 A 
ATOM      7  C   UNL     1       8.561   0.911  -2.370  0.00  0.00    +0.080 A 
ATOM      8  C   UNL     1       8.139   2.038  -3.051  0.00  0.00    +0.080 A 
ATOM      9  C   UNL     1       6.801   2.198  -3.389  0.00  0.00    +0.074 A 
ATOM     10 CL   UNL     1       6.280   3.616  -4.243  0.00  0.00    -0.081 Cl
ATOM     11 CL   UNL     1       9.290   3.262  -3.487  0.00  0.00    -0.080 Cl
ATOM     12 CL   UNL     1      10.237   0.729  -1.956  0.00  0.00    -0.080 Cl
ATOM     13 CL   UNL     1       8.188  -1.489  -1.158  0.00  0.00    -0.081 Cl
ATOM     14  C   UNL     1       5.103  -0.752  -2.136  0.00  0.00    +0.256 C 
ATOM     15  O   UNL     1       5.064  -1.826  -1.570  0.00  0.00    -0.269 OA
ENDROOT
BRANCH   1  16
ATOM     16  C   UNL     1       2.677  -0.618  -2.667  0.00  0.00    +0.212 C 
BRANCH  16  18
ATOM     17  N   UNL     1       0.688  -0.476  -1.203  0.00  0.00    -0.296 N 
ATOM     18  C   UNL     1       1.972  -0.132  -1.427  0.00  0.00    +0.232 C 
ATOM     19  O   UNL     1       2.559   0.569  -0.630  0.00  0.00    -0.274 OA
ATOM     20  H   UNL     1       0.218  -1.037  -1.840  0.00  0.00    +0.150 HD
BRANCH  17  21
ATOM     21  C   UNL     1       0.002  -0.004   0.002  0.00  0.00    +0.121 C 
ATOM     22  C   UNL     1      -0.019   1.526   0.010  0.00  0.00    +0.048 C 
BRANCH  21  24
ATOM     23  C   UNL     1      -2.110  -0.145   1.329  0.00  0.00    +0.010 C 
ATOM     24  C   UNL     1      -1.433  -0.534   0.013  0.00  0.00    +0.020 C 
ATOM     25  C   UNL     1      -2.209   0.072  -1.158  0.00  0.00    +0.010 C 
ENDBRANCH  21  24
BRANCH  21  26
ATOM     26  C   UNL     1       0.714  -0.492   1.195  0.00  0.00    +0.088 C 
ATOM     27  N   UNL     1       1.263  -0.868   2.115  0.00  0.00    -0.194 NA
ENDBRANCH  21  26
ENDBRANCH  17  21
ENDBRANCH  16  18
ENDBRANCH   1  16
TORSDOF 5
