REMARK  Name = ZINC14476358
REMARK  5 active torsions:
REMARK  status: ('A' for Active; 'I' for Inactive)
REMARK    1  A    between atoms: C_4  and  C_7
REMARK    2  A    between atoms: C_7  and  O_8
REMARK    3  A    between atoms: O_8  and  C_9
REMARK    4  A    between atoms: C_14  and  C_15
REMARK    5  A    between atoms: C_26  and  C_31
REMARK                            x       y       z     vdW  Elec       q    Type
REMARK                         _______ _______ _______ _____ _____    ______ ____
ROOT
ATOM      1  C   UNL     1      -2.557   3.865   0.047  0.00  0.00    +0.108 C 
ATOM      2  C   UNL     1      -2.930   4.217   1.489  0.00  0.00    +0.029 C 
ATOM      3  C   UNL     1      -1.660   4.813   2.164  0.00  0.00    +0.033 C 
ATOM      4  C   UNL     1      -0.873   3.585   2.578  0.00  0.00    -0.030 C 
ATOM      5  C   UNL     1      -1.663   2.543   2.668  0.00  0.00    -0.023 C 
ATOM      6  C   UNL     1      -3.081   2.930   2.322  0.00  0.00    +0.049 C 
ATOM      7  C   UNL     1      -3.779   1.834   1.581  0.00  0.00    -0.018 A 
ATOM      8  C   UNL     1      -4.198   0.720   2.288  0.00  0.00    +0.025 A 
ATOM      9  C   UNL     1      -4.853  -0.326   1.636  0.00  0.00    +0.052 A 
ATOM     10  C   UNL     1      -5.090  -0.251   0.260  0.00  0.00    +0.020 A 
ATOM     11  C   UNL     1      -4.673   0.857  -0.442  0.00  0.00    +0.024 A 
ATOM     12  C   UNL     1      -4.020   1.897   0.214  0.00  0.00    +0.031 A 
ATOM     13  N   UNL     1      -3.604   3.008  -0.519  0.00  0.00    -0.336 N 
ATOM     14  H   UNL     1      -3.998   3.209  -1.382  0.00  0.00    +0.147 HD
ENDROOT
BRANCH   1  20
ATOM     15  C   UNL     1      -0.054   3.837  -0.100  0.00  0.00    +0.126 A 
ATOM     16  C   UNL     1       1.156   3.159  -0.114  0.00  0.00    +0.046 A 
ATOM     17  C   UNL     1       1.176   1.782   0.001  0.00  0.00    +0.004 A 
ATOM     18  C   UNL     1      -0.009   1.081   0.130  0.00  0.00    +0.001 A 
ATOM     19  C   UNL     1      -1.216   1.754   0.139  0.00  0.00    +0.009 A 
ATOM     20  C   UNL     1      -1.241   3.131   0.031  0.00  0.00    +0.015 A 
BRANCH  15  21
ATOM     21  O   UNL     1      -0.077   5.191  -0.212  0.00  0.00    -0.487 OA
BRANCH  21  22
ATOM     22  C   UNL     1       1.183   5.852  -0.342  0.00  0.00    +0.264 C 
BRANCH  22  26
ATOM     23  C   UNL     1       0.555  10.066  -0.659  0.00  0.00    +0.000 A 
ATOM     24  C   UNL     1       0.727   9.484   0.583  0.00  0.00    +0.000 A 
ATOM     25  C   UNL     1       0.930   8.121   0.685  0.00  0.00    +0.007 A 
ATOM     26  C   UNL     1       0.962   7.339  -0.454  0.00  0.00    -0.010 A 
ATOM     27  C   UNL     1       0.795   7.921  -1.697  0.00  0.00    +0.007 A 
ATOM     28  C   UNL     1       0.587   9.284  -1.799  0.00  0.00    +0.000 A 
ENDBRANCH  22  26
ENDBRANCH  21  22
ENDBRANCH  15  21
ENDBRANCH   1  20
BRANCH   9  29
ATOM     29  C   UNL     1      -5.282  -1.474   2.376  0.00  0.00    +0.099 C 
ATOM     30  N   UNL     1      -5.623  -2.385   2.963  0.00  0.00    -0.191 NA
ENDBRANCH   9  29
TORSDOF 5
