REMARK  Name = ZINC00574748
REMARK  4 active torsions:
REMARK  status: ('A' for Active; 'I' for Inactive)
REMARK    1  A    between atoms: C_1  and  C_2
REMARK    2  A    between atoms: C_4  and  C_9
REMARK    3  A    between atoms: C_5  and  C_8
REMARK    4  A    between atoms: N_17  and  C_20
REMARK                            x       y       z     vdW  Elec       q    Type
REMARK                         _______ _______ _______ _____ _____    ______ ____
ROOT
ATOM      1  C   UNL     1      -3.086   1.738   0.306  0.00  0.00    +0.023 C 
ATOM      2  C   UNL     1      -4.417   1.908   0.617  0.00  0.00    +0.047 C 
ATOM      3  C   UNL     1      -4.992   2.316   1.919  0.00  0.00    +0.009 A 
ATOM      4  C   UNL     1      -4.431   2.635   3.151  0.00  0.00    +0.010 A 
ATOM      5  C   UNL     1      -5.249   2.987   4.205  0.00  0.00    +0.001 A 
ATOM      6  C   UNL     1      -6.623   3.022   4.036  0.00  0.00    +0.002 A 
ATOM      7  C   UNL     1      -7.190   2.707   2.818  0.00  0.00    +0.024 A 
ATOM      8  C   UNL     1      -6.381   2.350   1.744  0.00  0.00    +0.049 A 
ATOM      9  N   UNL     1      -6.685   1.993   0.434  0.00  0.00    -0.236 N 
ATOM     10  C   UNL     1      -5.573   1.729  -0.272  0.00  0.00    +0.256 C 
ATOM     11  O   UNL     1      -5.531   1.398  -1.443  0.00  0.00    -0.269 OA
ENDROOT
BRANCH   1  15
ATOM     12  C   UNL     1      -0.654   1.007   4.722  0.00  0.00    +0.063 C 
ATOM     13  C   UNL     1      -1.014   1.439   3.324  0.00  0.00    +0.014 A 
ATOM     14  C   UNL     1      -2.161   1.142   2.689  0.00  0.00    +0.030 A 
ATOM     15  C   UNL     1      -2.077   1.772   1.364  0.00  0.00    -0.004 A 
ATOM     16  C   UNL     1      -0.846   2.402   1.323  0.00  0.00    +0.020 A 
ATOM     17  N   UNL     1      -0.229   2.194   2.502  0.00  0.00    -0.362 N 
ATOM     18  H   UNL     1       0.649   2.534   2.734  0.00  0.00    +0.165 HD
ATOM     19  C   UNL     1      -0.294   3.190   0.162  0.00  0.00    +0.064 C 
ENDBRANCH   1  15
BRANCH   9  20
ATOM     20  C   UNL     1      -7.985   1.922  -0.084  0.00  0.00    +0.042 A 
ATOM     21  C   UNL     1      -8.741   3.078  -0.225  0.00  0.00    +0.024 A 
ATOM     22  C   UNL     1     -10.020   3.006  -0.741  0.00  0.00    +0.002 A 
ATOM     23  C   UNL     1     -10.552   1.783  -1.105  0.00  0.00    +0.000 A 
ATOM     24  C   UNL     1      -9.803   0.629  -0.961  0.00  0.00    +0.002 A 
ATOM     25  C   UNL     1      -8.522   0.695  -0.451  0.00  0.00    +0.024 A 
ENDBRANCH   9  20
TORSDOF 2
