REMARK  Name = ZINC14546339
REMARK  8 active torsions:
REMARK  status: ('A' for Active; 'I' for Inactive)
REMARK    1  A    between atoms: C_1  and  C_2
REMARK    2  A    between atoms: C_2  and  C_3
REMARK    3  A    between atoms: C_3  and  C_4
REMARK    4  A    between atoms: C_4  and  N_5
REMARK    5  A    between atoms: C_6  and  C_8
REMARK    6  A    between atoms: C_15  and  C_24
REMARK    7  A    between atoms: C_29  and  O_30
REMARK    8  A    between atoms: O_30  and  C_31
REMARK                            x       y       z     vdW  Elec       q    Type
REMARK                         _______ _______ _______ _____ _____    ______ ____
ROOT
ATOM      1  C   UNL     1       2.759  -0.320  -3.283  0.00  0.00    +0.058 A 
ATOM      2  C   UNL     1       3.199   0.877  -3.849  0.00  0.00    +0.015 A 
ATOM      3  C   UNL     1       3.478   1.954  -3.036  0.00  0.00    +0.001 A 
ATOM      4  C   UNL     1       3.323   1.850  -1.666  0.00  0.00    +0.006 A 
ATOM      5  C   UNL     1       2.886   0.669  -1.084  0.00  0.00    -0.019 A 
ATOM      6  C   UNL     1       2.602  -0.420  -1.887  0.00  0.00    +0.044 A 
ATOM      7  N   UNL     1       2.159  -1.627  -1.367  0.00  0.00    -0.336 N 
ATOM      8  C   UNL     1       2.641  -1.855   0.013  0.00  0.00    +0.108 C 
ATOM      9  C   UNL     1       2.174  -0.709   0.898  0.00  0.00    +0.029 C 
ATOM     10  C   UNL     1       2.746   0.639   0.415  0.00  0.00    +0.049 C 
ATOM     11  C   UNL     1       1.667   1.635   0.807  0.00  0.00    -0.023 C 
ATOM     12  C   UNL     1       0.517   1.029   0.964  0.00  0.00    -0.030 C 
ATOM     13  C   UNL     1       0.659  -0.458   0.699  0.00  0.00    +0.033 C 
ATOM     14  H   UNL     1       2.418  -2.396  -1.967  0.00  0.00    +0.147 HD
ENDROOT
BRANCH   8  15
ATOM     15  C   UNL     1       4.147  -1.898   0.004  0.00  0.00    +0.015 A 
ATOM     16  C   UNL     1       4.865  -1.169   0.933  0.00  0.00    +0.009 A 
ATOM     17  C   UNL     1       6.247  -1.209   0.925  0.00  0.00    +0.001 A 
ATOM     18  C   UNL     1       6.914  -1.977  -0.011  0.00  0.00    +0.004 A 
ATOM     19  C   UNL     1       6.201  -2.707  -0.942  0.00  0.00    +0.046 A 
ATOM     20  C   UNL     1       4.814  -2.674  -0.933  0.00  0.00    +0.125 A 
BRANCH  20  21
ATOM     21  O   UNL     1       4.109  -3.396  -1.843  0.00  0.00    -0.495 OA
ATOM     22  C   UNL     1       4.862  -4.172  -2.778  0.00  0.00    +0.277 C 
ENDBRANCH  20  21
ENDBRANCH   8  15
BRANCH   1  24
ATOM     23  N   UNL     1       2.745  -1.431  -5.460  0.00  0.00    -0.311 N 
ATOM     24  C   UNL     1       2.458  -1.477  -4.144  0.00  0.00    +0.246 C 
ATOM     25  O   UNL     1       1.950  -2.474  -3.668  0.00  0.00    -0.270 OA
ATOM     26  H   UNL     1       3.151  -0.635  -5.840  0.00  0.00    +0.149 HD
BRANCH  23  27
ATOM     27  C   UNL     1       2.446  -2.581  -6.317  0.00  0.00    +0.104 C 
BRANCH  27  28
ATOM     28  C   UNL     1       2.868  -2.270  -7.754  0.00  0.00    +0.018 C 
BRANCH  28  30
ATOM     29  C   UNL     1       2.977  -3.160 -10.086  0.00  0.00    +0.004 C 
ATOM     30  C   UNL     1       2.555  -3.471  -8.649  0.00  0.00    -0.002 C 
ENDBRANCH  28  30
ENDBRANCH  27  28
ENDBRANCH  23  27
ENDBRANCH   1  24
TORSDOF 6
