REMARK  Name = ZINC01061155
REMARK  3 active torsions:
REMARK  status: ('A' for Active; 'I' for Inactive)
REMARK    1  A    between atoms: C_1  and  C_2
REMARK    2  A    between atoms: C_11  and  O_13
REMARK    3  A    between atoms: O_13  and  C_14
REMARK                            x       y       z     vdW  Elec       q    Type
REMARK                         _______ _______ _______ _____ _____    ______ ____
ROOT
ATOM      1  O   UNL     1      -2.421   3.788   0.044  0.00  0.00    -0.437 OA
ENDROOT
BRANCH   1  12
ATOM      2  C   UNL     1       3.002   0.488  -1.368  0.00  0.00    +0.045 C 
ATOM      3  C   UNL     1       2.485   1.117  -0.100  0.00  0.00    -0.033 A 
ATOM      4  C   UNL     1       3.201   1.053   1.053  0.00  0.00    +0.096 A 
ATOM      5  C   UNL     1       2.696   1.649   2.227  0.00  0.00    +0.337 A 
ATOM      6  O   UNL     1       3.348   1.583   3.254  0.00  0.00    -0.245 OA
ATOM      7  O   UNL     1       1.515   2.286   2.242  0.00  0.00    -0.422 OA
ATOM      8  C   UNL     1       0.754   2.386   1.131  0.00  0.00    +0.143 A 
ATOM      9  C   UNL     1       1.198   1.814  -0.076  0.00  0.00    +0.021 A 
ATOM     10  C   UNL     1       0.412   1.915  -1.230  0.00  0.00    +0.015 A 
ATOM     11  C   UNL     1      -0.782   2.575  -1.182  0.00  0.00    +0.047 A 
ATOM     12  C   UNL     1      -1.229   3.139   0.011  0.00  0.00    +0.134 A 
ATOM     13  C   UNL     1      -0.464   3.048   1.163  0.00  0.00    +0.093 A 
ENDBRANCH   1  12
BRANCH   1  14
ATOM     14  C   UNL     1      -3.551   3.047  -0.054  0.00  0.00    +0.232 A 
ATOM     15  C   UNL     1      -4.819   3.677  -0.151  0.00  0.00    +0.073 A 
ATOM     16  C   UNL     1      -5.128   5.117  -0.163  0.00  0.00    -0.023 A 
ATOM     17  C   UNL     1      -6.422   5.459  -0.266  0.00  0.00    -0.004 A 
ATOM     18  S   UNL     1      -7.304   3.917  -0.350  0.00  0.00    -0.073 S 
ATOM     19  C   UNL     1      -5.924   2.811  -0.248  0.00  0.00    +0.116 A 
ATOM     20  N   UNL     1      -5.774   1.500  -0.248  0.00  0.00    -0.228 NA
ATOM     21  C   UNL     1      -4.569   0.971  -0.154  0.00  0.00    +0.226 A 
ATOM     22  N   UNL     1      -3.488   1.726  -0.066  0.00  0.00    -0.201 NA
ATOM     23  C   UNL     1      -6.617   6.952  -0.272  0.00  0.00    +0.043 C 
ATOM     24  C   UNL     1      -5.218   7.524  -0.592  0.00  0.00    +0.010 C 
ATOM     25  C   UNL     1      -4.296   6.400  -0.079  0.00  0.00    +0.037 C 
ENDBRANCH   1  14
TORSDOF 2
