REMARK  Name = ZINC07995614
REMARK  6 active torsions:
REMARK  status: ('A' for Active; 'I' for Inactive)
REMARK    1  A    between atoms: C_1  and  C_2
REMARK    2  A    between atoms: C_5  and  C_7
REMARK    3  A    between atoms: C_10  and  O_13
REMARK    4  A    between atoms: O_13  and  C_14
REMARK    5  A    between atoms: C_14  and  C_15
REMARK    6  A    between atoms: C_28  and  C_30
REMARK                            x       y       z     vdW  Elec       q    Type
REMARK                         _______ _______ _______ _____ _____    ______ ____
ROOT
ATOM      1  C   UNL     1      -0.439   5.974  -0.969  0.00  0.00    +0.258 C 
ATOM      2  O   UNL     1      -0.442   7.186  -0.907  0.00  0.00    -0.272 OA
ATOM      3  N   UNL     1      -0.070   5.246   0.104  0.00  0.00    -0.264 N 
ATOM      4  C   UNL     1      -0.062   3.845   0.046  0.00  0.00    +0.058 A 
ATOM      5  C   UNL     1      -1.249   3.131   0.040  0.00  0.00    +0.025 A 
ATOM      6  C   UNL     1      -1.221   1.748   0.017  0.00  0.00    +0.002 A 
ATOM      7  C   UNL     1      -0.013   1.076   0.008  0.00  0.00    +0.002 A 
ATOM      8  C   UNL     1       1.177   1.781   0.000  0.00  0.00    +0.025 A 
ATOM      9  C   UNL     1       1.157   3.166   0.015  0.00  0.00    +0.055 A 
ATOM     10  N   UNL     1       2.346   3.902  -0.025  0.00  0.00    -0.284 N 
ATOM     11  C   UNL     1       2.556   4.915   0.844  0.00  0.00    +0.219 C 
ATOM     12  O   UNL     1       3.555   5.596   0.746  0.00  0.00    -0.275 OA
ATOM     13  C   UNL     1       1.558   5.205   1.934  0.00  0.00    +0.118 C 
ATOM     14  C   UNL     1       0.329   5.902   1.350  0.00  0.00    +0.087 C 
ATOM     15  C   UNL     1      -0.823   5.828   2.354  0.00  0.00    +0.029 C 
ATOM     16  H   UNL     1       3.026   3.683  -0.682  0.00  0.00    +0.155 HD
ENDROOT
BRANCH   1  17
ATOM     17  C   UNL     1      -0.846   5.284  -2.245  0.00  0.00    +0.325 C 
BRANCH  17  18
ATOM     18  O   UNL     1      -1.190   6.263  -3.227  0.00  0.00    -0.483 OA
BRANCH  18  22
ATOM     19  C   UNL     1      -2.384   4.869  -6.926  0.00  0.00    +0.007 A 
ATOM     20  C   UNL     1      -2.330   6.242  -6.680  0.00  0.00    +0.014 A 
ATOM     21  C   UNL     1      -1.931   6.704  -5.444  0.00  0.00    +0.046 A 
ATOM     22  C   UNL     1      -1.583   5.805  -4.444  0.00  0.00    +0.121 A 
ATOM     23  C   UNL     1      -1.630   4.438  -4.687  0.00  0.00    +0.046 A 
ATOM     24  C   UNL     1      -2.034   3.969  -5.918  0.00  0.00    +0.014 A 
BRANCH  19  29
ATOM     25  C   UNL     1      -3.451   1.428 -10.365  0.00  0.00    +0.066 C 
ATOM     26  C   UNL     1      -3.327   2.858  -9.904  0.00  0.00    +0.046 A 
ATOM     27  C   UNL     1      -3.627   3.875 -10.753  0.00  0.00    +0.070 A 
ATOM     28  S   UNL     1      -3.307   5.287  -9.703  0.00  0.00    -0.075 S 
ATOM     29  C   UNL     1      -2.811   4.370  -8.250  0.00  0.00    +0.108 A 
ATOM     30  N   UNL     1      -2.924   3.122  -8.683  0.00  0.00    -0.244 NA
ENDBRANCH  19  29
ENDBRANCH  18  22
ENDBRANCH  17  18
ENDBRANCH   1  17
TORSDOF 4
