REMARK  Name = ZINC04874352
REMARK  8 active torsions:
REMARK  status: ('A' for Active; 'I' for Inactive)
REMARK    1  A    between atoms: C_1  and  C_2
REMARK    2  A    between atoms: C_2  and  C_3
REMARK    3  A    between atoms: C_2  and  C_4
REMARK    4  A    between atoms: C_4  and  C_5
REMARK    5  A    between atoms: C_5  and  N_6
REMARK    6  A    between atoms: C_12  and  C_19
REMARK    7  A    between atoms: N_17  and  C_18
REMARK    8  A    between atoms: C_24  and  C_25
REMARK                            x       y       z     vdW  Elec       q    Type
REMARK                         _______ _______ _______ _____ _____    ______ ____
ROOT
ATOM      1  N   UNL     1      -0.860  -0.035  -1.648  0.00  0.00    -0.292 N 
ATOM      2  C   UNL     1       0.070   1.047  -2.004  0.00  0.00    +0.159 C 
ATOM      3  C   UNL     1       0.655   0.633  -3.336  0.00  0.00    +0.042 C 
ATOM      4  C   UNL     1       0.083  -0.546  -3.652  0.00  0.00    +0.058 C 
ATOM      5  C   UNL     1      -0.820  -0.940  -2.643  0.00  0.00    +0.247 C 
ATOM      6  O   UNL     1      -1.476  -1.965  -2.668  0.00  0.00    -0.270 OA
ATOM      7  C   UNL     1       0.488  -1.198  -4.959  0.00  0.00    +0.142 C 
ATOM      8  N   UNL     1       1.481  -0.485  -5.780  0.00  0.00    -0.288 N 
ATOM      9  C   UNL     1       1.964   0.689  -5.328  0.00  0.00    +0.307 C 
ATOM     10  O   UNL     1       2.784   1.285  -5.998  0.00  0.00    -0.252 OA
ATOM     11  N   UNL     1       1.569   1.220  -4.163  0.00  0.00    -0.260 N 
ATOM     12  C   UNL     1       2.150   2.502  -3.754  0.00  0.00    +0.139 C 
ATOM     13  H   UNL     1       1.780  -0.851  -6.627  0.00  0.00    +0.151 HD
ENDROOT
BRANCH   7  14
ATOM     14  C   UNL     1      -0.755  -1.385  -5.790  0.00  0.00    -0.011 A 
ATOM     15  C   UNL     1      -1.371  -0.290  -6.368  0.00  0.00    +0.006 A 
ATOM     16  C   UNL     1      -2.511  -0.461  -7.130  0.00  0.00    +0.000 A 
ATOM     17  C   UNL     1      -3.035  -1.727  -7.317  0.00  0.00    +0.001 A 
ATOM     18  C   UNL     1      -2.418  -2.822  -6.740  0.00  0.00    +0.013 A 
ATOM     19  C   UNL     1      -1.276  -2.651  -5.981  0.00  0.00    +0.060 A 
BRANCH  19  20
ATOM     20  C   UNL     1      -0.600  -3.845  -5.356  0.00  0.00    +0.418 C 
ATOM     21  F   UNL     1      -1.346  -4.997  -5.628  0.00  0.00    -0.166 F 
ATOM     22  F   UNL     1       0.686  -3.985  -5.889  0.00  0.00    -0.166 F 
ATOM     23  F   UNL     1      -0.514  -3.661  -3.972  0.00  0.00    -0.166 F 
ENDBRANCH  19  20
ENDBRANCH   7  14
BRANCH   1  24
ATOM     24  C   UNL     1      -1.681  -0.112  -0.437  0.00  0.00    +0.109 C 
BRANCH  24  25
ATOM     25  C   UNL     1      -0.903  -0.837   0.663  0.00  0.00    +0.022 C 
BRANCH  25  27
ATOM     26  C   UNL     1      -1.034  -1.748   2.985  0.00  0.00    +0.007 C 
ATOM     27  C   UNL     1      -1.761  -0.916   1.927  0.00  0.00    -0.016 C 
ATOM     28  C   UNL     1      -2.006   0.495   2.467  0.00  0.00    +0.007 C 
ENDBRANCH  25  27
ENDBRANCH  24  25
ENDBRANCH   1  24
TORSDOF 5
