REMARK  Name = ZINC67610949
REMARK  9 active torsions:
REMARK  status: ('A' for Active; 'I' for Inactive)
REMARK    1  A    between atoms: C_1  and  C_2
REMARK    2  A    between atoms: C_2  and  C_4
REMARK    3  A    between atoms: C_2  and  N_11
REMARK    4  A    between atoms: C_8  and  O_10
REMARK    5  A    between atoms: N_11  and  C_12
REMARK    6  A    between atoms: N_15  and  C_16
REMARK    7  A    between atoms: C_16  and  C_17
REMARK    8  A    between atoms: C_22  and  C_23
REMARK    9  A    between atoms: C_23  and  N_24
REMARK                            x       y       z     vdW  Elec       q    Type
REMARK                         _______ _______ _______ _____ _____    ______ ____
ROOT
ATOM      1  N   UNL     1       0.653  -0.457   1.311  0.00  0.00    -0.282 N 
ATOM      2  C   UNL     1       1.947   0.067   1.754  0.00  0.00    +0.134 C 
ATOM      3  C   UNL     1      -0.007  -1.354   2.069  0.00  0.00    +0.303 C 
ATOM      4  O   UNL     1      -1.081  -1.789   1.701  0.00  0.00    -0.253 OA
ATOM      5  N   UNL     1       0.524  -1.770   3.236  0.00  0.00    -0.295 N 
ATOM      6  H   UNL     1       1.381  -1.424   3.530  0.00  0.00    +0.151 HD
ENDROOT
BRANCH   1   8
ATOM      7  C   UNL     1      -0.018   1.523   0.040  0.00  0.00    +0.033 C 
ATOM      8  C   UNL     1       0.075  -0.004   0.042  0.00  0.00    +0.104 C 
BRANCH   8   9
ATOM      9  C   UNL     1       0.952  -0.456  -1.098  0.00  0.00    -0.024 A 
ATOM     10  C   UNL     1       1.680  -1.626  -0.988  0.00  0.00    +0.006 A 
ATOM     11  C   UNL     1       2.485  -2.043  -2.032  0.00  0.00    +0.004 A 
ATOM     12  C   UNL     1       2.564  -1.290  -3.188  0.00  0.00    +0.045 A 
ATOM     13  C   UNL     1       1.834  -0.115  -3.300  0.00  0.00    +0.117 A 
ATOM     14  C   UNL     1       1.023   0.298  -2.253  0.00  0.00    +0.050 A 
BRANCH  13  15
ATOM     15  O   UNL     1       1.911   0.627  -4.436  0.00  0.00    -0.507 OA
ATOM     16  H   UNL     1       1.256   0.389  -5.106  0.00  0.00    +0.292 HD
ENDBRANCH  13  15
ENDBRANCH   8   9
ENDBRANCH   1   8
BRANCH   5  17
ATOM     17  C   UNL     1      -0.193  -2.746   4.060  0.00  0.00    +0.141 C 
BRANCH  17  18
ATOM     18  C   UNL     1       0.609  -3.041   5.302  0.00  0.00    -0.029 A 
ATOM     19  C   UNL     1       1.383  -4.185   5.369  0.00  0.00    +0.005 A 
ATOM     20  C   UNL     1       2.118  -4.455   6.508  0.00  0.00    +0.000 A 
ATOM     21  C   UNL     1       2.080  -3.582   7.579  0.00  0.00    +0.000 A 
ATOM     22  C   UNL     1       1.308  -2.438   7.511  0.00  0.00    +0.002 A 
ATOM     23  C   UNL     1       0.575  -2.165   6.370  0.00  0.00    -0.059 A 
BRANCH  23  24
ATOM     24  C   UNL     1      -0.263  -0.915   6.294  0.00  0.00    -0.043 C 
BRANCH  24  25
ATOM     25  N   UNL     1      -1.667  -1.250   6.571  0.00  0.00    +0.382 N 
ATOM     26  C   UNL     1      -1.828  -1.643   7.994  0.00  0.00    -0.078 C 
ATOM     27  C   UNL     1      -3.337  -1.408   8.258  0.00  0.00    -0.020 C 
ATOM     28  C   UNL     1      -3.635  -0.128   7.445  0.00  0.00    -0.020 C 
ATOM     29  C   UNL     1      -2.522  -0.058   6.383  0.00  0.00    -0.078 C 
ATOM     30  H   UNL     1      -1.973  -1.997   5.966  0.00  0.00    -0.081 HD
ENDBRANCH  24  25
ENDBRANCH  23  24
ENDBRANCH  17  18
ENDBRANCH   5  17
TORSDOF 7
