REMARK  Name = ZINC13621134
REMARK  11 active torsions:
REMARK  status: ('A' for Active; 'I' for Inactive)
REMARK    1  A    between atoms: C_1  and  C_2
REMARK    2  A    between atoms: C_2  and  O_3
REMARK    3  A    between atoms: O_3  and  C_4
REMARK    4  A    between atoms: C_7  and  C_10
REMARK    5  A    between atoms: C_11  and  C_12
REMARK    6  A    between atoms: N_14  and  C_15
REMARK    7  A    between atoms: C_15  and  N_17
REMARK    8  A    between atoms: N_17  and  N_18
REMARK    9  A    between atoms: C_19  and  C_21
REMARK   10  A    between atoms: C_21  and  C_22
REMARK   11  A    between atoms: C_21  and  C_28
REMARK                            x       y       z     vdW  Elec       q    Type
REMARK                         _______ _______ _______ _____ _____    ______ ____
ROOT
ATOM      1  N   UNL     1      -0.848  -0.188   3.667  0.00  0.00    -0.246 N 
ATOM      2  H   UNL     1      -1.708  -0.636   3.652  0.00  0.00    +0.172 HD
ENDROOT
BRANCH   1   3
ATOM      3  N   UNL     1      -0.175   0.077   2.468  0.00  0.00    -0.234 N 
ATOM      4  C   UNL     1      -0.722  -0.290   1.292  0.00  0.00    +0.241 C 
ATOM      5  O   UNL     1      -1.798  -0.850   1.273  0.00  0.00    -0.273 OA
ATOM      6  H   UNL     1       0.685   0.525   2.483  0.00  0.00    +0.173 HD
BRANCH   4   7
ATOM      7  C   UNL     1       0.002  -0.004   0.002  0.00  0.00    +0.136 C 
BRANCH   7   8
ATOM      8  C   UNL     1       0.208   1.482  -0.140  0.00  0.00    -0.031 A 
ATOM      9  C   UNL     1      -0.864   2.344  -0.003  0.00  0.00    +0.005 A 
ATOM     10  C   UNL     1      -0.675   3.708  -0.129  0.00  0.00    +0.000 A 
ATOM     11  C   UNL     1       0.585   4.208  -0.402  0.00  0.00    +0.000 A 
ATOM     12  C   UNL     1       1.655   3.346  -0.545  0.00  0.00    +0.000 A 
ATOM     13  C   UNL     1       1.467   1.983  -0.414  0.00  0.00    +0.005 A 
ENDBRANCH   7   8
BRANCH   7  14
ATOM     14  C   UNL     1      -0.817  -0.511  -1.157  0.00  0.00    -0.031 A 
ATOM     15  C   UNL     1      -2.134  -0.116  -1.298  0.00  0.00    +0.005 A 
ATOM     16  C   UNL     1      -2.884  -0.577  -2.364  0.00  0.00    +0.000 A 
ATOM     17  C   UNL     1      -2.320  -1.442  -3.283  0.00  0.00    +0.000 A 
ATOM     18  C   UNL     1      -1.005  -1.842  -3.138  0.00  0.00    +0.000 A 
ATOM     19  C   UNL     1      -0.253  -1.376  -2.076  0.00  0.00    +0.005 A 
ENDBRANCH   7  14
ENDBRANCH   4   7
ENDBRANCH   1   3
BRANCH   1  20
ATOM     20  C   UNL     1      -0.301   0.179   4.843  0.00  0.00    +0.153 C 
ATOM     21  S   UNL     1      -1.124  -0.145   6.309  0.00  0.00    -0.017 S 
BRANCH  20  24
ATOM     22  C   UNL     1       1.442   1.169   6.040  0.00  0.00    +0.242 C 
ATOM     23  O   UNL     1       0.857   0.938   7.082  0.00  0.00    -0.270 OA
ATOM     24  N   UNL     1       0.894   0.801   4.865  0.00  0.00    -0.263 N 
ATOM     25  H   UNL     1       1.360   0.985   4.034  0.00  0.00    +0.157 HD
BRANCH  22  27
ATOM     26  C   UNL     1       3.286   2.212   7.242  0.00  0.00    +0.013 C 
ATOM     27  C   UNL     1       2.737   1.844   6.064  0.00  0.00    +0.068 C 
BRANCH  26  31
ATOM     28  C   UNL     1       7.047   4.170   7.310  0.00  0.00    +0.121 A 
ATOM     29  C   UNL     1       6.381   3.908   8.502  0.00  0.00    +0.046 A 
ATOM     30  C   UNL     1       5.160   3.273   8.485  0.00  0.00    +0.011 A 
ATOM     31  C   UNL     1       4.589   2.890   7.266  0.00  0.00    -0.025 A 
ATOM     32  C   UNL     1       5.267   3.152   6.069  0.00  0.00    +0.011 A 
ATOM     33  C   UNL     1       6.485   3.792   6.096  0.00  0.00    +0.046 A 
BRANCH  28  34
ATOM     34  O   UNL     1       8.251   4.797   7.332  0.00  0.00    -0.492 OA
BRANCH  34  36
ATOM     35  C   UNL     1      10.218   5.746   6.296  0.00  0.00    +0.048 C 
ATOM     36  C   UNL     1       8.881   5.036   6.072  0.00  0.00    +0.225 C 
ENDBRANCH  34  36
ENDBRANCH  28  34
ENDBRANCH  26  31
ENDBRANCH  22  27
ENDBRANCH  20  24
ENDBRANCH   1  20
TORSDOF 10
