REMARK  Name = ZINC04236175
REMARK  5 active torsions:
REMARK  status: ('A' for Active; 'I' for Inactive)
REMARK    1  A    between atoms: C_4  and  O_7
REMARK    2  A    between atoms: O_7  and  C_8
REMARK    3  A    between atoms: C_8  and  C_9
REMARK    4  A    between atoms: C_22  and  N_27
REMARK    5  A    between atoms: C_28  and  C_30
REMARK                            x       y       z     vdW  Elec       q    Type
REMARK                         _______ _______ _______ _____ _____    ______ ____
ROOT
ATOM      1  C   UNL     1       0.245   2.174  -3.341  0.00  0.00    +0.253 C 
ATOM      2  O   UNL     1      -0.733   1.659  -3.841  0.00  0.00    -0.272 OA
ATOM      3  N   UNL     1       0.099   3.100  -2.373  0.00  0.00    -0.298 N 
ATOM      4  C   UNL     1      -1.236   3.498  -1.912  0.00  0.00    +0.113 C 
ATOM      5  C   UNL     1      -1.309   3.428  -0.392  0.00  0.00    +0.027 C 
ATOM      6  C   UNL     1      -0.134   4.168   0.248  0.00  0.00    +0.018 C 
ATOM      7  C   UNL     1       1.168   3.534  -0.250  0.00  0.00    +0.054 C 
ATOM      8  C   UNL     1       1.266   3.760  -1.769  0.00  0.00    +0.117 C 
ATOM      9  C   UNL     1       1.133   2.043  -0.009  0.00  0.00    +0.027 A 
ATOM     10  C   UNL     1       2.324   1.404   0.139  0.00  0.00    +0.024 A 
ATOM     11  C   UNL     1       2.376   0.009   0.232  0.00  0.00    +0.030 A 
ATOM     12  C   UNL     1       1.210  -0.703   0.153  0.00  0.00    +0.099 A 
ATOM     13  C   UNL     1      -0.007  -0.009   0.008  0.00  0.00    +0.273 A 
ATOM     14  O   UNL     1      -1.048  -0.632  -0.122  0.00  0.00    -0.266 OA
ATOM     15  N   UNL     1      -0.030   1.347   0.011  0.00  0.00    -0.310 N 
ATOM     16  C   UNL     1      -1.341   1.990   0.095  0.00  0.00    +0.130 C 
ENDROOT
BRANCH  12  17
ATOM     17  N   UNL     1       1.227  -2.103   0.217  0.00  0.00    -0.277 N 
ATOM     18  C   UNL     1       0.547  -2.741   1.190  0.00  0.00    +0.248 C 
ATOM     19  O   UNL     1      -0.149  -2.108   1.961  0.00  0.00    -0.270 OA
ATOM     20  H   UNL     1       1.727  -2.612  -0.440  0.00  0.00    +0.155 HD
BRANCH  18  21
ATOM     21  C   UNL     1       0.648  -4.209   1.320  0.00  0.00    +0.037 A 
ATOM     22  C   UNL     1       1.442  -4.938   0.432  0.00  0.00    +0.016 A 
ATOM     23  C   UNL     1       1.537  -6.307   0.562  0.00  0.00    +0.039 A 
ATOM     24  C   UNL     1       0.837  -6.961   1.564  0.00  0.00    +0.123 A 
ATOM     25  C   UNL     1       0.043  -6.243   2.445  0.00  0.00    +0.039 A 
ATOM     26  C   UNL     1      -0.055  -4.873   2.328  0.00  0.00    +0.016 A 
ATOM     27  F   UNL     1       0.929  -8.304   1.684  0.00  0.00    -0.205 F 
ENDBRANCH  18  21
ENDBRANCH  12  17
BRANCH   1  28
ATOM     28  C   UNL     1       1.624   1.777  -3.803  0.00  0.00    +0.324 C 
BRANCH  28  29
ATOM     29  O   UNL     1       1.516   0.787  -4.828  0.00  0.00    -0.483 OA
BRANCH  29  33
ATOM     30  C   UNL     1       5.040  -0.636  -6.434  0.00  0.00    +0.000 A 
ATOM     31  C   UNL     1       3.828  -1.119  -6.892  0.00  0.00    +0.004 A 
ATOM     32  C   UNL     1       2.647  -0.644  -6.356  0.00  0.00    +0.045 A 
ATOM     33  C   UNL     1       2.677   0.318  -5.357  0.00  0.00    +0.121 A 
ATOM     34  C   UNL     1       3.894   0.805  -4.903  0.00  0.00    +0.045 A 
ATOM     35  C   UNL     1       5.073   0.323  -5.439  0.00  0.00    +0.004 A 
ENDBRANCH  29  33
ENDBRANCH  28  29
ENDBRANCH   1  28
TORSDOF 5
