REMARK  Name = ZINC02110311
REMARK  9 active torsions:
REMARK  status: ('A' for Active; 'I' for Inactive)
REMARK    1  A    between atoms: C_1  and  O_2
REMARK    2  A    between atoms: O_2  and  C_3
REMARK    3  A    between atoms: C_13  and  C_17
REMARK    4  A    between atoms: C_20  and  O_37
REMARK    5  A    between atoms: C_21  and  C_23
REMARK    6  A    between atoms: C_23  and  O_24
REMARK    7  A    between atoms: O_24  and  C_25
REMARK    8  A    between atoms: C_30  and  C_31
REMARK    9  A    between atoms: O_37  and  C_38
REMARK                            x       y       z     vdW  Elec       q    Type
REMARK                         _______ _______ _______ _____ _____    ______ ____
ROOT
ATOM      1  C   UNL     1      -1.003   5.630   1.677  0.00  0.00    -0.055 A 
ATOM      2  C   UNL     1      -0.367   5.117   0.561  0.00  0.00    +0.006 A 
ATOM      3  C   UNL     1      -0.253   3.751   0.396  0.00  0.00    +0.046 A 
ATOM      4  C   UNL     1      -0.787   2.892   1.346  0.00  0.00    +0.126 A 
ATOM      5  C   UNL     1      -1.425   3.409   2.465  0.00  0.00    +0.031 A 
ATOM      6  C   UNL     1      -1.531   4.776   2.627  0.00  0.00    +0.013 A 
ENDROOT
BRANCH   1  17
ATOM      7  C   UNL     1       4.032   9.877   3.453  0.00  0.00    +0.121 A 
ATOM      8  C   UNL     1       4.123   8.817   4.347  0.00  0.00    +0.047 A 
ATOM      9  C   UNL     1       3.158   7.829   4.419  0.00  0.00    +0.030 A 
ATOM     10  C   UNL     1       2.074   7.934   3.550  0.00  0.00    +0.047 A 
ATOM     11  C   UNL     1       1.978   9.015   2.636  0.00  0.00    +0.006 A 
ATOM     12  C   UNL     1       2.963  10.006   2.577  0.00  0.00    +0.056 A 
ATOM     13  C   UNL     1       0.748   8.809   1.904  0.00  0.00    -0.022 A 
ATOM     14  C   UNL     1       0.183   7.673   2.384  0.00  0.00    +0.010 A 
ATOM     15  N   UNL     1       0.971   7.145   3.366  0.00  0.00    -0.359 N 
ATOM     16  H   UNL     1       0.777   6.334   3.860  0.00  0.00    +0.166 HD
ATOM     17  C   UNL     1      -1.120   7.122   1.857  0.00  0.00    +0.007 C 
ATOM     18  C   UNL     1      -1.330   9.220   0.650  0.00  0.00    -0.076 C 
ATOM     19  C   UNL     1       0.136   9.644   0.808  0.00  0.00    +0.018 C 
ATOM     20  N   UNL     1      -1.412   7.748   0.549  0.00  0.00    +0.387 N 
ATOM     21  H   UNL     1      -2.358   7.482   0.251  0.00  0.00    -0.084 HD
ATOM     22  H   UNL     1      -0.730   7.419  -0.143  0.00  0.00    -0.084 HD
BRANCH   7  24
ATOM     23  C   UNL     1       6.096  10.638   4.356  0.00  0.00    +0.277 C 
ATOM     24  O   UNL     1       5.017  10.815   3.435  0.00  0.00    -0.495 OA
ENDBRANCH   7  24
ENDBRANCH   1  17
BRANCH   4  25
ATOM     25  O   UNL     1      -0.682   1.547   1.184  0.00  0.00    -0.495 OA
ATOM     26  C   UNL     1      -0.013   1.086   0.008  0.00  0.00    +0.277 C 
ENDBRANCH   4  25
BRANCH   5  27
ATOM     27  C   UNL     1      -2.000   2.479   3.502  0.00  0.00    +0.268 C 
BRANCH  27  28
ATOM     28  O   UNL     1      -2.599   3.245   4.548  0.00  0.00    -0.487 OA
BRANCH  28  29
ATOM     29  C   UNL     1      -3.169   2.554   5.571  0.00  0.00    +0.124 A 
ATOM     30  C   UNL     1      -3.151   1.166   5.566  0.00  0.00    +0.046 A 
ATOM     31  C   UNL     1      -3.731   0.466   6.606  0.00  0.00    +0.004 A 
ATOM     32  C   UNL     1      -4.328   1.147   7.651  0.00  0.00    +0.001 A 
ATOM     33  C   UNL     1      -4.346   2.529   7.658  0.00  0.00    +0.007 A 
ATOM     34  C   UNL     1      -3.764   3.234   6.623  0.00  0.00    -0.003 A 
BRANCH  34  35
ATOM     35  C   UNL     1      -3.779   4.741   6.634  0.00  0.00    +0.023 C 
ATOM     36  C   UNL     1      -3.048   5.249   7.878  0.00  0.00    +0.008 C 
ATOM     37  C   UNL     1      -3.064   6.779   7.889  0.00  0.00    +0.001 C 
ATOM     38  C   UNL     1      -4.511   7.274   7.910  0.00  0.00    +0.000 C 
ATOM     39  C   UNL     1      -5.242   6.766   6.666  0.00  0.00    +0.001 C 
ATOM     40  C   UNL     1      -5.227   5.236   6.655  0.00  0.00    +0.008 C 
ENDBRANCH  34  35
ENDBRANCH  28  29
ENDBRANCH  27  28
ENDBRANCH   5  27
TORSDOF 7
