REMARK  Name = ZINC21674250
REMARK  9 active torsions:
REMARK  status: ('A' for Active; 'I' for Inactive)
REMARK    1  A    between atoms: C_1  and  O_2
REMARK    2  A    between atoms: O_2  and  C_3
REMARK    3  A    between atoms: C_6  and  O_33
REMARK    4  A    between atoms: N_10  and  C_15
REMARK    5  A    between atoms: C_12  and  O_14
REMARK    6  A    between atoms: C_18  and  S_24
REMARK    7  A    between atoms: C_20  and  N_21
REMARK    8  A    between atoms: S_24  and  N_27
REMARK    9  A    between atoms: O_33  and  C_34
REMARK                            x       y       z     vdW  Elec       q    Type
REMARK                         _______ _______ _______ _____ _____    ______ ____
ROOT
ATOM      1  C   UNL     1      -1.225   1.755   0.017  0.00  0.00    +0.061 A 
ATOM      2  C   UNL     1      -0.013   1.076   0.008  0.00  0.00    +0.027 A 
ATOM      3  C   UNL     1       1.173   1.783   0.000  0.00  0.00    +0.030 A 
ATOM      4  C   UNL     1       1.155   3.166   0.007  0.00  0.00    +0.108 A 
ATOM      5  C   UNL     1      -0.049   3.845   0.023  0.00  0.00    +0.063 A 
ATOM      6  C   UNL     1      -1.239   3.144   0.030  0.00  0.00    +0.149 A 
ENDROOT
BRANCH   1  14
ATOM      7  C   UNL     1      -4.290  -1.149   2.366  0.00  0.00    +0.125 A 
ATOM      8  C   UNL     1      -5.433  -1.933   2.361  0.00  0.00    +0.049 A 
ATOM      9  C   UNL     1      -6.096  -2.175   1.174  0.00  0.00    +0.049 A 
ATOM     10  C   UNL     1      -5.616  -1.632  -0.006  0.00  0.00    +0.126 A 
ATOM     11  C   UNL     1      -4.469  -0.845  -0.003  0.00  0.00    +0.032 A 
ATOM     12  C   UNL     1      -3.806  -0.605   1.180  0.00  0.00    +0.021 A 
ATOM     13  C   UNL     1      -2.555   0.233   1.235  0.00  0.00    +0.144 C 
ATOM     14  N   UNL     1      -2.426   1.042   0.019  0.00  0.00    -0.321 N 
ATOM     15  C   UNL     1      -2.535   0.189  -1.175  0.00  0.00    +0.141 C 
ATOM     16  C   UNL     1      -3.986  -0.272  -1.311  0.00  0.00    +0.166 C 
BRANCH   7  18
ATOM     17  C   UNL     1      -4.188  -1.500   4.716  0.00  0.00    +0.277 C 
ATOM     18  O   UNL     1      -3.639  -0.911   3.535  0.00  0.00    -0.495 OA
ENDBRANCH   7  18
BRANCH  16  19
ATOM     19  O   UNL     1      -4.073  -1.273  -2.328  0.00  0.00    -0.385 OA
ATOM     20  H   UNL     1      -3.762  -1.039  -3.357  0.00  0.00    +0.210 HD
ENDBRANCH  16  19
BRANCH  10  21
ATOM     21  O   UNL     1      -6.269  -1.871  -1.175  0.00  0.00    -0.495 OA
ATOM     22  C   UNL     1      -7.439  -2.688  -1.109  0.00  0.00    +0.277 C 
ENDBRANCH  10  21
ENDBRANCH   1  14
BRANCH   6  23
ATOM     23  N   UNL     1      -2.528   3.871   0.046  0.00  0.00    +0.058 N 
ATOM     24  O   UNL     1      -2.539   5.089   0.053  0.00  0.00    -0.126 OA
ATOM     25  O   UNL     1      -3.576   3.252   0.052  0.00  0.00    -0.126 OA
ENDBRANCH   6  23
BRANCH   4  26
ATOM     26  S   UNL     1       2.671   4.065  -0.002  0.00  0.00    +0.061 S 
ATOM     27  O   UNL     1       2.390   5.340   0.558  0.00  0.00    -0.153 OA
ATOM     28  O   UNL     1       3.660   3.198   0.535  0.00  0.00    -0.153 OA
BRANCH  26  29
ATOM     29  N   UNL     1       3.077   4.322  -1.587  0.00  0.00    -0.172 NA
ATOM     30  C   UNL     1       3.912   3.358  -2.321  0.00  0.00    +0.137 C 
ATOM     31  C   UNL     1       3.206   3.025  -3.645  0.00  0.00    +0.177 C 
ATOM     32  O   UNL     1       2.891   4.241  -4.328  0.00  0.00    -0.377 OA
ATOM     33  C   UNL     1       1.981   5.089  -3.624  0.00  0.00    +0.177 C 
ATOM     34  C   UNL     1       2.620   5.526  -2.300  0.00  0.00    +0.137 C 
ENDBRANCH  26  29
ENDBRANCH   4  26
TORSDOF 7
