REMARK  Name = ZINC05705217
REMARK  6 active torsions:
REMARK  status: ('A' for Active; 'I' for Inactive)
REMARK    1  A    between atoms: C_13  and  C_15
REMARK    2  A    between atoms: C_15  and  C_16
REMARK    3  A    between atoms: C_16  and  C_17
REMARK    4  A    between atoms: C_17  and  O_18
REMARK    5  A    between atoms: O_18  and  C_19
REMARK    6  A    between atoms: C_19  and  C_21
REMARK                            x       y       z     vdW  Elec       q    Type
REMARK                         _______ _______ _______ _____ _____    ______ ____
ROOT
ATOM      1  C   UNL     1      -0.013   1.076   0.008  0.00  0.00    +0.001 A 
ATOM      2  C   UNL     1       1.192   1.779   0.000  0.00  0.00    +0.001 A 
ATOM      3  C   UNL     1       1.211   3.138   0.007  0.00  0.00    +0.008 A 
ATOM      4  C   UNL     1      -0.004   3.853   0.023  0.00  0.00    -0.016 A 
ATOM      5  C   UNL     1      -0.014   5.252   0.030  0.00  0.00    +0.038 A 
ATOM      6  C   UNL     1      -1.224   5.929   0.044  0.00  0.00    +0.090 A 
ATOM      7  C   UNL     1      -2.442   5.211   0.052  0.00  0.00    +0.067 A 
ATOM      8  C   UNL     1      -2.445   3.835   0.046  0.00  0.00    +0.036 A 
ATOM      9  C   UNL     1      -1.230   3.136   0.031  0.00  0.00    -0.016 A 
ATOM     10  C   UNL     1      -1.205   1.729   0.017  0.00  0.00    +0.008 A 
ATOM     11  N   UNL     1      -3.444   6.166   0.066  0.00  0.00    -0.342 N 
ATOM     12  H   UNL     1      -4.429   5.992   0.074  0.00  0.00    +0.167 HD
ATOM     13  C   UNL     1      -2.840   7.386   0.066  0.00  0.00    +0.108 A 
ATOM     14  N   UNL     1      -1.547   7.251   0.053  0.00  0.00    -0.232 NA
ENDROOT
BRANCH  13  15
ATOM     15  C   UNL     1      -3.567   8.706   0.078  0.00  0.00    +0.077 C 
BRANCH  15  16
ATOM     16  C   UNL     1      -3.078   9.547   1.259  0.00  0.00    +0.049 C 
BRANCH  16  17
ATOM     17  C   UNL     1      -3.816  10.887   1.272  0.00  0.00    +0.232 C 
BRANCH  17  18
ATOM     18  O   UNL     1      -3.351  11.685   2.392  0.00  0.00    -0.464 OA
BRANCH  18  19
ATOM     19  C   UNL     1      -3.904  12.899   2.547  0.00  0.00    +0.310 C 
ATOM     20  O   UNL     1      -4.747  13.282   1.771  0.00  0.00    -0.251 OA
BRANCH  19  21
ATOM     21  C   UNL     1      -3.471  13.784   3.688  0.00  0.00    +0.098 C 
ATOM     22  C   UNL     1      -3.753  13.078   5.016  0.00  0.00    +0.015 C 
ATOM     23  C   UNL     1      -3.314  13.976   6.174  0.00  0.00    +0.001 C 
ATOM     24  C   UNL     1      -4.092  15.292   6.121  0.00  0.00    +0.000 C 
ATOM     25  C   UNL     1      -3.810  15.998   4.793  0.00  0.00    +0.001 C 
ATOM     26  C   UNL     1      -4.249  15.100   3.635  0.00  0.00    +0.015 C 
ENDBRANCH  19  21
ENDBRANCH  18  19
ENDBRANCH  17  18
ENDBRANCH  16  17
ENDBRANCH  15  16
ENDBRANCH  13  15
TORSDOF 6
