REMARK  Name = ZINC12845047
REMARK  8 active torsions:
REMARK  status: ('A' for Active; 'I' for Inactive)
REMARK    1  A    between atoms: C_1  and  C_2
REMARK    2  A    between atoms: C_5  and  C_8
REMARK    3  A    between atoms: C_11  and  C_38
REMARK    4  A    between atoms: C_16  and  C_19
REMARK    5  A    between atoms: N_21  and  C_22
REMARK    6  A    between atoms: C_27  and  C_28
REMARK    7  A    between atoms: C_28  and  C_30
REMARK    8  A    between atoms: C_28  and  O_36
REMARK                            x       y       z     vdW  Elec       q    Type
REMARK                         _______ _______ _______ _____ _____    ______ ____
ROOT
ATOM      1  C   UNL     1      -1.891  -4.939  -1.770  0.00  0.00    +0.113 C 
ATOM      2  C   UNL     1      -0.436  -4.740  -2.198  0.00  0.00    +0.059 C 
ATOM      3  C   UNL     1       0.398  -5.963  -1.786  0.00  0.00    +0.164 C 
ATOM      4  N   UNL     1       0.159  -6.190  -0.356  0.00  0.00    -0.229 N 
ATOM      5  C   UNL     1      -0.994  -5.761   0.285  0.00  0.00    +0.126 C 
ATOM      6  N   UNL     1      -1.975  -5.157  -0.321  0.00  0.00    -0.364 N 
ATOM      7  C   UNL     1      -0.841  -6.133   1.697  0.00  0.00    +0.091 C 
ATOM      8  C   UNL     1       0.375  -6.776   1.804  0.00  0.00    +0.104 C 
ATOM      9  N   UNL     1       0.966  -6.821   0.583  0.00  0.00    -0.269 N 
ATOM     10  H   UNL     1       1.823  -7.233   0.394  0.00  0.00    +0.170 HD
ATOM     11  H   UNL     1      -2.750  -4.856   0.178  0.00  0.00    +0.161 HD
ENDROOT
BRANCH   1  16
ATOM     12  C   UNL     1      -4.955  -0.244  -3.172  0.00  0.00    +0.044 C 
ATOM     13  C   UNL     1      -4.156  -1.469  -2.807  0.00  0.00    -0.050 A 
ATOM     14  C   UNL     1      -4.214  -2.596  -3.605  0.00  0.00    +0.004 A 
ATOM     15  C   UNL     1      -3.481  -3.719  -3.270  0.00  0.00    +0.006 A 
ATOM     16  C   UNL     1      -2.689  -3.715  -2.136  0.00  0.00    -0.025 A 
ATOM     17  C   UNL     1      -2.630  -2.587  -1.339  0.00  0.00    +0.006 A 
ATOM     18  C   UNL     1      -3.360  -1.463  -1.676  0.00  0.00    +0.004 A 
ENDBRANCH   1  16
BRANCH   7  19
ATOM     19  C   UNL     1      -1.794  -5.873   2.781  0.00  0.00    +0.253 C 
ATOM     20  O   UNL     1      -1.560  -6.272   3.906  0.00  0.00    -0.270 OA
ATOM     21  N   UNL     1      -2.930  -5.192   2.531  0.00  0.00    -0.281 N 
ATOM     22  H   UNL     1      -3.149  -4.930   1.622  0.00  0.00    +0.155 HD
BRANCH  21  23
ATOM     23  C   UNL     1      -3.794  -4.862   3.581  0.00  0.00    +0.040 A 
ATOM     24  C   UNL     1      -4.092  -5.803   4.558  0.00  0.00    +0.025 A 
ATOM     25  C   UNL     1      -4.945  -5.475   5.593  0.00  0.00    +0.022 A 
ATOM     26  C   UNL     1      -5.502  -4.210   5.657  0.00  0.00    +0.041 A 
ATOM     27  C   UNL     1      -5.208  -3.271   4.685  0.00  0.00    +0.028 A 
ATOM     28  C   UNL     1      -4.350  -3.592   3.651  0.00  0.00    +0.008 A 
ATOM     29 CL   UNL     1      -6.574  -3.800   6.960  0.00  0.00    -0.084 Cl
BRANCH  28  30
ATOM     30  C   UNL     1      -4.024  -2.567   2.595  0.00  0.00    +0.176 C 
BRANCH  30  31
ATOM     31  C   UNL     1      -2.763  -1.836   2.977  0.00  0.00    -0.015 A 
ATOM     32  C   UNL     1      -2.825  -0.742   3.820  0.00  0.00    +0.006 A 
ATOM     33  C   UNL     1      -1.668  -0.072   4.170  0.00  0.00    +0.000 A 
ATOM     34  C   UNL     1      -0.448  -0.497   3.678  0.00  0.00    +0.000 A 
ATOM     35  C   UNL     1      -0.385  -1.592   2.836  0.00  0.00    +0.000 A 
ATOM     36  C   UNL     1      -1.542  -2.264   2.489  0.00  0.00    +0.006 A 
ENDBRANCH  30  31
BRANCH  30  37
ATOM     37  O   UNL     1      -5.101  -1.633   2.489  0.00  0.00    -0.382 OA
ATOM     38  H   UNL     1      -5.287  -1.152   3.307  0.00  0.00    +0.211 HD
ENDBRANCH  30  37
ENDBRANCH  28  30
ENDBRANCH  21  23
ENDBRANCH   7  19
BRANCH   3  39
ATOM     39  C   UNL     1      -0.042  -7.188  -2.590  0.00  0.00    +0.363 C 
ATOM     40  F   UNL     1       0.722  -8.296  -2.208  0.00  0.00    -0.207 F 
ATOM     41  F   UNL     1      -1.395  -7.447  -2.343  0.00  0.00    -0.207 F 
ENDBRANCH   3  39
TORSDOF 7
