REMARK  Name = ZINC02843693
REMARK  5 active torsions:
REMARK  status: ('A' for Active; 'I' for Inactive)
REMARK    1  A    between atoms: C_3  and  S_8
REMARK    2  A    between atoms: S_8  and  C_9
REMARK    3  A    between atoms: C_15  and  N_17
REMARK    4  A    between atoms: N_17  and  S_18
REMARK    5  A    between atoms: S_18  and  C_21
REMARK                            x       y       z     vdW  Elec       q    Type
REMARK                         _______ _______ _______ _____ _____    ______ ____
ROOT
ATOM      1  C   UNL     1      -1.838   6.292  -0.100  0.00  0.00    +0.070 C 
ATOM      2  C   UNL     1      -2.401   5.715  -1.401  0.00  0.00    +0.016 C 
ATOM      3  C   UNL     1      -3.886   6.065  -1.514  0.00  0.00    +0.001 C 
ATOM      4  C   UNL     1      -4.052   7.586  -1.517  0.00  0.00    +0.002 C 
ATOM      5  C   UNL     1      -3.489   8.164  -0.217  0.00  0.00    +0.021 C 
ATOM      6  C   UNL     1      -2.004   7.813  -0.104  0.00  0.00    +0.090 C 
ENDROOT
BRANCH   6   7
ATOM      7  N   UNL     1      -1.466   8.366   1.141  0.00  0.00    -0.186 NA
ATOM      8  H   UNL     1      -1.551   7.869   1.970  0.00  0.00    +0.148 HD
BRANCH   7   9
ATOM      9  S   UNL     1      -0.711   9.840   1.134  0.00  0.00    +0.059 S 
ATOM     10  O   UNL     1      -0.330  10.107   2.477  0.00  0.00    -0.153 OA
ATOM     11  O   UNL     1       0.227   9.811   0.067  0.00  0.00    -0.153 OA
BRANCH   9  12
ATOM     12  C   UNL     1      -1.924  11.044   0.706  0.00  0.00    +0.105 A 
ATOM     13  C   UNL     1      -2.129  11.378  -0.620  0.00  0.00    +0.030 A 
ATOM     14  C   UNL     1      -3.084  12.318  -0.956  0.00  0.00    +0.022 A 
ATOM     15  C   UNL     1      -3.828  12.934   0.035  0.00  0.00    +0.041 A 
ATOM     16  C   UNL     1      -3.619  12.603   1.362  0.00  0.00    +0.022 A 
ATOM     17  C   UNL     1      -2.668  11.659   1.697  0.00  0.00    +0.030 A 
ATOM     18 CL   UNL     1      -5.023  14.120  -0.387  0.00  0.00    -0.084 Cl
ENDBRANCH   9  12
ENDBRANCH   7   9
ENDBRANCH   6   7
BRANCH   1  19
ATOM     19  S   UNL     1      -0.078   5.876   0.034  0.00  0.00    -0.120 S 
BRANCH  19  22
ATOM     20  C   UNL     1      -1.260   2.100   0.751  0.00  0.00    +0.039 A 
ATOM     21  C   UNL     1      -1.268   3.463   0.529  0.00  0.00    +0.017 A 
ATOM     22  C   UNL     1      -0.071   4.139   0.325  0.00  0.00    +0.008 A 
ATOM     23  C   UNL     1       1.131   3.442   0.350  0.00  0.00    +0.017 A 
ATOM     24  C   UNL     1       1.133   2.080   0.579  0.00  0.00    +0.039 A 
ATOM     25  C   UNL     1      -0.060   1.409   0.782  0.00  0.00    +0.123 A 
ATOM     26  F   UNL     1      -0.056   0.076   1.005  0.00  0.00    -0.205 F 
ENDBRANCH  19  22
ENDBRANCH   1  19
TORSDOF 5
