REMARK  Name = ZINC65340191
REMARK  8 active torsions:
REMARK  status: ('A' for Active; 'I' for Inactive)
REMARK    1  A    between atoms: C_1  and  C_2
REMARK    2  A    between atoms: C_2  and  C_3
REMARK    3  A    between atoms: C_2  and  C_4
REMARK    4  A    between atoms: C_2  and  N_5
REMARK    5  A    between atoms: N_5  and  S_6
REMARK    6  A    between atoms: S_6  and  C_9
REMARK    7  A    between atoms: C_12  and  C_15
REMARK    8  A    between atoms: C_20  and  O_21
REMARK                            x       y       z     vdW  Elec       q    Type
REMARK                         _______ _______ _______ _____ _____    ______ ____
ROOT
ATOM      1  C   UNL     1       2.943  -0.208  -0.015  0.00  0.00    +0.105 A 
ATOM      2  C   UNL     1       2.885   0.506   1.169  0.00  0.00    +0.029 A 
ATOM      3  C   UNL     1       3.675   0.138   2.239  0.00  0.00    +0.010 A 
ATOM      4  C   UNL     1       4.531  -0.956   2.127  0.00  0.00    -0.014 A 
ATOM      5  C   UNL     1       4.585  -1.672   0.932  0.00  0.00    +0.010 A 
ATOM      6  C   UNL     1       3.787  -1.298  -0.130  0.00  0.00    +0.029 A 
ENDROOT
BRANCH   4   7
ATOM      7  C   UNL     1       5.382  -1.356   3.273  0.00  0.00    +0.024 A 
ATOM      8  C   UNL     1       6.157  -0.407   3.934  0.00  0.00    +0.012 A 
ATOM      9  C   UNL     1       6.948  -0.784   5.001  0.00  0.00    +0.001 A 
ATOM     10  C   UNL     1       6.973  -2.104   5.417  0.00  0.00    +0.004 A 
ATOM     11  C   UNL     1       6.207  -3.054   4.768  0.00  0.00    +0.046 A 
ATOM     12  C   UNL     1       5.405  -2.688   3.700  0.00  0.00    +0.125 A 
BRANCH  12  13
ATOM     13  O   UNL     1       4.647  -3.620   3.065  0.00  0.00    -0.506 OA
ATOM     14  H   UNL     1       5.096  -4.055   2.328  0.00  0.00    +0.292 HD
ENDBRANCH  12  13
ENDBRANCH   4   7
BRANCH   1  15
ATOM     15  S   UNL     1       1.933   0.269  -1.377  0.00  0.00    +0.059 S 
ATOM     16  O   UNL     1       2.439  -0.415  -2.516  0.00  0.00    -0.153 OA
ATOM     17  O   UNL     1       1.822   1.685  -1.325  0.00  0.00    -0.153 OA
BRANCH  15  18
ATOM     18  N   UNL     1       0.417  -0.335  -1.098  0.00  0.00    -0.185 NA
ATOM     19  H   UNL     1      -0.319   0.269  -0.911  0.00  0.00    +0.149 HD
BRANCH  18  21
ATOM     20  C   UNL     1       1.202  -2.481  -0.226  0.00  0.00    +0.029 C 
ATOM     21  C   UNL     1       0.186  -1.782  -1.131  0.00  0.00    +0.032 C 
ATOM     22  C   UNL     1       0.346  -2.290  -2.565  0.00  0.00    +0.029 C 
ATOM     23  C   UNL     1      -1.230  -2.084  -0.638  0.00  0.00    +0.029 C 
ENDBRANCH  18  21
ENDBRANCH  15  18
ENDBRANCH   1  15
TORSDOF 5
