REMARK  Name = ZINC28581339
REMARK  7 active torsions:
REMARK  status: ('A' for Active; 'I' for Inactive)
REMARK    1  A    between atoms: C_4  and  C_7
REMARK    2  A    between atoms: C_12  and  O_13
REMARK    3  A    between atoms: O_13  and  C_14
REMARK    4  A    between atoms: C_14  and  C_15
REMARK    5  A    between atoms: N_17  and  N_18
REMARK    6  A    between atoms: C_19  and  C_21
REMARK    7  A    between atoms: C_26  and  O_27
REMARK                            x       y       z     vdW  Elec       q    Type
REMARK                         _______ _______ _______ _____ _____    ______ ____
ROOT
ATOM      1  C   UNL     1       3.560   7.370   0.005  0.00  0.00    +0.267 C 
ATOM      2  O   UNL     1       2.497   7.955   0.019  0.00  0.00    -0.271 OA
ATOM      3  N   UNL     1       3.588   6.023  -0.002  0.00  0.00    -0.231 N 
ATOM      4  H   UNL     1       4.552   5.492  -0.014  0.00  0.00    +0.173 HD
ENDROOT
BRANCH   3   5
ATOM      5  N   UNL     1       2.389   5.297   0.006  0.00  0.00    -0.230 N 
ATOM      6  C   UNL     1       2.417   3.950  -0.001  0.00  0.00    +0.264 C 
ATOM      7  O   UNL     1       3.482   3.364  -0.014  0.00  0.00    -0.269 OA
ATOM      8  H   UNL     1       1.425   5.827   0.018  0.00  0.00    +0.173 HD
BRANCH   6   9
ATOM      9  C   UNL     1       1.155   3.186   0.008  0.00  0.00    +0.081 A 
ATOM     10  C   UNL     1      -0.071   3.855   0.022  0.00  0.00    +0.036 A 
ATOM     11  C   UNL     1      -1.247   3.135   0.030  0.00  0.00    +0.042 A 
ATOM     12  C   UNL     1      -1.218   1.749   0.017  0.00  0.00    +0.023 A 
ATOM     13  C   UNL     1      -0.013   1.076   0.008  0.00  0.00    +0.047 A 
ATOM     14  C   UNL     1       1.180   1.785   0.000  0.00  0.00    +0.129 A 
ATOM     15 CL   UNL     1      -2.770   3.967   0.048  0.00  0.00    -0.084 Cl
BRANCH  14  16
ATOM     16  O   UNL     1       2.365   1.124  -0.015  0.00  0.00    -0.506 OA
ATOM     17  H   UNL     1       2.381   0.024  -0.020  0.00  0.00    +0.292 HD
ENDBRANCH  14  16
ENDBRANCH   6   9
ENDBRANCH   3   5
BRANCH   1  18
ATOM     18  C   UNL     1       4.849   8.150  -0.003  0.00  0.00    +0.326 C 
BRANCH  18  19
ATOM     19  O   UNL     1       4.559   9.550   0.007  0.00  0.00    -0.482 OA
BRANCH  19  25
ATOM     20  C   UNL     1       5.410  11.782   0.004  0.00  0.00    +0.024 A 
ATOM     21  C   UNL     1       6.503  12.645   0.002  0.00  0.00    +0.012 A 
ATOM     22  C   UNL     1       7.785  12.133  -0.013  0.00  0.00    +0.001 A 
ATOM     23  C   UNL     1       7.988  10.764  -0.022  0.00  0.00    +0.004 A 
ATOM     24  C   UNL     1       6.911   9.899  -0.015  0.00  0.00    +0.046 A 
ATOM     25  C   UNL     1       5.619  10.399   0.001  0.00  0.00    +0.129 A 
BRANCH  20  29
ATOM     26  C   UNL     1       1.455  13.343   0.034  0.00  0.00    +0.000 A 
ATOM     27  C   UNL     1       2.386  13.806   0.947  0.00  0.00    +0.001 A 
ATOM     28  C   UNL     1       3.671  13.303   0.941  0.00  0.00    +0.008 A 
ATOM     29  C   UNL     1       4.030  12.326   0.014  0.00  0.00    -0.014 A 
ATOM     30  C   UNL     1       3.090  11.868  -0.907  0.00  0.00    +0.008 A 
ATOM     31  C   UNL     1       1.806  12.374  -0.888  0.00  0.00    +0.001 A 
ENDBRANCH  20  29
ENDBRANCH  19  25
ENDBRANCH  18  19
ENDBRANCH   1  18
TORSDOF 7
