REMARK  Name = ZINC13480152
REMARK  3 active torsions:
REMARK  status: ('A' for Active; 'I' for Inactive)
REMARK    1  A    between atoms: C_1  and  C_2
REMARK    2  A    between atoms: C_3  and  C_4
REMARK    3  A    between atoms: C_5  and  C_6
REMARK                            x       y       z     vdW  Elec       q    Type
REMARK                         _______ _______ _______ _____ _____    ______ ____
ROOT
ATOM      1  C   UNL     1      -2.269  -4.259   0.001  0.00  0.00    +0.030 C 
ATOM      2  C   UNL     1      -3.455  -4.978   0.003  0.00  0.00    +0.069 C 
ATOM      3  C   UNL     1      -3.443  -6.367   0.018  0.00  0.00    +0.159 C 
ATOM      4  O   UNL     1      -4.495  -6.978  -0.005  0.00  0.00    -0.293 OA
ATOM      5  C   UNL     1      -2.142  -7.126   0.060  0.00  0.00    +0.097 C 
ATOM      6  C   UNL     1      -1.043  -6.288  -0.603  0.00  0.00    +0.109 C 
ATOM      7  N   UNL     1      -1.068  -4.942  -0.014  0.00  0.00    -0.343 N 
ATOM      8  H   UNL     1      -0.263  -4.547   0.356  0.00  0.00    +0.146 HD
ENDROOT
BRANCH   1  10
ATOM      9  C   UNL     1      -1.125  -2.150   0.001  0.00  0.00    +0.001 C 
ATOM     10  C   UNL     1      -2.288  -2.842   0.009  0.00  0.00    +0.023 C 
BRANCH   9  13
ATOM     11  C   UNL     1      -0.018   1.503   0.010  0.00  0.00    +0.035 C 
ATOM     12  C   UNL     1       0.002  -0.004   0.002  0.00  0.00    -0.030 C 
ATOM     13  C   UNL     1      -1.145  -0.687   0.009  0.00  0.00    -0.004 C 
ENDBRANCH   9  13
ENDBRANCH   1  10
TORSDOF 2
