REMARK  Name = ZINC35876679
REMARK  4 active torsions:
REMARK  status: ('A' for Active; 'I' for Inactive)
REMARK    1  A    between atoms: C_1  and  C_2
REMARK    2  A    between atoms: C_2  and  C_3
REMARK    3  A    between atoms: C_23  and  C_31
REMARK    4  A    between atoms: C_31  and  C_33
REMARK                            x       y       z     vdW  Elec       q    Type
REMARK                         _______ _______ _______ _____ _____    ______ ____
ROOT
ATOM      1  C   UNL     1       0.707  -0.479  -1.310  0.00  0.00    -0.047 A 
ATOM      2  C   UNL     1       0.004  -0.717  -2.477  0.00  0.00    +0.005 A 
ATOM      3  C   UNL     1       0.656  -1.173  -3.604  0.00  0.00    +0.024 A 
ATOM      4  C   UNL     1       2.031  -1.398  -3.574  0.00  0.00    +0.036 A 
ATOM      5  C   UNL     1       2.727  -1.155  -2.395  0.00  0.00    -0.026 A 
ATOM      6  C   UNL     1       2.074  -0.694  -1.274  0.00  0.00    +0.008 A 
ATOM      7  C   UNL     1       4.167  -1.489  -2.685  0.00  0.00    +0.060 C 
ATOM      8  C   UNL     1       4.173  -1.933  -4.126  0.00  0.00    +0.212 C 
ATOM      9  O   UNL     1       5.137  -2.295  -4.767  0.00  0.00    -0.277 OA
ATOM     10  N   UNL     1       2.903  -1.852  -4.565  0.00  0.00    -0.286 N 
ATOM     11  C   UNL     1       5.070  -0.281  -2.475  0.00  0.00    +0.085 C 
ATOM     12  C   UNL     1       6.031  -0.090  -3.615  0.00  0.00    -0.011 A 
ATOM     13  C   UNL     1       7.002  -0.886  -4.180  0.00  0.00    +0.006 A 
ATOM     14  C   UNL     1       7.746  -0.419  -5.249  0.00  0.00    +0.000 A 
ATOM     15  C   UNL     1       7.512   0.849  -5.748  0.00  0.00    +0.002 A 
ATOM     16  C   UNL     1       6.540   1.650  -5.186  0.00  0.00    +0.023 A 
ATOM     17  C   UNL     1       5.786   1.187  -4.110  0.00  0.00    +0.038 A 
ATOM     18  N   UNL     1       4.762   1.798  -3.383  0.00  0.00    -0.285 N 
ATOM     19  C   UNL     1       4.287   1.002  -2.406  0.00  0.00    +0.228 C 
ATOM     20  O   UNL     1       3.402   1.268  -1.621  0.00  0.00    -0.275 OA
ATOM     21  C   UNL     1       5.813  -0.552  -1.159  0.00  0.00    +0.066 C 
ATOM     22  C   UNL     1       5.820  -2.087  -1.059  0.00  0.00    -0.055 C 
ATOM     23  N   UNL     1       4.636  -2.571  -1.804  0.00  0.00    +0.395 N 
ATOM     24  C   UNL     1       3.584  -2.829  -0.786  0.00  0.00    -0.076 C 
ATOM     25  C   UNL     1       4.368  -3.363   0.436  0.00  0.00    -0.020 C 
ATOM     26  C   UNL     1       5.687  -2.528   0.405  0.00  0.00    -0.016 C 
ATOM     27  H   UNL     1       2.626  -2.081  -5.466  0.00  0.00    +0.155 HD
ATOM     28  H   UNL     1       4.430   2.692  -3.562  0.00  0.00    +0.155 HD
ATOM     29  H   UNL     1       4.856  -3.400  -2.335  0.00  0.00    -0.079 HD
ENDROOT
BRANCH   1  31
ATOM     30  C   UNL     1      -0.030   1.549  -0.088  0.00  0.00    +0.009 C 
ATOM     31  C   UNL     1      -0.012   0.019  -0.083  0.00  0.00    +0.032 C 
ENDBRANCH   1  31
BRANCH  21  32
ATOM     32  C   UNL     1       7.220  -0.014  -1.223  0.00  0.00    +0.167 C 
ATOM     33  O   UNL     1       8.133  -0.743  -1.548  0.00  0.00    -0.292 OA
BRANCH  32  34
ATOM     34  C   UNL     1       7.484   1.394  -0.892  0.00  0.00    +0.036 A 
ATOM     35  C   UNL     1       6.457   2.206  -0.400  0.00  0.00    +0.013 A 
ATOM     36  C   UNL     1       6.713   3.525  -0.092  0.00  0.00    +0.001 A 
ATOM     37  C   UNL     1       7.983   4.047  -0.267  0.00  0.00    +0.001 A 
ATOM     38  C   UNL     1       9.006   3.252  -0.753  0.00  0.00    +0.021 A 
ATOM     39  C   UNL     1       8.768   1.927  -1.061  0.00  0.00    +0.051 A 
ATOM     40 CL   UNL     1      10.053   0.928  -1.663  0.00  0.00    -0.083 Cl
ENDBRANCH  32  34
ENDBRANCH  21  32
TORSDOF 3
