REMARK  Name = ZINC44857619
REMARK  3 active torsions:
REMARK  status: ('A' for Active; 'I' for Inactive)
REMARK    1  A    between atoms: N_13  and  C_16
REMARK    2  A    between atoms: C_16  and  C_17
REMARK    3  A    between atoms: C_20  and  C_23
REMARK                            x       y       z     vdW  Elec       q    Type
REMARK                         _______ _______ _______ _____ _____    ______ ____
ROOT
ATOM      1  C   UNL     1      -0.017   1.377   0.010  0.00  0.00    +0.002 A 
ATOM      2  C   UNL     1       1.156   2.109   0.002  0.00  0.00    +0.002 A 
ATOM      3  C   UNL     1       2.405   1.506  -0.021  0.00  0.00    +0.028 A 
ATOM      4  C   UNL     1       2.466   0.119  -0.057  0.00  0.00    +0.072 A 
ATOM      5  C   UNL     1       1.255  -0.625  -0.024  0.00  0.00    +0.091 A 
ATOM      6  C   UNL     1       0.002  -0.004   0.002  0.00  0.00    +0.030 A 
ATOM      7  N   UNL     1       1.584  -1.930  -0.004  0.00  0.00    -0.214 NA
ATOM      8  C   UNL     1       2.880  -2.041  -0.056  0.00  0.00    +0.205 A 
ATOM      9  N   UNL     1       3.482  -0.796  -0.119  0.00  0.00    -0.286 N 
ATOM     10  C   UNL     1       4.930  -0.653  -0.217  0.00  0.00    +0.140 C 
ATOM     11  C   UNL     1       5.359   0.135  -1.455  0.00  0.00    +0.034 C 
ATOM     12  C   UNL     1       5.235   1.642  -1.279  0.00  0.00    -0.074 C 
ATOM     13  N   UNL     1       5.925   2.085  -0.067  0.00  0.00    +0.383 N 
ATOM     14  C   UNL     1       5.347   1.454   1.122  0.00  0.00    -0.074 C 
ATOM     15  C   UNL     1       5.535  -0.058   1.054  0.00  0.00    +0.034 C 
ATOM     16  N   UNL     1       5.555  -1.983  -0.374  0.00  0.00    -0.228 NA
ATOM     17  C   UNL     1       4.966  -3.115  -0.272  0.00  0.00    +0.182 C 
ATOM     18  N   UNL     1       3.609  -3.222  -0.050  0.00  0.00    -0.258 N 
ATOM     19  N   UNL     1       5.707  -4.269  -0.387  0.00  0.00    -0.331 N 
ATOM     20  H   UNL     1       6.663  -4.217  -0.544  0.00  0.00    +0.145 HD
ATOM     21  H   UNL     1       3.183  -4.080   0.105  0.00  0.00    +0.158 HD
ATOM     22  H   UNL     1       6.904   1.830  -0.132  0.00  0.00    -0.081 HD
ATOM     23  H   UNL     1       5.274  -5.133  -0.311  0.00  0.00    +0.145 HD
ENDROOT
BRANCH  13  24
ATOM     24  C   UNL     1       5.827   3.547   0.053  0.00  0.00    -0.043 C 
BRANCH  24  25
ATOM     25  C   UNL     1       6.640   4.009   1.234  0.00  0.00    -0.064 A 
ATOM     26  C   UNL     1       6.057   4.094   2.485  0.00  0.00    +0.002 A 
ATOM     27  C   UNL     1       6.803   4.519   3.568  0.00  0.00    +0.012 A 
ATOM     28  C   UNL     1       8.133   4.858   3.401  0.00  0.00    +0.055 A 
ATOM     29  C   UNL     1       8.716   4.772   2.151  0.00  0.00    +0.012 A 
ATOM     30  C   UNL     1       7.971   4.344   1.068  0.00  0.00    +0.002 A 
BRANCH  28  31
ATOM     31  C   UNL     1       8.946   5.322   4.582  0.00  0.00    +0.417 C 
ATOM     32  F   UNL     1       9.547   4.218   5.196  0.00  0.00    -0.166 F 
ATOM     33  F   UNL     1       9.936   6.210   4.147  0.00  0.00    -0.166 F 
ATOM     34  F   UNL     1       8.110   5.968   5.499  0.00  0.00    -0.166 F 
ENDBRANCH  28  31
ENDBRANCH  24  25
ENDBRANCH  13  24
TORSDOF 3
