REMARK  Name = ZINC61515074
REMARK  5 active torsions:
REMARK  status: ('A' for Active; 'I' for Inactive)
REMARK    1  A    between atoms: C_1  and  N_2
REMARK    2  A    between atoms: N_2  and  C_3
REMARK    3  A    between atoms: C_3  and  C_4
REMARK    4  A    between atoms: C_12  and  O_17
REMARK    5  A    between atoms: O_17  and  C_18
REMARK                            x       y       z     vdW  Elec       q    Type
REMARK                         _______ _______ _______ _____ _____    ______ ____
ROOT
ATOM      1  C   UNL     1      -0.018   1.461   0.010  0.00  0.00    +0.132 C 
ATOM      2  N   UNL     1       0.002  -0.004   0.002  0.00  0.00    -0.298 N 
ATOM      3  C   UNL     1       0.000  -0.688  -1.197  0.00  0.00    +0.225 A 
ATOM      4  N   UNL     1      -0.015  -0.018  -2.345  0.00  0.00    -0.161 NA
ATOM      5  C   UNL     1      -0.017  -0.678  -3.495  0.00  0.00    +0.323 A 
ATOM      6  N   UNL     1      -0.004  -2.007  -3.498  0.00  0.00    -0.164 NA
ATOM      7  C   UNL     1       0.011  -2.673  -2.354  0.00  0.00    +0.230 A 
ATOM      8  N   UNL     1       0.018  -2.018  -1.205  0.00  0.00    -0.184 NA
ATOM      9 CL   UNL     1       0.027  -4.409  -2.363  0.00  0.00    -0.041 Cl
ENDROOT
BRANCH   5  10
ATOM     10  O   UNL     1      -0.032   0.001  -4.665  0.00  0.00    -0.466 OA
ATOM     11  C   UNL     1      -0.033  -0.774  -5.866  0.00  0.00    +0.280 C 
ENDBRANCH   5  10
BRANCH   2  12
ATOM     12  C   UNL     1       0.024  -0.743   1.267  0.00  0.00    +0.143 C 
BRANCH  12  13
ATOM     13  C   UNL     1      -1.389  -1.016   1.714  0.00  0.00    -0.022 A 
ATOM     14  C   UNL     1      -2.057  -0.112   2.519  0.00  0.00    +0.028 A 
ATOM     15  C   UNL     1      -3.328  -0.389   2.903  0.00  0.00    +0.055 A 
ATOM     16  S   UNL     1      -3.616  -1.966   2.119  0.00  0.00    -0.090 S 
ATOM     17  C   UNL     1      -2.026  -2.148   1.328  0.00  0.00    +0.051 A 
ATOM     18 BR   UNL     1      -4.492   0.632   3.989  0.00  0.00    -0.043 Br
ENDBRANCH  12  13
ENDBRANCH   2  12
TORSDOF 3
