REMARK  Name = ZINC64507943
REMARK  8 active torsions:
REMARK  status: ('A' for Active; 'I' for Inactive)
REMARK    1  A    between atoms: C_2  and  C_3
REMARK    2  A    between atoms: C_3  and  N_4
REMARK    3  A    between atoms: N_4  and  C_5
REMARK    4  A    between atoms: N_4  and  C_12
REMARK    5  A    between atoms: C_5  and  C_6
REMARK    6  A    between atoms: C_12  and  C_13
REMARK    7  A    between atoms: N_15  and  C_16
REMARK    8  A    between atoms: N_19  and  C_22
REMARK                            x       y       z     vdW  Elec       q    Type
REMARK                         _______ _______ _______ _____ _____    ______ ____
ROOT
ATOM      1  C   UNL     1       1.048  -1.764  -0.915  0.00  0.00    +0.197 C 
ATOM      2  O   UNL     1       1.040  -0.555  -1.008  0.00  0.00    -0.278 OA
ATOM      3  N   UNL     1       2.211  -2.417  -0.725  0.00  0.00    -0.314 N 
ATOM      4  H   UNL     1       2.218  -3.385  -0.650  0.00  0.00    +0.149 HD
ENDROOT
BRANCH   3   5
ATOM      5  C   UNL     1       3.466  -1.667  -0.630  0.00  0.00    +0.069 C 
ATOM      6  C   UNL     1       4.019  -1.414  -2.036  0.00  0.00    +0.003 C 
ATOM      7  C   UNL     1       5.368  -0.700  -1.927  0.00  0.00    -0.077 C 
ATOM      8  N   UNL     1       6.309  -1.537  -1.173  0.00  0.00    +0.382 N 
ATOM      9  C   UNL     1       5.820  -1.724   0.198  0.00  0.00    -0.077 C 
ATOM     10  C   UNL     1       4.489  -2.478   0.171  0.00  0.00    +0.003 C 
ATOM     11  H   UNL     1       6.394  -2.436  -1.624  0.00  0.00    -0.081 HD
BRANCH   8  12
ATOM     12  C   UNL     1       7.624  -0.883  -1.138  0.00  0.00    -0.069 C 
ATOM     13  C   UNL     1       8.761  -1.541  -1.922  0.00  0.00    -0.017 C 
ATOM     14  C   UNL     1       8.750  -1.602  -0.394  0.00  0.00    -0.017 C 
ENDBRANCH   8  12
ENDBRANCH   3   5
BRANCH   1  15
ATOM     15  C   UNL     1      -0.243  -2.536  -1.012  0.00  0.00    +0.019 C 
BRANCH  15  16
ATOM     16  N   UNL     1      -1.337  -1.619  -1.355  0.00  0.00    +0.391 N 
ATOM     17  H   UNL     1      -1.352  -0.853  -0.699  0.00  0.00    -0.080 HD
BRANCH  16  18
ATOM     18  C   UNL     1      -2.616  -2.339  -1.296  0.00  0.00    -0.051 C 
BRANCH  18  20
ATOM     19  C   UNL     1      -4.021  -2.399   0.701  0.00  0.00    +0.002 C 
ATOM     20  C   UNL     1      -2.896  -2.750   0.127  0.00  0.00    -0.053 C 
ENDBRANCH  18  20
ENDBRANCH  16  18
BRANCH  16  21
ATOM     21  C   UNL     1      -1.132  -1.096  -2.712  0.00  0.00    -0.034 C 
BRANCH  21  22
ATOM     22  C   UNL     1      -2.185  -0.063  -3.018  0.00  0.00    -0.025 A 
ATOM     23  C   UNL     1      -2.153   1.276  -2.812  0.00  0.00    +0.011 A 
ATOM     24  C   UNL     1      -3.248   2.037  -3.175  0.00  0.00    +0.028 A 
ATOM     25  C   UNL     1      -4.323   1.421  -3.727  0.00  0.00    +0.078 A 
ATOM     26  S   UNL     1      -3.797  -0.285  -3.754  0.00  0.00    -0.084 S 
ATOM     27 CL   UNL     1      -5.819   2.112  -4.272  0.00  0.00    -0.076 Cl
ENDBRANCH  21  22
ENDBRANCH  16  21
ENDBRANCH  15  16
ENDBRANCH   1  15
TORSDOF 8
