REMARK  Name = ZINC59251123
REMARK  5 active torsions:
REMARK  status: ('A' for Active; 'I' for Inactive)
REMARK    1  A    between atoms: C_4  and  C_7
REMARK    2  A    between atoms: C_10  and  C_15
REMARK    3  A    between atoms: N_17  and  C_18
REMARK    4  A    between atoms: C_18  and  C_20
REMARK    5  A    between atoms: C_18  and  C_26
REMARK                            x       y       z     vdW  Elec       q    Type
REMARK                         _______ _______ _______ _____ _____    ______ ____
ROOT
ATOM      1  C   UNL     1       7.373  -2.764  -0.088  0.00  0.00    +0.250 C 
ATOM      2  O   UNL     1       8.425  -2.159  -0.185  0.00  0.00    -0.270 OA
ATOM      3  N   UNL     1       7.376  -4.109   0.001  0.00  0.00    -0.297 N 
ATOM      4  H   UNL     1       6.537  -4.596   0.004  0.00  0.00    +0.150 HD
ENDROOT
BRANCH   1   8
ATOM      5  C   UNL     1       3.695  -0.682  -0.032  0.00  0.00    +0.049 A 
ATOM      6  C   UNL     1       4.876   0.036  -0.018  0.00  0.00    +0.027 A 
ATOM      7  C   UNL     1       6.093  -0.632  -0.035  0.00  0.00    +0.020 A 
ATOM      8  C   UNL     1       6.102  -2.028  -0.068  0.00  0.00    +0.101 A 
ATOM      9  C   UNL     1       4.868  -2.727  -0.081  0.00  0.00    +0.261 A 
ATOM     10  O   UNL     1       4.859  -3.946  -0.109  0.00  0.00    -0.267 OA
ATOM     11  N   UNL     1       3.707  -2.047  -0.058  0.00  0.00    -0.321 N 
ATOM     12  H   UNL     1       2.868  -2.533  -0.063  0.00  0.00    +0.169 HD
BRANCH   5  16
ATOM     13  C   UNL     1      -0.016   1.381   0.022  0.00  0.00    +0.000 A 
ATOM     14  C   UNL     1       1.169   2.095   0.031  0.00  0.00    +0.001 A 
ATOM     15  C   UNL     1       2.378   1.431   0.014  0.00  0.00    +0.010 A 
ATOM     16  C   UNL     1       2.405   0.035  -0.013  0.00  0.00    -0.002 A 
ATOM     17  C   UNL     1       1.204  -0.680  -0.021  0.00  0.00    +0.010 A 
ATOM     18  C   UNL     1       0.003  -0.003  -0.004  0.00  0.00    +0.001 A 
ENDBRANCH   5  16
ENDBRANCH   1   8
BRANCH   3  19
ATOM     19  C   UNL     1       8.645  -4.835   0.094  0.00  0.00    +0.170 C 
BRANCH  19  20
ATOM     20  C   UNL     1       8.459  -6.238  -0.422  0.00  0.00    -0.020 A 
ATOM     21  C   UNL     1       7.303  -6.936  -0.127  0.00  0.00    +0.006 A 
ATOM     22  C   UNL     1       7.133  -8.223  -0.601  0.00  0.00    +0.000 A 
ATOM     23  C   UNL     1       8.119  -8.813  -1.369  0.00  0.00    +0.000 A 
ATOM     24  C   UNL     1       9.275  -8.116  -1.664  0.00  0.00    +0.000 A 
ATOM     25  C   UNL     1       9.444  -6.826  -1.194  0.00  0.00    +0.006 A 
ENDBRANCH  19  20
BRANCH  19  26
ATOM     26  C   UNL     1       9.092  -4.883   1.532  0.00  0.00    +0.129 A 
ATOM     27  C   UNL     1      10.355  -4.731   1.969  0.00  0.00    +0.047 A 
ATOM     28  C   UNL     1      10.318  -4.849   3.378  0.00  0.00    +0.041 A 
ATOM     29  C   UNL     1       9.035  -5.065   3.717  0.00  0.00    +0.195 A 
ATOM     30  O   UNL     1       8.296  -5.079   2.596  0.00  0.00    -0.466 OA
ENDBRANCH  19  26
ENDBRANCH   3  19
TORSDOF 5
