REMARK  Name = ZINC35686221
REMARK  6 active torsions:
REMARK  status: ('A' for Active; 'I' for Inactive)
REMARK    1  A    between atoms: N_7  and  C_8
REMARK    2  A    between atoms: C_8  and  C_9
REMARK    3  A    between atoms: C_9  and  C_11
REMARK    4  A    between atoms: C_9  and  O_28
REMARK    5  A    between atoms: C_11  and  O_12
REMARK    6  A    between atoms: O_12  and  C_13
REMARK                            x       y       z     vdW  Elec       q    Type
REMARK                         _______ _______ _______ _____ _____    ______ ____
ROOT
ATOM      1  O   UNL     1      -0.675  -6.500  -0.272  0.00  0.00    -0.489 OA
ENDROOT
BRANCH   1   2
ATOM      2  C   UNL     1      -1.727  -7.350  -0.388  0.00  0.00    +0.124 A 
ATOM      3  C   UNL     1      -3.026  -6.846  -0.384  0.00  0.00    +0.046 A 
ATOM      4  C   UNL     1      -4.095  -7.688  -0.498  0.00  0.00    +0.015 A 
ATOM      5  C   UNL     1      -3.883  -9.066  -0.621  0.00  0.00    +0.021 A 
ATOM      6  C   UNL     1      -2.574  -9.580  -0.627  0.00  0.00    +0.143 A 
ATOM      7  C   UNL     1      -1.499  -8.711  -0.515  0.00  0.00    +0.092 A 
ATOM      8  O   UNL     1      -2.380 -10.910  -0.746  0.00  0.00    -0.422 OA
ATOM      9  C   UNL     1      -3.412 -11.756  -0.868  0.00  0.00    +0.341 A 
ATOM     10  O   UNL     1      -3.186 -12.948  -0.982  0.00  0.00    -0.245 OA
ATOM     11  C   UNL     1      -4.757 -11.310  -0.869  0.00  0.00    +0.041 A 
ATOM     12  C   UNL     1      -5.017  -9.991  -0.743  0.00  0.00    -0.027 A 
ATOM     13  C   UNL     1      -6.410  -9.427  -0.713  0.00  0.00    +0.036 C 
ATOM     14  C   UNL     1      -7.412 -10.436  -1.271  0.00  0.00    +0.005 C 
ATOM     15  C   UNL     1      -7.188 -11.778  -0.564  0.00  0.00    +0.005 C 
ATOM     16  C   UNL     1      -5.843 -12.342  -1.019  0.00  0.00    +0.042 C 
ENDBRANCH   1   2
BRANCH   1  17
ATOM     17  C   UNL     1      -0.976  -5.109  -0.144  0.00  0.00    +0.261 C 
BRANCH  17  18
ATOM     18  C   UNL     1       0.326  -4.314  -0.026  0.00  0.00    +0.169 C 
BRANCH  18  19
ATOM     19  O   UNL     1       0.993  -4.669   1.187  0.00  0.00    -0.387 OA
ATOM     20  H   UNL     1       0.477  -4.492   1.986  0.00  0.00    +0.210 HD
ENDBRANCH  18  19
BRANCH  18  21
ATOM     21  C   UNL     1       0.010  -2.817  -0.015  0.00  0.00    +0.137 C 
BRANCH  21  28
ATOM     22  C   UNL     1      -0.017   1.379   0.010  0.00  0.00    +0.005 A 
ATOM     23  C   UNL     1       1.195   2.058   0.002  0.00  0.00    +0.018 A 
ATOM     24  C   UNL     1       2.373   1.339  -0.013  0.00  0.00    +0.084 A 
ATOM     25  N   UNL     1       2.361   0.020  -0.020  0.00  0.00    -0.350 N 
ATOM     26  C   UNL     1       1.227  -0.664  -0.014  0.00  0.00    +0.096 A 
ATOM     27  C   UNL     1       0.002  -0.004   0.002  0.00  0.00    +0.041 A 
ATOM     28  N   UNL     1       1.260  -2.054  -0.022  0.00  0.00    -0.328 N 
ATOM     29  H   UNL     1       2.112  -2.518  -0.033  0.00  0.00    +0.147 HD
ATOM     30  H   UNL     1       3.203  -0.461  -0.031  0.00  0.00    +0.166 HD
ENDBRANCH  21  28
ENDBRANCH  18  21
ENDBRANCH  17  18
ENDBRANCH   1  17
TORSDOF 6
