REMARK  Name = ZINC02857236
REMARK  7 active torsions:
REMARK  status: ('A' for Active; 'I' for Inactive)
REMARK    1  A    between atoms: C_1  and  C_2
REMARK    2  A    between atoms: C_11  and  N_13
REMARK    3  A    between atoms: N_13  and  C_14
REMARK    4  A    between atoms: C_14  and  N_16
REMARK    5  A    between atoms: C_21  and  C_22
REMARK    6  A    between atoms: C_21  and  C_28
REMARK    7  A    between atoms: C_21  and  N_61
REMARK                            x       y       z     vdW  Elec       q    Type
REMARK                         _______ _______ _______ _____ _____    ______ ____
ROOT
ATOM      1  N   UNL     1      -3.561  -2.350  -1.995  0.00  0.00    -0.316 N 
ATOM      2  C   UNL     1      -2.165  -2.746  -2.233  0.00  0.00    +0.088 C 
ATOM      3  C   UNL     1      -1.288  -2.115  -1.147  0.00  0.00    -0.058 C 
ATOM      4  C   UNL     1      -2.914  -0.361  -0.743  0.00  0.00    -0.058 C 
ATOM      5  C   UNL     1      -3.858  -0.921  -1.812  0.00  0.00    +0.088 C 
ATOM      6  N   UNL     1      -1.519  -0.654  -1.140  0.00  0.00    +0.389 N 
ATOM      7  H   UNL     1      -1.359  -0.287  -2.086  0.00  0.00    -0.080 HD
ENDROOT
BRANCH   1   8
ATOM      8  C   UNL     1      -4.543  -3.272  -1.946  0.00  0.00    +0.137 C 
ATOM      9  S   UNL     1      -4.194  -4.913  -2.288  0.00  0.00    -0.018 S 
BRANCH   8  10
ATOM     10  N   UNL     1      -5.800  -2.902  -1.628  0.00  0.00    -0.297 N 
ATOM     11  H   UNL     1      -6.140  -3.060  -0.734  0.00  0.00    +0.154 HD
BRANCH  10  22
ATOM     12  C   UNL     1      -8.610  -0.290  -6.924  0.00  0.00    +0.045 C 
ATOM     13  C   UNL     1      -9.064  -0.447  -5.495  0.00  0.00    -0.033 A 
ATOM     14  C   UNL     1     -10.283   0.003  -5.097  0.00  0.00    +0.096 A 
ATOM     15  C   UNL     1     -10.685  -0.156  -3.755  0.00  0.00    +0.337 A 
ATOM     16  O   UNL     1     -11.780   0.252  -3.412  0.00  0.00    -0.245 OA
ATOM     17  O   UNL     1      -9.892  -0.744  -2.846  0.00  0.00    -0.422 OA
ATOM     18  C   UNL     1      -8.669  -1.213  -3.176  0.00  0.00    +0.141 A 
ATOM     19  C   UNL     1      -8.204  -1.087  -4.498  0.00  0.00    +0.021 A 
ATOM     20  C   UNL     1      -6.937  -1.572  -4.845  0.00  0.00    +0.013 A 
ATOM     21  C   UNL     1      -6.153  -2.161  -3.896  0.00  0.00    +0.024 A 
ATOM     22  C   UNL     1      -6.610  -2.293  -2.585  0.00  0.00    +0.036 A 
ATOM     23  C   UNL     1      -7.863  -1.819  -2.225  0.00  0.00    +0.070 A 
ENDBRANCH  10  22
ENDBRANCH   8  10
ENDBRANCH   1   8
BRANCH   6  24
ATOM     24  C   UNL     1      -0.581   0.001  -0.205  0.00  0.00    -0.007 C 
BRANCH  24  25
ATOM     25  C   UNL     1       0.823  -0.170  -0.727  0.00  0.00    -0.057 A 
ATOM     26  C   UNL     1       1.058  -0.175  -2.089  0.00  0.00    +0.002 A 
ATOM     27  C   UNL     1       2.346  -0.327  -2.567  0.00  0.00    +0.000 A 
ATOM     28  C   UNL     1       3.398  -0.485  -1.683  0.00  0.00    +0.000 A 
ATOM     29  C   UNL     1       3.161  -0.487  -0.321  0.00  0.00    +0.000 A 
ATOM     30  C   UNL     1       1.874  -0.329   0.157  0.00  0.00    +0.002 A 
ENDBRANCH  24  25
BRANCH  24  31
ATOM     31  C   UNL     1      -0.911   1.469  -0.126  0.00  0.00    -0.057 A 
ATOM     32  C   UNL     1      -1.357   2.139  -1.250  0.00  0.00    +0.002 A 
ATOM     33  C   UNL     1      -1.664   3.485  -1.177  0.00  0.00    +0.000 A 
ATOM     34  C   UNL     1      -1.518   4.163   0.019  0.00  0.00    +0.000 A 
ATOM     35  C   UNL     1      -1.067   3.494   1.142  0.00  0.00    +0.000 A 
ATOM     36  C   UNL     1      -0.764   2.147   1.069  0.00  0.00    +0.002 A 
ENDBRANCH  24  31
ENDBRANCH   6  24
TORSDOF 6
