REMARK  Name = ZINC13567340
REMARK  8 active torsions:
REMARK  status: ('A' for Active; 'I' for Inactive)
REMARK    1  A    between atoms: C_1  and  O_2
REMARK    2  A    between atoms: O_2  and  C_3
REMARK    3  A    between atoms: C_5  and  C_18
REMARK    4  A    between atoms: C_8  and  O_9
REMARK    5  A    between atoms: O_9  and  C_10
REMARK    6  A    between atoms: C_10  and  C_11
REMARK    7  A    between atoms: C_30  and  S_32
REMARK    8  A    between atoms: S_32  and  C_33
REMARK                            x       y       z     vdW  Elec       q    Type
REMARK                         _______ _______ _______ _____ _____    ______ ____
ROOT
ATOM      1  C   UNL     1      -1.201  -0.638   0.010  0.00  0.00    +0.162 A 
ATOM      2  C   UNL     1      -2.374   0.099   0.019  0.00  0.00    +0.053 A 
ATOM      3  C   UNL     1      -3.596  -0.546   0.027  0.00  0.00    -0.036 A 
ATOM      4  C   UNL     1      -3.652  -1.928   0.026  0.00  0.00    +0.008 A 
ATOM      5  C   UNL     1      -2.485  -2.669   0.017  0.00  0.00    +0.050 A 
ATOM      6  C   UNL     1      -1.257  -2.028   0.003  0.00  0.00    +0.162 A 
ENDROOT
BRANCH   3   7
ATOM      7  C   UNL     1      -4.871   0.257   0.037  0.00  0.00    +0.066 C 
ATOM      8  C   UNL     1      -5.696  -0.080  -1.206  0.00  0.00    +0.109 C 
ATOM      9  C   UNL     1      -6.283  -1.459  -1.071  0.00  0.00    +0.219 C 
ATOM     10  O   UNL     1      -6.401  -2.158  -2.054  0.00  0.00    -0.275 OA
ATOM     11  N   UNL     1      -6.679  -1.926   0.127  0.00  0.00    -0.270 N 
ATOM     12  C   UNL     1      -6.537  -1.154   1.268  0.00  0.00    +0.137 A 
ATOM     13  C   UNL     1      -5.665  -0.077   1.271  0.00  0.00    +0.065 A 
ATOM     14  C   UNL     1      -5.536   0.691   2.431  0.00  0.00    +0.258 A 
ATOM     15  O   UNL     1      -4.777   1.646   2.464  0.00  0.00    -0.267 OA
ATOM     16  N   UNL     1      -6.268   0.354   3.515  0.00  0.00    -0.302 N 
ATOM     17  H   UNL     1      -6.194   0.874   4.331  0.00  0.00    +0.171 HD
ATOM     18  C   UNL     1      -7.112  -0.714   3.463  0.00  0.00    +0.171 A 
ATOM     19  N   UNL     1      -7.236  -1.441   2.371  0.00  0.00    -0.208 NA
ATOM     20  H   UNL     1      -7.067  -2.812   0.193  0.00  0.00    +0.156 HD
BRANCH  18  21
ATOM     21  S   UNL     1      -8.057  -1.134   4.889  0.00  0.00    -0.091 S 
ATOM     22  C   UNL     1      -9.013  -2.586   4.370  0.00  0.00    +0.093 C 
ENDBRANCH  18  21
ENDBRANCH   3   7
BRANCH   1  24
ATOM     23  C   UNL     1      -0.017   1.425   0.010  0.00  0.00    +0.277 C 
ATOM     24  O   UNL     1       0.002  -0.004   0.002  0.00  0.00    -0.491 OA
ENDBRANCH   1  24
BRANCH   6  25
ATOM     25  O   UNL     1      -0.108  -2.756  -0.012  0.00  0.00    -0.484 OA
BRANCH  25  26
ATOM     26  C   UNL     1      -0.242  -4.179  -0.018  0.00  0.00    +0.264 C 
BRANCH  26  27
ATOM     27  C   UNL     1       1.125  -4.812  -0.034  0.00  0.00    -0.010 A 
ATOM     28  C   UNL     1       1.744  -5.091  -1.239  0.00  0.00    +0.008 A 
ATOM     29  C   UNL     1       2.998  -5.671  -1.255  0.00  0.00    +0.020 A 
ATOM     30  C   UNL     1       3.635  -5.973  -0.064  0.00  0.00    +0.041 A 
ATOM     31  C   UNL     1       3.016  -5.694   1.141  0.00  0.00    +0.020 A 
ATOM     32  C   UNL     1       1.764  -5.109   1.155  0.00  0.00    +0.008 A 
ATOM     33 CL   UNL     1       5.210  -6.703  -0.083  0.00  0.00    -0.084 Cl
ENDBRANCH  26  27
ENDBRANCH  25  26
ENDBRANCH   6  25
TORSDOF 6
