REMARK  Name = ZINC33605970
REMARK  7 active torsions:
REMARK  status: ('A' for Active; 'I' for Inactive)
REMARK    1  A    between atoms: C_1  and  C_2
REMARK    2  A    between atoms: C_2  and  C_3
REMARK    3  A    between atoms: C_3  and  C_5
REMARK    4  A    between atoms: C_3  and  N_6
REMARK    5  A    between atoms: C_8  and  C_15
REMARK    6  A    between atoms: N_16  and  N_17
REMARK    7  A    between atoms: C_18  and  C_20
REMARK                            x       y       z     vdW  Elec       q    Type
REMARK                         _______ _______ _______ _____ _____    ______ ____
ROOT
ATOM      1  C   UNL     1      -2.539   2.134   0.094  0.00  0.00    +0.140 C 
ATOM      2  N   UNL     1      -3.377   3.125   0.150  0.00  0.00    -0.187 NA
ENDROOT
BRANCH   1   5
ATOM      3  N   UNL     1       0.711   3.229   1.357  0.00  0.00    -0.343 N 
ATOM      4  C   UNL     1      -0.626   3.406   1.157  0.00  0.00    +0.096 A 
ATOM      5  C   UNL     1      -1.139   2.330   0.502  0.00  0.00    +0.020 A 
ATOM      6  C   UNL     1      -0.018   1.398   0.283  0.00  0.00    +0.009 A 
ATOM      7  C   UNL     1       1.114   2.017   0.837  0.00  0.00    +0.050 A 
ATOM      8  C   UNL     1       2.344   1.370   0.777  0.00  0.00    +0.026 A 
ATOM      9  C   UNL     1       2.441   0.133   0.179  0.00  0.00    +0.002 A 
ATOM     10  C   UNL     1       1.321  -0.478  -0.367  0.00  0.00    +0.001 A 
ATOM     11  C   UNL     1       0.095   0.147  -0.319  0.00  0.00    +0.010 A 
BRANCH   3  12
ATOM     12  C   UNL     1       1.592   4.189   2.027  0.00  0.00    +0.084 C 
ATOM     13  C   UNL     1       1.103   4.417   3.458  0.00  0.00    +0.031 C 
BRANCH  12  15
ATOM     14  C   UNL     1       2.589   6.476   1.889  0.00  0.00    +0.006 C 
ATOM     15  C   UNL     1       1.575   5.515   1.264  0.00  0.00    +0.021 C 
ENDBRANCH  12  15
ENDBRANCH   3  12
ENDBRANCH   1   5
BRANCH   2  16
ATOM     16  N   UNL     1      -2.903   4.443   0.161  0.00  0.00    -0.200 N 
ATOM     17  C   UNL     1      -3.760   5.466   0.355  0.00  0.00    +0.299 C 
ATOM     18  O   UNL     1      -4.955   5.252   0.433  0.00  0.00    -0.265 OA
ATOM     19  H   UNL     1      -1.832   4.644   0.011  0.00  0.00    +0.178 HD
BRANCH  17  20
ATOM     20  C   UNL     1      -3.250   6.838   0.472  0.00  0.00    +0.192 A 
ATOM     21  C   UNL     1      -4.001   7.928   0.782  0.00  0.00    +0.063 A 
ATOM     22  C   UNL     1      -3.082   9.065   0.787  0.00  0.00    +0.022 A 
ATOM     23  C   UNL     1      -3.228  10.434   1.027  0.00  0.00    +0.027 A 
ATOM     24  C   UNL     1      -2.137  11.255   0.951  0.00  0.00    +0.019 A 
ATOM     25  C   UNL     1      -0.887  10.737   0.636  0.00  0.00    +0.019 A 
ATOM     26  C   UNL     1      -0.723   9.390   0.396  0.00  0.00    +0.048 A 
ATOM     27  C   UNL     1      -1.817   8.536   0.468  0.00  0.00    +0.136 A 
ATOM     28  O   UNL     1      -1.964   7.207   0.294  0.00  0.00    -0.450 OA
ATOM     29 BR   UNL     1      -2.332  13.107   1.276  0.00  0.00    -0.050 Br
ENDBRANCH  17  20
ENDBRANCH   2  16
TORSDOF 5
