REMARK  Name = ZINC67078648
REMARK  15 active torsions:
REMARK  status: ('A' for Active; 'I' for Inactive)
REMARK    1  A    between atoms: C_1  and  C_2
REMARK    2  A    between atoms: C_2  and  C_3
REMARK    3  A    between atoms: C_3  and  C_5
REMARK    4  A    between atoms: C_3  and  C_6
REMARK    5  A    between atoms: C_6  and  C_8
REMARK    6  A    between atoms: C_6  and  N_22
REMARK    7  A    between atoms: N_10  and  C_11
REMARK    8  A    between atoms: C_11  and  C_12
REMARK    9  A    between atoms: C_12  and  C_13
REMARK   10  A    between atoms: N_17  and  C_18
REMARK   11  A    between atoms: C_23  and  O_25
REMARK   12  A    between atoms: O_25  and  C_26
REMARK   13  A    between atoms: C_26  and  C_27
REMARK   14  A    between atoms: C_26  and  C_28
REMARK   15  A    between atoms: C_26  and  C_29
REMARK                            x       y       z     vdW  Elec       q    Type
REMARK                         _______ _______ _______ _____ _____    ______ ____
ROOT
ATOM      1  C   UNL     1      -4.186  -0.663  -0.372  0.00  0.00    +0.234 C 
ATOM      2  O   UNL     1      -5.139  -0.013  -0.745  0.00  0.00    -0.274 OA
ATOM      3  N   UNL     1      -4.248  -2.010  -0.372  0.00  0.00    -0.313 N 
ATOM      4  H   UNL     1      -3.515  -2.529  -0.006  0.00  0.00    +0.149 HD
ENDROOT
BRANCH   1   5
ATOM      5  C   UNL     1      -2.933   0.033   0.092  0.00  0.00    +0.165 C 
BRANCH   5   6
ATOM      6  N   UNL     1      -3.112   1.483  -0.018  0.00  0.00    -0.270 N 
ATOM      7  C   UNL     1      -2.056   2.273  -0.300  0.00  0.00    +0.401 C 
ATOM      8  O   UNL     1      -0.978   1.776  -0.558  0.00  0.00    -0.226 OA
ATOM      9  H   UNL     1      -3.989   1.875   0.113  0.00  0.00    +0.153 HD
BRANCH   7  10
ATOM     10  O   UNL     1      -2.197   3.611  -0.297  0.00  0.00    -0.445 OA
BRANCH  10  11
ATOM     11  C   UNL     1      -1.037   4.386  -0.605  0.00  0.00    +0.107 C 
ATOM     12  C   UNL     1      -0.543   4.029  -2.009  0.00  0.00    +0.055 C 
ATOM     13  C   UNL     1      -1.389   5.875  -0.553  0.00  0.00    +0.055 C 
ATOM     14  C   UNL     1       0.063   4.086   0.415  0.00  0.00    +0.055 C 
ENDBRANCH  10  11
ENDBRANCH   7  10
ENDBRANCH   5   6
BRANCH   5  15
ATOM     15  C   UNL     1      -2.654  -0.337   1.551  0.00  0.00    +0.015 C 
ATOM     16  C   UNL     1      -1.283   0.203   1.960  0.00  0.00    +0.010 C 
BRANCH  15  18
ATOM     17  C   UNL     1      -5.093  -0.326   2.092  0.00  0.00    +0.004 C 
ATOM     18  C   UNL     1      -3.732   0.275   2.447  0.00  0.00    +0.002 C 
ENDBRANCH  15  18
ENDBRANCH   5  15
ENDBRANCH   1   5
BRANCH   3  19
ATOM     19  C   UNL     1      -5.422  -2.689  -0.925  0.00  0.00    +0.112 C 
BRANCH  19  20
ATOM     20  C   UNL     1      -5.240  -4.203  -0.803  0.00  0.00    +0.095 C 
BRANCH  20  21
ATOM     21  C   UNL     1      -6.448  -4.902  -1.373  0.00  0.00    +0.134 A 
ATOM     22  N   UNL     1      -7.480  -4.319  -1.892  0.00  0.00    -0.158 NA
ATOM     23  N   UNL     1      -8.380  -5.311  -2.303  0.00  0.00    -0.254 N 
ATOM     24  C   UNL     1      -7.827  -6.505  -2.001  0.00  0.00    +0.176 A 
ATOM     25  N   UNL     1      -6.630  -6.262  -1.431  0.00  0.00    -0.304 N 
ATOM     26  S   UNL     1      -8.517  -8.044  -2.295  0.00  0.00    -0.011 S 
ATOM     27  H   UNL     1      -9.241  -5.167  -2.726  0.00  0.00    +0.191 HD
BRANCH  25  28
ATOM     28  C   UNL     1      -5.687  -7.275  -0.953  0.00  0.00    +0.091 C 
ATOM     29  C   UNL     1      -6.219  -8.695  -0.747  0.00  0.00    +0.027 C 
ATOM     30  C   UNL     1      -5.292  -8.389  -1.925  0.00  0.00    +0.027 C 
ENDBRANCH  25  28
ENDBRANCH  20  21
ENDBRANCH  19  20
ENDBRANCH   3  19
TORSDOF 10
