REMARK  Name = ZINC02419629
REMARK  6 active torsions:
REMARK  status: ('A' for Active; 'I' for Inactive)
REMARK    1  A    between atoms: C_1  and  O_2
REMARK    2  A    between atoms: O_2  and  C_3
REMARK    3  A    between atoms: C_6  and  C_11
REMARK    4  A    between atoms: C_8  and  O_9
REMARK    5  A    between atoms: O_9  and  C_10
REMARK    6  A    between atoms: C_22  and  C_24
REMARK                            x       y       z     vdW  Elec       q    Type
REMARK                         _______ _______ _______ _____ _____    ______ ____
ROOT
ATOM      1  C   UNL     1       2.476  -2.647  -4.179  0.00  0.00    +0.159 C 
ATOM      2  C   UNL     1       1.514  -2.705  -5.346  0.00  0.00    +0.027 C 
ATOM      3  C   UNL     1       1.858  -2.064  -6.482  0.00  0.00    +0.083 C 
ATOM      4  C   UNL     1       0.909  -2.137  -7.623  0.00  0.00    +0.042 A 
ATOM      5  C   UNL     1       1.006  -1.270  -8.703  0.00  0.00    +0.013 A 
ATOM      6  C   UNL     1       0.101  -1.372  -9.742  0.00  0.00    +0.001 A 
ATOM      7  C   UNL     1      -0.895  -2.332  -9.707  0.00  0.00    +0.004 A 
ATOM      8  C   UNL     1      -0.998  -3.199  -8.635  0.00  0.00    +0.046 A 
ATOM      9  C   UNL     1      -0.098  -3.109  -7.587  0.00  0.00    +0.131 A 
ATOM     10  O   UNL     1      -0.171  -3.953  -6.526  0.00  0.00    -0.479 OA
ATOM     11  C   UNL     1       0.211  -3.442  -5.248  0.00  0.00    +0.234 C 
ATOM     12  N   UNL     1       3.023  -1.379  -6.586  0.00  0.00    -0.213 NA
ATOM     13  C   UNL     1       3.911  -1.279  -5.625  0.00  0.00    +0.237 C 
ATOM     14  N   UNL     1       3.707  -1.881  -4.403  0.00  0.00    -0.208 N 
ATOM     15  N   UNL     1       4.825  -1.581  -3.621  0.00  0.00    -0.251 N 
ATOM     16  C   UNL     1       5.643  -0.816  -4.395  0.00  0.00    +0.203 C 
ATOM     17  N   UNL     1       5.104  -0.648  -5.561  0.00  0.00    -0.205 NA
ATOM     18  H   UNL     1       4.987  -1.863  -2.707  0.00  0.00    +0.171 HD
ENDROOT
BRANCH  11  19
ATOM     19  C   UNL     1      -0.856  -2.503  -4.747  0.00  0.00    -0.002 A 
ATOM     20  C   UNL     1      -1.361  -2.650  -3.468  0.00  0.00    +0.007 A 
ATOM     21  C   UNL     1      -2.339  -1.789  -3.008  0.00  0.00    +0.002 A 
ATOM     22  C   UNL     1      -2.814  -0.781  -3.826  0.00  0.00    +0.020 A 
ATOM     23  C   UNL     1      -2.310  -0.634  -5.105  0.00  0.00    +0.041 A 
ATOM     24  C   UNL     1      -1.325  -1.492  -5.564  0.00  0.00    +0.027 A 
ATOM     25 CL   UNL     1      -2.906   0.631  -6.134  0.00  0.00    -0.084 Cl
ENDBRANCH  11  19
BRANCH   1  29
ATOM     26  C   UNL     1       0.423  -0.928  -0.845  0.00  0.00    +0.162 A 
ATOM     27  C   UNL     1       0.897  -0.117  -1.864  0.00  0.00    +0.050 A 
ATOM     28  C   UNL     1       1.561  -0.676  -2.940  0.00  0.00    +0.009 A 
ATOM     29  C   UNL     1       1.752  -2.043  -3.003  0.00  0.00    -0.017 A 
ATOM     30  C   UNL     1       1.281  -2.858  -1.991  0.00  0.00    +0.055 A 
ATOM     31  C   UNL     1       0.621  -2.304  -0.906  0.00  0.00    +0.162 A 
BRANCH  26  33
ATOM     32  C   UNL     1      -0.396   1.040   0.210  0.00  0.00    +0.277 C 
ATOM     33  O   UNL     1      -0.229  -0.379   0.215  0.00  0.00    -0.491 OA
ENDBRANCH  26  33
BRANCH  31  34
ATOM     34  O   UNL     1       0.163  -3.103   0.094  0.00  0.00    -0.491 OA
ATOM     35  C   UNL     1       0.402  -4.506  -0.036  0.00  0.00    +0.277 C 
ENDBRANCH  31  34
ENDBRANCH   1  29
TORSDOF 4
