REMARK  Name = ZINC13150689
REMARK  8 active torsions:
REMARK  status: ('A' for Active; 'I' for Inactive)
REMARK    1  A    between atoms: C_1  and  C_2
REMARK    2  A    between atoms: C_11  and  C_12
REMARK    3  A    between atoms: N_15  and  C_16
REMARK    4  A    between atoms: C_16  and  C_17
REMARK    5  A    between atoms: C_17  and  O_18
REMARK    6  A    between atoms: O_18  and  C_19
REMARK    7  A    between atoms: N_20  and  C_22
REMARK    8  A    between atoms: C_22  and  C_23
REMARK                            x       y       z     vdW  Elec       q    Type
REMARK                         _______ _______ _______ _____ _____    ______ ____
ROOT
ATOM      1  C   UNL     1       0.811   0.990   0.839  0.00  0.00    +0.044 C 
ATOM      2  C   UNL     1       0.635  -0.496   0.660  0.00  0.00    -0.047 A 
ATOM      3  C   UNL     1       0.585  -1.020  -0.597  0.00  0.00    +0.013 A 
ATOM      4  C   UNL     1       0.418  -2.402  -0.767  0.00  0.00    +0.001 A 
ATOM      5  C   UNL     1       0.330  -2.982  -2.044  0.00  0.00    +0.017 A 
ATOM      6  C   UNL     1       0.181  -4.343  -2.156  0.00  0.00    +0.003 A 
ATOM      7  C   UNL     1       0.147  -5.115  -0.991  0.00  0.00    +0.109 A 
ATOM      8  N   UNL     1       0.194  -4.557   0.208  0.00  0.00    -0.240 NA
ATOM      9  C   UNL     1       0.323  -3.239   0.372  0.00  0.00    +0.073 A 
ATOM     10  C   UNL     1       0.372  -2.662   1.652  0.00  0.00    +0.032 A 
ATOM     11  C   UNL     1       0.532  -1.316   1.780  0.00  0.00    -0.045 A 
ATOM     12  C   UNL     1       0.591  -0.703   3.156  0.00  0.00    +0.044 C 
ATOM     13  S   UNL     1       0.073  -6.881  -1.066  0.00  0.00    -0.036 S 
ATOM     14  C   UNL     1      -0.288  -7.173  -2.775  0.00  0.00    +0.137 C 
ATOM     15  N   UNL     1      -1.083  -8.127  -3.171  0.00  0.00    -0.365 N 
ATOM     16  N   UNL     1       0.342  -6.306  -3.663  0.00  0.00    -0.302 N 
ATOM     17  C   UNL     1       0.050  -4.884  -3.549  0.00  0.00    +0.145 C 
ATOM     18  H   UNL     1      -1.434  -8.764  -2.529  0.00  0.00    +0.161 HD
ENDROOT
BRANCH  15  19
ATOM     19  C   UNL     1      -1.448  -8.237  -4.585  0.00  0.00    +0.142 C 
BRANCH  19  20
ATOM     20  C   UNL     1      -2.495  -9.339  -4.758  0.00  0.00    +0.180 C 
BRANCH  20  21
ATOM     21  O   UNL     1      -3.699  -8.962  -4.086  0.00  0.00    -0.381 OA
ATOM     22  C   UNL     1      -4.747  -9.927  -4.186  0.00  0.00    +0.194 C 
ENDBRANCH  20  21
ENDBRANCH  19  20
ENDBRANCH  15  19
BRANCH  16  23
ATOM     23  C   UNL     1       1.269  -6.809  -4.680  0.00  0.00    +0.149 C 
BRANCH  23  24
ATOM     24  C   UNL     1       2.682  -6.703  -4.167  0.00  0.00    +0.007 A 
ATOM     25  C   UNL     1       3.393  -7.594  -3.434  0.00  0.00    +0.013 A 
ATOM     26  C   UNL     1       4.690  -7.282  -3.072  0.00  0.00    +0.008 A 
ATOM     27  C   UNL     1       5.213  -6.093  -3.461  0.00  0.00    +0.045 A 
ATOM     28  S   UNL     1       3.857  -5.374  -4.373  0.00  0.00    -0.100 S 
ENDBRANCH  23  24
ENDBRANCH  16  23
TORSDOF 5
