REMARK  Name = ZINC63362906
REMARK  9 active torsions:
REMARK  status: ('A' for Active; 'I' for Inactive)
REMARK    1  A    between atoms: C_1  and  O_2
REMARK    2  A    between atoms: O_2  and  C_3
REMARK    3  A    between atoms: C_6  and  C_20
REMARK    4  A    between atoms: C_8  and  C_9
REMARK    5  A    between atoms: C_9  and  S_10
REMARK    6  A    between atoms: S_10  and  C_11
REMARK    7  A    between atoms: C_33  and  C_36
REMARK    8  A    between atoms: C_36  and  O_38
REMARK    9  A    between atoms: O_38  and  C_39
REMARK                            x       y       z     vdW  Elec       q    Type
REMARK                         _______ _______ _______ _____ _____    ______ ____
ROOT
ATOM      1  C   UNL     1      -1.200  -0.637   0.010  0.00  0.00    +0.124 A 
ATOM      2  C   UNL     1      -2.292  -0.049   0.632  0.00  0.00    +0.046 A 
ATOM      3  C   UNL     1      -3.513  -0.695   0.639  0.00  0.00    +0.009 A 
ATOM      4  C   UNL     1      -3.648  -1.927   0.026  0.00  0.00    -0.028 A 
ATOM      5  C   UNL     1      -2.562  -2.515  -0.595  0.00  0.00    +0.013 A 
ATOM      6  C   UNL     1      -1.340  -1.871  -0.609  0.00  0.00    +0.005 A 
ENDROOT
BRANCH   4   7
ATOM      7  C   UNL     1      -4.981  -2.629   0.034  0.00  0.00    +0.111 C 
ATOM      8  C   UNL     1      -5.492  -2.748   1.472  0.00  0.00    +0.128 C 
ATOM      9  C   UNL     1      -5.772  -1.326   1.944  0.00  0.00    -0.035 C 
ATOM     10  C   UNL     1      -5.096  -1.166   3.073  0.00  0.00    -0.001 A 
ATOM     11  C   UNL     1      -5.035  -0.050   4.031  0.00  0.00    +0.010 A 
ATOM     12  C   UNL     1      -4.209  -0.219   5.097  0.00  0.00    +0.001 A 
ATOM     13  C   UNL     1      -3.446  -1.373   5.303  0.00  0.00    +0.002 A 
ATOM     14  C   UNL     1      -3.444  -2.449   4.478  0.00  0.00    +0.026 A 
ATOM     15  C   UNL     1      -4.279  -2.393   3.324  0.00  0.00    +0.043 A 
ATOM     16  N   UNL     1      -4.487  -3.293   2.383  0.00  0.00    -0.376 N 
ATOM     17  C   UNL     1      -6.598  -0.367   1.122  0.00  0.00    +0.063 C 
ATOM     18  C   UNL     1      -6.049  -0.449  -0.314  0.00  0.00    +0.168 C 
ATOM     19  N   UNL     1      -5.958  -1.848  -0.742  0.00  0.00    -0.295 NA
ATOM     20  H   UNL     1      -5.769  -1.914  -1.731  0.00  0.00    +0.123 HD
ATOM     21  H   UNL     1      -4.055  -4.158   2.300  0.00  0.00    +0.160 HD
BRANCH  18  22
ATOM     22  C   UNL     1      -6.972   0.295  -1.245  0.00  0.00    +0.324 C 
ATOM     23  O   UNL     1      -7.773  -0.312  -1.915  0.00  0.00    -0.249 OA
BRANCH  22  24
ATOM     24  O   UNL     1      -6.904   1.633  -1.329  0.00  0.00    -0.467 OA
ATOM     25  C   UNL     1      -7.809   2.273  -2.232  0.00  0.00    +0.280 C 
ENDBRANCH  22  24
ENDBRANCH  18  22
ENDBRANCH   4   7
BRANCH   1  27
ATOM     26  C   UNL     1       0.072   1.263   0.659  0.00  0.00    +0.277 C 
ATOM     27  O   UNL     1       0.002  -0.004   0.002  0.00  0.00    -0.495 OA
ENDBRANCH   1  27
BRANCH   6  28
ATOM     28  C   UNL     1      -0.158  -2.510  -1.291  0.00  0.00    +0.115 C 
BRANCH  28  29
ATOM     29  S   UNL     1       0.738  -3.548  -0.102  0.00  0.00    -0.094 S 
BRANCH  29  30
ATOM     30  C   UNL     1       2.072  -4.216  -1.040  0.00  0.00    +0.136 A 
ATOM     31  N   UNL     1       2.372  -4.016  -2.304  0.00  0.00    -0.233 NA
ATOM     32  C   UNL     1       3.437  -4.600  -2.897  0.00  0.00    +0.079 A 
ATOM     33  C   UNL     1       3.868  -4.472  -4.237  0.00  0.00    +0.029 A 
ATOM     34  C   UNL     1       4.979  -5.139  -4.682  0.00  0.00    +0.002 A 
ATOM     35  C   UNL     1       5.718  -5.959  -3.841  0.00  0.00    +0.001 A 
ATOM     36  C   UNL     1       5.324  -6.107  -2.523  0.00  0.00    +0.017 A 
ATOM     37  C   UNL     1       4.213  -5.443  -2.069  0.00  0.00    +0.040 A 
ATOM     38  S   UNL     1       3.366  -5.330  -0.511  0.00  0.00    -0.061 S 
ENDBRANCH  29  30
ENDBRANCH  28  29
ENDBRANCH   6  28
TORSDOF 7
