REMARK  Name = ZINC13555553
REMARK  13 active torsions:
REMARK  status: ('A' for Active; 'I' for Inactive)
REMARK    1  A    between atoms: C_1  and  C_2
REMARK    2  A    between atoms: C_2  and  O_3
REMARK    3  A    between atoms: O_3  and  C_4
REMARK    4  A    between atoms: C_11  and  C_15
REMARK    5  A    between atoms: C_12  and  O_14
REMARK    6  A    between atoms: C_15  and  N_16
REMARK    7  A    between atoms: N_16  and  C_17
REMARK    8  A    between atoms: C_17  and  C_18
REMARK    9  A    between atoms: C_18  and  N_66
REMARK   10  A    between atoms: C_23  and  S_33
REMARK   11  A    between atoms: N_24  and  C_25
REMARK   12  A    between atoms: C_30  and  O_31
REMARK   13  A    between atoms: O_31  and  C_32
REMARK                            x       y       z     vdW  Elec       q    Type
REMARK                         _______ _______ _______ _____ _____    ______ ____
ROOT
ATOM      1  N   UNL     1      -3.025   2.424   5.935  0.00  0.00    -0.307 N 
ATOM      2  C   UNL     1      -2.650   2.506   4.615  0.00  0.00    +0.154 C 
ATOM      3  N   UNL     1      -2.924   1.520   3.793  0.00  0.00    -0.223 NA
ENDROOT
BRANCH   3   4
ATOM      4  C   UNL     1      -2.424   1.533   2.516  0.00  0.00    +0.108 A 
ATOM      5  C   UNL     1      -1.080   1.833   2.293  0.00  0.00    +0.031 A 
ATOM      6  C   UNL     1      -0.584   1.851   1.005  0.00  0.00    +0.002 A 
ATOM      7  C   UNL     1      -1.413   1.567  -0.065  0.00  0.00    +0.004 A 
ATOM      8  C   UNL     1      -2.747   1.262   0.145  0.00  0.00    +0.048 A 
ATOM      9  C   UNL     1      -3.259   1.240   1.431  0.00  0.00    +0.145 A 
BRANCH   9  10
ATOM     10  O   UNL     1      -4.569   0.941   1.638  0.00  0.00    -0.493 OA
ATOM     11  C   UNL     1      -5.361   0.659   0.483  0.00  0.00    +0.277 C 
ENDBRANCH   9  10
ENDBRANCH   3   4
BRANCH   2  12
ATOM     12  S   UNL     1      -1.800   3.933   4.028  0.00  0.00    -0.108 S 
ATOM     13  H   UNL     1      -1.610   4.622   5.243  0.00  0.00    +0.110 HD
ENDBRANCH   2  12
BRANCH   1  14
ATOM     14  C   UNL     1      -3.706   3.553   6.574  0.00  0.00    +0.147 C 
BRANCH  14  22
ATOM     15  C   UNL     1      -8.861   1.635   9.317  0.00  0.00    +0.121 A 
ATOM     16  C   UNL     1      -9.704   1.874   8.228  0.00  0.00    +0.048 A 
ATOM     17  C   UNL     1      -9.217   2.380   7.063  0.00  0.00    +0.032 A 
ATOM     18  C   UNL     1      -7.847   2.670   6.946  0.00  0.00    +0.075 A 
ATOM     19  C   UNL     1      -6.992   2.428   8.049  0.00  0.00    +0.004 A 
ATOM     20  C   UNL     1      -7.524   1.905   9.238  0.00  0.00    +0.055 A 
ATOM     21  C   UNL     1      -5.619   2.719   7.929  0.00  0.00    +0.020 A 
ATOM     22  C   UNL     1      -5.167   3.226   6.746  0.00  0.00    +0.032 A 
ATOM     23  C   UNL     1      -6.064   3.448   5.695  0.00  0.00    +0.218 A 
ATOM     24  N   UNL     1      -7.344   3.169   5.810  0.00  0.00    -0.213 NA
BRANCH  23  25
ATOM     25  O   UNL     1      -5.601   3.957   4.527  0.00  0.00    -0.492 OA
ATOM     26  H   UNL     1      -5.394   3.288   3.860  0.00  0.00    +0.294 HD
ENDBRANCH  23  25
BRANCH  15  27
ATOM     27  O   UNL     1      -9.377   1.128  10.468  0.00  0.00    -0.492 OA
BRANCH  27  29
ATOM     28  C   UNL     1     -11.175   0.304  11.857  0.00  0.00    +0.048 C 
ATOM     29  C   UNL     1     -10.782   0.867  10.490  0.00  0.00    +0.225 C 
ENDBRANCH  27  29
ENDBRANCH  15  27
ENDBRANCH  14  22
ENDBRANCH   1  14
BRANCH   1  30
ATOM     30  C   UNL     1      -2.744   1.208   6.703  0.00  0.00    +0.089 C 
BRANCH  30  31
ATOM     31  C   UNL     1      -1.371   1.330   7.366  0.00  0.00    -0.060 C 
BRANCH  31  36
ATOM     32  C   UNL     1      -1.263  -1.101   7.295  0.00  0.00    -0.079 C 
ATOM     33  C   UNL     1      -0.448  -2.178   8.054  0.00  0.00    -0.020 C 
ATOM     34  C   UNL     1       0.771  -1.385   8.578  0.00  0.00    -0.020 C 
ATOM     35  C   UNL     1       0.316   0.086   8.594  0.00  0.00    -0.079 C 
ATOM     36  N   UNL     1      -1.076   0.088   8.142  0.00  0.00    +0.381 N 
ATOM     37  H   UNL     1      -1.704   0.039   8.952  0.00  0.00    -0.082 HD
ENDBRANCH  31  36
ENDBRANCH  30  31
ENDBRANCH   1  30
TORSDOF 11
