REMARK  Name = ZINC08603574
REMARK  5 active torsions:
REMARK  status: ('A' for Active; 'I' for Inactive)
REMARK    1  A    between atoms: C_1  and  C_2
REMARK    2  A    between atoms: C_6  and  C_24
REMARK    3  A    between atoms: C_7  and  O_8
REMARK    4  A    between atoms: O_8  and  C_9
REMARK    5  A    between atoms: C_9  and  C_10
REMARK                            x       y       z     vdW  Elec       q    Type
REMARK                         _______ _______ _______ _____ _____    ______ ____
ROOT
ATOM      1  C   UNL     1      -1.046   1.011   4.254  0.00  0.00    +0.086 A 
ATOM      2  C   UNL     1      -1.473   2.315   4.391  0.00  0.00    +0.097 A 
ATOM      3  C   UNL     1      -1.278   2.985   5.599  0.00  0.00    +0.259 A 
ATOM      4  O   UNL     1      -1.654   4.139   5.726  0.00  0.00    -0.267 OA
ATOM      5  N   UNL     1      -0.667   2.345   6.641  0.00  0.00    -0.259 N 
ATOM      6  C   UNL     1      -0.415   2.896   7.890  0.00  0.00    +0.039 A 
ATOM      7  C   UNL     1       0.195   2.137   8.808  0.00  0.00    +0.013 A 
ATOM      8  S   UNL     1       0.456   0.592   7.975  0.00  0.00    -0.054 S 
ATOM      9  C   UNL     1      -0.276   1.055   6.419  0.00  0.00    +0.181 A 
ATOM     10  N   UNL     1      -0.459   0.416   5.290  0.00  0.00    -0.224 NA
ATOM     11  C   UNL     1       0.568   2.507  10.208  0.00  0.00    +0.044 C 
ATOM     12  C   UNL     1       0.474   4.034  10.346  0.00  0.00    +0.006 C 
ATOM     13  C   UNL     1      -0.853   4.498   9.740  0.00  0.00    +0.006 C 
ATOM     14  C   UNL     1      -0.818   4.332   8.221  0.00  0.00    +0.055 C 
ENDROOT
BRANCH   1  15
ATOM     15  C   UNL     1      -1.246   0.270   2.957  0.00  0.00    +0.284 C 
BRANCH  15  16
ATOM     16  O   UNL     1       0.025  -0.033   2.381  0.00  0.00    -0.485 OA
BRANCH  16  23
ATOM     17  C   UNL     1      -0.018   1.503   0.010  0.00  0.00    +0.047 C 
ATOM     18  C   UNL     1       0.002  -0.004   0.002  0.00  0.00    -0.009 A 
ATOM     19  C   UNL     1       0.006  -0.689  -1.198  0.00  0.00    +0.007 A 
ATOM     20  C   UNL     1       0.024  -2.071  -1.206  0.00  0.00    +0.001 A 
ATOM     21  C   UNL     1       0.040  -2.772  -0.014  0.00  0.00    +0.007 A 
ATOM     22  C   UNL     1       0.036  -2.092   1.188  0.00  0.00    -0.009 A 
ATOM     23  C   UNL     1       0.023  -0.705   1.199  0.00  0.00    +0.127 A 
ATOM     24  C   UNL     1       0.052  -2.856   2.487  0.00  0.00    +0.047 C 
ENDBRANCH  16  23
ENDBRANCH  15  16
ENDBRANCH   1  15
TORSDOF 3
