REMARK  Name = ZINC31849985
REMARK  4 active torsions:
REMARK  status: ('A' for Active; 'I' for Inactive)
REMARK    1  A    between atoms: C_1  and  C_2
REMARK    2  A    between atoms: C_5  and  C_8
REMARK    3  A    between atoms: C_9  and  C_10
REMARK    4  A    between atoms: C_21  and  C_27
REMARK                            x       y       z     vdW  Elec       q    Type
REMARK                         _______ _______ _______ _____ _____    ______ ____
ROOT
ATOM      1  C   UNL     1      -3.761  -3.465   1.564  0.00  0.00    +0.240 C 
ATOM      2  O   UNL     1      -4.560  -3.136   2.422  0.00  0.00    -0.271 OA
ATOM      3  N   UNL     1      -3.147  -2.524   0.820  0.00  0.00    -0.295 N 
ATOM      4  C   UNL     1      -2.265  -2.900  -0.296  0.00  0.00    +0.127 C 
ATOM      5  C   UNL     1      -0.931  -2.164  -0.132  0.00  0.00    +0.125 C 
ATOM      6  N   UNL     1      -1.185  -0.723   0.000  0.00  0.00    -0.312 N 
ATOM      7  C   UNL     1      -1.964  -0.428   1.210  0.00  0.00    +0.125 C 
ATOM      8  C   UNL     1      -3.340  -1.093   1.101  0.00  0.00    +0.127 C 
ATOM      9  C   UNL     1      -0.000  -0.008  -0.013  0.00  0.00    +0.133 A 
ATOM     10  C   UNL     1       0.283   0.896  -1.073  0.00  0.00    +0.048 A 
ATOM     11  C   UNL     1      -0.506   1.230  -2.245  0.00  0.00    +0.024 A 
ATOM     12  C   UNL     1      -0.031   2.128  -3.121  0.00  0.00    -0.011 A 
ATOM     13  S   UNL     1       1.546   2.590  -2.429  0.00  0.00    -0.074 S 
ATOM     14  C   UNL     1       1.521   1.569  -0.979  0.00  0.00    +0.113 A 
ATOM     15  N   UNL     1       2.343   1.360   0.030  0.00  0.00    -0.228 NA
ATOM     16  C   UNL     1       2.024   0.508   0.985  0.00  0.00    +0.224 A 
ATOM     17  N   UNL     1       0.882  -0.157   0.962  0.00  0.00    -0.220 NA
ATOM     18  C   UNL     1      -0.674   2.624  -4.390  0.00  0.00    +0.051 C 
ENDROOT
BRANCH   1  20
ATOM     19  C   UNL     1      -4.156  -5.827   2.012  0.00  0.00    +0.013 C 
ATOM     20  C   UNL     1      -3.467  -4.882   1.341  0.00  0.00    +0.068 C 
BRANCH  19  25
ATOM     21  C   UNL     1      -3.004 -11.390   1.135  0.00  0.00    +0.044 C 
ATOM     22  C   UNL     1      -3.306  -9.932   1.365  0.00  0.00    -0.050 A 
ATOM     23  C   UNL     1      -4.291  -9.566   2.265  0.00  0.00    +0.004 A 
ATOM     24  C   UNL     1      -4.573  -8.234   2.481  0.00  0.00    +0.008 A 
ATOM     25  C   UNL     1      -3.861  -7.251   1.788  0.00  0.00    -0.025 A 
ATOM     26  C   UNL     1      -2.870  -7.628   0.875  0.00  0.00    +0.008 A 
ATOM     27  C   UNL     1      -2.597  -8.965   0.674  0.00  0.00    +0.004 A 
ENDBRANCH  19  25
ENDBRANCH   1  20
TORSDOF 2
