REMARK  Name = ZINC05927282
REMARK  6 active torsions:
REMARK  status: ('A' for Active; 'I' for Inactive)
REMARK    1  A    between atoms: C_1  and  C_2
REMARK    2  A    between atoms: C_2  and  O_3
REMARK    3  A    between atoms: O_3  and  C_4
REMARK    4  A    between atoms: C_7  and  C_10
REMARK    5  A    between atoms: C_12  and  C_20
REMARK    6  A    between atoms: C_17  and  C_18
REMARK                            x       y       z     vdW  Elec       q    Type
REMARK                         _______ _______ _______ _____ _____    ______ ____
ROOT
ATOM      1  C   UNL     1       3.574   6.698   0.002  0.00  0.00    +0.007 A 
ATOM      2  C   UNL     1       2.373   5.971   0.004  0.00  0.00    +0.036 A 
ATOM      3  C   UNL     1       2.409   4.594   0.003  0.00  0.00    +0.050 A 
ATOM      4  N   UNL     1       3.600   3.921  -0.012  0.00  0.00    -0.321 N 
ATOM      5  H   UNL     1       3.599   2.951  -0.017  0.00  0.00    +0.169 HD
ATOM      6  C   UNL     1       4.773   4.580  -0.020  0.00  0.00    +0.267 A 
ATOM      7  O   UNL     1       5.821   3.957  -0.033  0.00  0.00    -0.266 OA
ATOM      8  C   UNL     1       4.794   5.996  -0.013  0.00  0.00    +0.124 A 
ENDROOT
BRANCH   3   9
ATOM      9  C   UNL     1       1.144   3.833   0.011  0.00  0.00    -0.000 A 
ATOM     10  C   UNL     1      -0.080   4.508   0.026  0.00  0.00    +0.011 A 
ATOM     11  C   UNL     1      -1.258   3.792   0.034  0.00  0.00    +0.022 A 
ATOM     12  C   UNL     1      -1.232   2.407   0.021  0.00  0.00    +0.059 A 
ATOM     13  C   UNL     1      -0.021   1.732   0.012  0.00  0.00    +0.060 A 
ATOM     14  C   UNL     1       1.165   2.437   0.004  0.00  0.00    +0.031 A 
ATOM     15 CL   UNL     1       0.002  -0.004   0.002  0.00  0.00    -0.082 Cl
ATOM     16 CL   UNL     1      -2.720   1.514   0.024  0.00  0.00    -0.082 Cl
ENDBRANCH   3   9
BRANCH   1  20
ATOM     17  C   UNL     1       3.525  10.947   0.024  0.00  0.00    +0.121 A 
ATOM     18  C   UNL     1       4.032  10.265  -1.076  0.00  0.00    +0.046 A 
ATOM     19  C   UNL     1       4.049   8.888  -1.087  0.00  0.00    +0.012 A 
ATOM     20  C   UNL     1       3.557   8.176   0.009  0.00  0.00    -0.016 A 
ATOM     21  C   UNL     1       3.043   8.865   1.110  0.00  0.00    +0.012 A 
ATOM     22  C   UNL     1       3.034  10.243   1.116  0.00  0.00    +0.046 A 
BRANCH  17  23
ATOM     23  O   UNL     1       3.510  12.304   0.030  0.00  0.00    -0.492 OA
BRANCH  23  25
ATOM     24  C   UNL     1       3.041  14.460   1.018  0.00  0.00    +0.048 C 
ATOM     25  C   UNL     1       2.975  12.941   1.193  0.00  0.00    +0.225 C 
ENDBRANCH  23  25
ENDBRANCH  17  23
ENDBRANCH   1  20
BRANCH   8  26
ATOM     26  C   UNL     1       6.039   6.703  -0.022  0.00  0.00    +0.105 C 
ATOM     27  N   UNL     1       7.027   7.265  -0.029  0.00  0.00    -0.191 NA
ENDBRANCH   8  26
TORSDOF 5
