REMARK  Name = ZINC24786954
REMARK  15 active torsions:
REMARK  status: ('A' for Active; 'I' for Inactive)
REMARK    1  A    between atoms: C_1  and  C_2
REMARK    2  A    between atoms: C_2  and  O_3
REMARK    3  A    between atoms: O_3  and  C_4
REMARK    4  A    between atoms: C_4  and  C_6
REMARK    5  A    between atoms: C_7  and  C_32
REMARK    6  A    between atoms: C_9  and  N_11
REMARK    7  A    between atoms: C_12  and  C_14
REMARK    8  A    between atoms: C_14  and  S_15
REMARK    9  A    between atoms: S_15  and  C_16
REMARK   10  A    between atoms: C_19  and  C_22
REMARK   11  A    between atoms: N_20  and  N_21
REMARK   12  A    between atoms: C_25  and  O_30
REMARK   13  A    between atoms: C_26  and  O_28
REMARK   14  A    between atoms: O_28  and  C_29
REMARK   15  A    between atoms: O_30  and  C_31
REMARK                            x       y       z     vdW  Elec       q    Type
REMARK                         _______ _______ _______ _____ _____    ______ ____
ROOT
ATOM      1  C   UNL     1      -0.283   1.805  -2.289  0.00  0.00    +0.209 A 
ATOM      2  N   UNL     1      -1.312   2.232  -2.985  0.00  0.00    -0.121 NA
ATOM      3  N   UNL     1      -2.373   2.215  -2.260  0.00  0.00    -0.127 NA
ATOM      4  C   UNL     1      -2.087   1.770  -1.058  0.00  0.00    +0.182 A 
ATOM      5  N   UNL     1      -0.741   1.490  -1.041  0.00  0.00    -0.224 N 
ENDROOT
BRANCH   4   6
ATOM      6  C   UNL     1      -3.034   1.602   0.065  0.00  0.00    +0.024 A 
ATOM      7  C   UNL     1      -2.554   1.421   1.363  0.00  0.00    +0.015 A 
ATOM      8  C   UNL     1      -3.439   1.264   2.410  0.00  0.00    +0.050 A 
ATOM      9  C   UNL     1      -4.806   1.286   2.175  0.00  0.00    +0.162 A 
ATOM     10  C   UNL     1      -5.291   1.465   0.882  0.00  0.00    +0.162 A 
ATOM     11  C   UNL     1      -4.410   1.629  -0.170  0.00  0.00    +0.061 A 
BRANCH  10  12
ATOM     12  O   UNL     1      -6.632   1.485   0.656  0.00  0.00    -0.491 OA
ATOM     13  C   UNL     1      -7.059   1.673  -0.695  0.00  0.00    +0.277 C 
ENDBRANCH  10  12
BRANCH   9  14
ATOM     14  O   UNL     1      -5.674   1.131   3.210  0.00  0.00    -0.491 OA
ATOM     15  C   UNL     1      -5.109   0.951   4.510  0.00  0.00    +0.277 C 
ENDBRANCH   9  14
ENDBRANCH   4   6
BRANCH   5  16
ATOM     16  N   UNL     1      -0.012   1.005   0.008  0.00  0.00    -0.295 N 
ATOM     17  H   UNL     1      -0.504   0.791   0.968  0.00  0.00    +0.163 HD
ATOM     18  H   UNL     1       1.068   0.828  -0.108  0.00  0.00    +0.163 HD
ENDBRANCH   5  16
BRANCH   1  19
ATOM     19  S   UNL     1       1.377   1.660  -2.861  0.00  0.00    -0.075 S 
BRANCH  19  20
ATOM     20  C   UNL     1       1.178   2.252  -4.560  0.00  0.00    +0.173 C 
BRANCH  20  22
ATOM     21  N   UNL     1       2.603   2.615  -6.548  0.00  0.00    -0.279 N 
ATOM     22  C   UNL     1       2.509   2.216  -5.264  0.00  0.00    +0.228 C 
ATOM     23  O   UNL     1       3.497   1.829  -4.675  0.00  0.00    -0.275 OA
ATOM     24  H   UNL     1       1.708   2.966  -7.082  0.00  0.00    +0.155 HD
BRANCH  21  28
ATOM     25  C   UNL     1       6.356   2.351  -8.032  0.00  0.00    +0.101 A 
ATOM     26  C   UNL     1       5.415   2.831  -8.935  0.00  0.00    -0.028 A 
ATOM     27  C   UNL     1       4.125   2.945  -8.495  0.00  0.00    +0.035 A 
ATOM     28  C   UNL     1       3.831   2.582  -7.197  0.00  0.00    +0.073 A 
ATOM     29  S   UNL     1       5.368   2.081  -6.571  0.00  0.00    -0.067 S 
ATOM     30  C   UNL     1       5.801   3.211 -10.341  0.00  0.00    +0.045 C 
BRANCH  25  31
ATOM     31  C   UNL     1       7.743   2.136  -8.222  0.00  0.00    +0.346 C 
ATOM     32  O   UNL     1       8.256   2.384  -9.297  0.00  0.00    -0.244 OA
BRANCH  31  33
ATOM     33  O   UNL     1       8.496   1.658  -7.209  0.00  0.00    -0.461 OA
BRANCH  33  35
ATOM     34  C   UNL     1      10.572   0.922  -6.214  0.00  0.00    +0.048 C 
ATOM     35  C   UNL     1       9.888   1.466  -7.470  0.00  0.00    +0.229 C 
ENDBRANCH  33  35
ENDBRANCH  31  33
ENDBRANCH  25  31
ENDBRANCH  21  28
ENDBRANCH  20  22
ENDBRANCH  19  20
ENDBRANCH   1  19
TORSDOF 11
