REMARK  Name = ZINC02889263
REMARK  4 active torsions:
REMARK  status: ('A' for Active; 'I' for Inactive)
REMARK    1  A    between atoms: C_4  and  C_7
REMARK    2  A    between atoms: C_13  and  C_15
REMARK    3  A    between atoms: C_15  and  S_16
REMARK    4  A    between atoms: S_16  and  C_17
REMARK                            x       y       z     vdW  Elec       q    Type
REMARK                         _______ _______ _______ _____ _____    ______ ____
ROOT
ATOM      1  C   UNL     1       2.255   1.295  -0.013  0.00  0.00    +0.130 A 
ATOM      2  N   UNL     1       1.117   1.978   0.002  0.00  0.00    -0.205 NA
ATOM      3  C   UNL     1      -0.016   1.314   0.009  0.00  0.00    +0.230 A 
ATOM      4  N   UNL     1       0.002  -0.004   0.002  0.00  0.00    -0.174 NA
ATOM      5  S   UNL     1       1.680  -0.342  -0.016  0.00  0.00    +0.035 S 
ATOM      6  N   UNL     1      -1.233   2.000   0.019  0.00  0.00    -0.253 N 
ATOM      7  C   UNL     1      -2.393   1.314   0.021  0.00  0.00    +0.230 C 
ATOM      8  O   UNL     1      -2.381   0.101   0.015  0.00  0.00    -0.274 OA
ATOM      9  H   UNL     1      -1.243   2.970   0.024  0.00  0.00    +0.158 HD
ENDROOT
BRANCH   1  13
ATOM     10  C   UNL     1       6.251   2.736  -0.041  0.00  0.00    +0.000 A 
ATOM     11  C   UNL     1       6.011   1.374  -0.046  0.00  0.00    +0.001 A 
ATOM     12  C   UNL     1       4.715   0.899  -0.037  0.00  0.00    +0.010 A 
ATOM     13  C   UNL     1       3.647   1.797  -0.022  0.00  0.00    +0.009 A 
ATOM     14  C   UNL     1       3.896   3.169  -0.023  0.00  0.00    +0.010 A 
ATOM     15  C   UNL     1       5.196   3.631  -0.027  0.00  0.00    +0.001 A 
ENDBRANCH   1  13
BRANCH   7  16
ATOM     16  C   UNL     1      -3.706   2.054   0.031  0.00  0.00    +0.172 C 
BRANCH  16  17
ATOM     17  S   UNL     1      -5.070   0.864   0.032  0.00  0.00    -0.096 S 
BRANCH  17  18
ATOM     18  C   UNL     1      -6.441   1.970   0.044  0.00  0.00    +0.109 A 
ATOM     19  C   UNL     1      -7.773   1.470   0.049  0.00  0.00    +0.043 A 
ATOM     20  C   UNL     1      -8.224   0.068   0.042  0.00  0.00    -0.025 A 
ATOM     21  C   UNL     1      -9.550  -0.142   0.050  0.00  0.00    -0.004 A 
ATOM     22  S   UNL     1     -10.277   1.481   0.062  0.00  0.00    -0.073 S 
ATOM     23  C   UNL     1      -8.788   2.442   0.059  0.00  0.00    +0.113 A 
ATOM     24  N   UNL     1      -8.507   3.732   0.065  0.00  0.00    -0.228 NA
ATOM     25  C   UNL     1      -7.253   4.139   0.060  0.00  0.00    +0.223 A 
ATOM     26  N   UNL     1      -6.248   3.280   0.056  0.00  0.00    -0.229 NA
ATOM     27  C   UNL     1      -9.893  -1.608   0.046  0.00  0.00    +0.043 C 
ATOM     28  C   UNL     1      -8.586  -2.313   0.471  0.00  0.00    +0.010 C 
ATOM     29  C   UNL     1      -7.521  -1.292   0.025  0.00  0.00    +0.037 C 
ENDBRANCH  17  18
ENDBRANCH  16  17
ENDBRANCH   7  16
TORSDOF 4
