REMARK  Name = ZINC66606337
REMARK  6 active torsions:
REMARK  status: ('A' for Active; 'I' for Inactive)
REMARK    1  A    between atoms: C_1  and  C_2
REMARK    2  A    between atoms: C_5  and  C_12
REMARK    3  A    between atoms: C_8  and  C_10
REMARK    4  A    between atoms: C_8  and  C_11
REMARK    5  A    between atoms: C_12  and  C_13
REMARK    6  A    between atoms: C_19  and  C_22
REMARK                            x       y       z     vdW  Elec       q    Type
REMARK                         _______ _______ _______ _____ _____    ______ ____
ROOT
ATOM      1  C   UNL     1       2.222  -0.042  -3.737  0.00  0.00    +0.216 C 
ATOM      2  O   UNL     1       1.475   0.891  -3.531  0.00  0.00    -0.276 OA
ATOM      3  N   UNL     1       2.606  -0.331  -4.997  0.00  0.00    -0.301 N 
ATOM      4  C   UNL     1       3.505  -1.462  -5.263  0.00  0.00    +0.108 C 
ATOM      5  C   UNL     1       2.858  -2.369  -6.314  0.00  0.00    +0.020 C 
ATOM      6  C   UNL     1       2.506  -1.540  -7.551  0.00  0.00    +0.014 C 
ATOM      7  C   UNL     1       1.502  -0.451  -7.169  0.00  0.00    +0.074 C 
ATOM      8  C   UNL     1       2.129   0.475  -6.129  0.00  0.00    +0.119 C 
ENDROOT
BRANCH   7   9
ATOM      9  C   UNL     1       1.131   0.344  -8.395  0.00  0.00    +0.138 A 
ATOM     10  N   UNL     1       1.948   1.025  -9.154  0.00  0.00    -0.134 NA
ATOM     11  N   UNL     1       1.290   1.573 -10.116  0.00  0.00    -0.134 NA
ATOM     12  C   UNL     1       0.029   1.263 -10.014  0.00  0.00    +0.133 A 
ATOM     13  N   UNL     1      -0.107   0.482  -8.917  0.00  0.00    -0.314 N 
ATOM     14  C   UNL     1      -1.355  -0.081  -8.399  0.00  0.00    +0.125 C 
ATOM     15  C   UNL     1      -2.339  -0.284  -9.554  0.00  0.00    +0.022 C 
ATOM     16  C   UNL     1      -3.171   0.983  -9.750  0.00  0.00    +0.002 C 
ATOM     17  C   UNL     1      -2.273   2.163 -10.108  0.00  0.00    +0.008 C 
ATOM     18  C   UNL     1      -1.087   1.675 -10.938  0.00  0.00    +0.076 C 
ENDBRANCH   7   9
BRANCH   1  19
ATOM     19  C   UNL     1       2.720  -0.878  -2.587  0.00  0.00    +0.099 C 
BRANCH  19  23
ATOM     20  C   UNL     1      -0.019   1.524   0.010  0.00  0.00    +0.007 C 
ATOM     21  C   UNL     1       0.002  -0.004   0.002  0.00  0.00    -0.013 C 
ATOM     22  C   UNL     1       0.621  -0.525  -1.288  0.00  0.00    +0.007 C 
ATOM     23  C   UNL     1       2.137  -0.340  -1.274  0.00  0.00    -0.002 C 
ATOM     24  C   UNL     1       2.721  -1.130  -0.106  0.00  0.00    +0.010 C 
ATOM     25  C   UNL     1       2.178  -0.615   1.222  0.00  0.00    -0.034 C 
ATOM     26  C   UNL     1       0.661  -0.562   1.247  0.00  0.00    +0.009 C 
ATOM     27  C   UNL     1       2.780   0.757   1.538  0.00  0.00    +0.011 C 
ATOM     28  C   UNL     1       2.640  -1.588   2.329  0.00  0.00    +0.011 C 
ENDBRANCH  19  23
ENDBRANCH   1  19
TORSDOF 3
