REMARK  Name = ZINC22472616
REMARK  7 active torsions:
REMARK  status: ('A' for Active; 'I' for Inactive)
REMARK    1  A    between atoms: C_1  and  C_2
REMARK    2  A    between atoms: C_5  and  S_8
REMARK    3  A    between atoms: S_8  and  N_11
REMARK    4  A    between atoms: N_14  and  C_17
REMARK    5  A    between atoms: C_17  and  C_18
REMARK    6  A    between atoms: C_18  and  N_19
REMARK    7  A    between atoms: C_22  and  O_23
REMARK                            x       y       z     vdW  Elec       q    Type
REMARK                         _______ _______ _______ _____ _____    ______ ____
ROOT
ATOM      1  N   UNL     1      -7.479   0.817  -0.712  0.00  0.00    -0.180 NA
ATOM      2  C   UNL     1      -7.322   1.696   0.457  0.00  0.00    +0.091 C 
ATOM      3  C   UNL     1      -6.038   2.514   0.283  0.00  0.00    -0.061 C 
ATOM      4  N   UNL     1      -4.912   1.604   0.034  0.00  0.00    +0.383 N 
ATOM      5  C   UNL     1      -5.095   0.859  -1.219  0.00  0.00    -0.061 C 
ATOM      6  C   UNL     1      -6.341  -0.026  -1.106  0.00  0.00    +0.091 C 
ATOM      7  H   UNL     1      -4.885   0.874   0.856  0.00  0.00    -0.082 HD
ENDROOT
BRANCH   1   8
ATOM      8  S   UNL     1      -8.900   0.779  -1.562  0.00  0.00    +0.061 S 
ATOM      9  O   UNL     1      -8.949  -0.483  -2.214  0.00  0.00    -0.153 OA
ATOM     10  O   UNL     1      -9.918   1.217  -0.672  0.00  0.00    -0.153 OA
BRANCH   8  15
ATOM     11  C   UNL     1      -8.495   4.949  -5.904  0.00  0.00    +0.044 C 
ATOM     12  C   UNL     1      -8.597   3.907  -4.819  0.00  0.00    -0.050 A 
ATOM     13  C   UNL     1      -8.177   2.613  -5.063  0.00  0.00    +0.005 A 
ATOM     14  C   UNL     1      -8.270   1.657  -4.068  0.00  0.00    +0.029 A 
ATOM     15  C   UNL     1      -8.781   1.997  -2.829  0.00  0.00    +0.105 A 
ATOM     16  C   UNL     1      -9.206   3.290  -2.588  0.00  0.00    +0.029 A 
ATOM     17  C   UNL     1      -9.109   4.246  -3.581  0.00  0.00    +0.005 A 
ENDBRANCH   8  15
ENDBRANCH   1   8
BRANCH   4  18
ATOM     18  C   UNL     1      -3.637   2.333   0.032  0.00  0.00    -0.058 C 
BRANCH  18  19
ATOM     19  C   UNL     1      -2.478   1.334   0.021  0.00  0.00    +0.094 C 
BRANCH  19  20
ATOM     20  N   UNL     1      -1.206   2.061   0.019  0.00  0.00    -0.385 N 
ATOM     21  C   UNL     1      -0.017   1.367   0.010  0.00  0.00    +0.053 A 
ATOM     22  C   UNL     1       0.002  -0.004   0.002  0.00  0.00    +0.113 A 
ATOM     23  C   UNL     1       1.228  -0.681  -0.013  0.00  0.00    +0.286 A 
ATOM     24  O   UNL     1       2.400  -0.026  -0.021  0.00  0.00    -0.425 OA
ATOM     25  C   UNL     1       2.460   1.323  -0.014  0.00  0.00    +0.141 A 
ATOM     26  C   UNL     1       1.275   2.075   0.001  0.00  0.00    +0.041 A 
ATOM     27  C   UNL     1       1.332   3.469   0.007  0.00  0.00    +0.013 A 
ATOM     28  C   UNL     1       2.556   4.101  -0.001  0.00  0.00    +0.001 A 
ATOM     29  C   UNL     1       3.727   3.357  -0.017  0.00  0.00    +0.004 A 
ATOM     30  C   UNL     1       3.684   1.979  -0.022  0.00  0.00    +0.047 A 
ATOM     31  H   UNL     1      -1.202   3.161   0.025  0.00  0.00    +0.160 HD
BRANCH  23  32
ATOM     32  O   UNL     1       1.231  -1.900  -0.020  0.00  0.00    -0.480 OA
ATOM     33  H   UNL     1       2.185  -2.448  -0.032  0.00  0.00    +0.295 HD
ENDBRANCH  23  32
ENDBRANCH  19  20
ENDBRANCH  18  19
ENDBRANCH   4  18
TORSDOF 6
