REMARK  Name = ZINC63135298
REMARK  7 active torsions:
REMARK  status: ('A' for Active; 'I' for Inactive)
REMARK    1  A    between atoms: C_6  and  C_26
REMARK    2  A    between atoms: C_8  and  C_11
REMARK    3  A    between atoms: C_11  and  C_12
REMARK    4  A    between atoms: C_12  and  C_13
REMARK    5  A    between atoms: N_15  and  C_16
REMARK    6  A    between atoms: C_19  and  S_22
REMARK    7  A    between atoms: S_22  and  N_25
REMARK                            x       y       z     vdW  Elec       q    Type
REMARK                         _______ _______ _______ _____ _____    ______ ____
ROOT
ATOM      1  C   UNL     1       0.691  -3.185  -0.021  0.00  0.00    +0.043 C 
ENDROOT
BRANCH   1   8
ATOM      2  C   UNL     1      -0.016   1.348   0.046  0.00  0.00    +0.001 A 
ATOM      3  C   UNL     1       1.166   2.101   0.044  0.00  0.00    +0.002 A 
ATOM      4  C   UNL     1       2.391   1.536   0.025  0.00  0.00    +0.026 A 
ATOM      5  C   UNL     1       2.529   0.120   0.005  0.00  0.00    +0.043 A 
ATOM      6  N   UNL     1       3.587  -0.654  -0.016  0.00  0.00    -0.374 N 
ATOM      7  C   UNL     1       3.143  -2.052  -0.030  0.00  0.00    +0.137 C 
ATOM      8  C   UNL     1       1.631  -2.008  -0.014  0.00  0.00    -0.034 C 
ATOM      9  C   UNL     1       1.295  -0.698   0.007  0.00  0.00    -0.000 A 
ATOM     10  C   UNL     1       0.002  -0.004   0.029  0.00  0.00    +0.010 A 
ATOM     11  H   UNL     1       4.509  -0.352  -0.021  0.00  0.00    +0.161 HD
BRANCH   7  12
ATOM     12  C   UNL     1       3.631  -2.739  -1.279  0.00  0.00    -0.021 A 
ATOM     13  C   UNL     1       3.648  -2.056  -2.481  0.00  0.00    +0.009 A 
ATOM     14  C   UNL     1       4.096  -2.685  -3.628  0.00  0.00    +0.039 A 
ATOM     15  C   UNL     1       4.527  -4.000  -3.572  0.00  0.00    +0.123 A 
ATOM     16  C   UNL     1       4.510  -4.683  -2.368  0.00  0.00    +0.039 A 
ATOM     17  C   UNL     1       4.066  -4.050  -1.222  0.00  0.00    +0.009 A 
ATOM     18  F   UNL     1       4.965  -4.616  -4.692  0.00  0.00    -0.205 F 
ENDBRANCH   7  12
ENDBRANCH   1   8
BRANCH   1  19
ATOM     19  C   UNL     1      -0.755  -2.683   0.001  0.00  0.00    +0.100 C 
BRANCH  19  20
ATOM     20  C   UNL     1      -1.696  -3.860  -0.006  0.00  0.00    +0.217 C 
ATOM     21  O   UNL     1      -1.254  -4.990  -0.027  0.00  0.00    -0.275 OA
ATOM     22  N   UNL     1      -3.028  -3.658   0.010  0.00  0.00    -0.285 N 
ATOM     23  H   UNL     1      -3.381  -2.758   0.094  0.00  0.00    +0.155 HD
BRANCH  22  24
ATOM     24  C   UNL     1      -3.902  -4.746  -0.094  0.00  0.00    +0.033 A 
ATOM     25  C   UNL     1      -5.101  -4.612  -0.783  0.00  0.00    +0.025 A 
ATOM     26  C   UNL     1      -5.961  -5.687  -0.884  0.00  0.00    +0.030 A 
ATOM     27  C   UNL     1      -5.630  -6.896  -0.300  0.00  0.00    +0.105 A 
ATOM     28  C   UNL     1      -4.438  -7.033   0.387  0.00  0.00    +0.030 A 
ATOM     29  C   UNL     1      -3.570  -5.963   0.486  0.00  0.00    +0.025 A 
BRANCH  27  30
ATOM     30  S   UNL     1      -6.731  -8.266  -0.431  0.00  0.00    +0.056 S 
ATOM     31  O   UNL     1      -6.443  -9.125   0.664  0.00  0.00    -0.153 OA
ATOM     32  O   UNL     1      -8.026  -7.726  -0.656  0.00  0.00    -0.153 OA
BRANCH  30  33
ATOM     33  N   UNL     1      -6.319  -9.095  -1.804  0.00  0.00    -0.204 NA
ATOM     34  H   UNL     1      -5.585  -8.785  -2.356  0.00  0.00    +0.144 HD
ATOM     35  H   UNL     1      -6.813  -9.892  -2.056  0.00  0.00    +0.144 HD
ENDBRANCH  30  33
ENDBRANCH  27  30
ENDBRANCH  22  24
ENDBRANCH  19  20
ENDBRANCH   1  19
TORSDOF 7
