REMARK  Name = ZINC10048572
REMARK  10 active torsions:
REMARK  status: ('A' for Active; 'I' for Inactive)
REMARK    1  A    between atoms: C_1  and  C_2
REMARK    2  A    between atoms: N_9  and  C_10
REMARK    3  A    between atoms: N_17  and  C_36
REMARK    4  A    between atoms: N_20  and  C_23
REMARK    5  A    between atoms: C_23  and  C_24
REMARK    6  A    between atoms: C_24  and  C_26
REMARK    7  A    between atoms: C_24  and  C_27
REMARK    8  A    between atoms: C_27  and  N_28
REMARK    9  A    between atoms: N_28  and  C_29
REMARK   10  A    between atoms: C_34  and  N_35
REMARK                            x       y       z     vdW  Elec       q    Type
REMARK                         _______ _______ _______ _____ _____    ______ ____
ROOT
ATOM      1  C   UNL     1      -6.549  -1.379  -7.382  0.00  0.00    +0.065 C 
ATOM      2  C   UNL     1      -5.429  -0.458  -6.969  0.00  0.00    +0.040 A 
ATOM      3  C   UNL     1      -4.614  -0.637  -5.934  0.00  0.00    +0.116 A 
ATOM      4  N   UNL     1      -3.725   0.423  -5.891  0.00  0.00    -0.277 N 
ATOM      5  C   UNL     1      -2.651   0.974  -5.208  0.00  0.00    +0.157 A 
ATOM      6  C   UNL     1      -2.326   2.154  -5.876  0.00  0.00    +0.170 A 
ATOM      7  N   UNL     1      -3.170   2.281  -6.897  0.00  0.00    -0.193 NA
ATOM      8  C   UNL     1      -4.010   1.257  -6.918  0.00  0.00    +0.223 A 
ATOM      9  N   UNL     1      -5.072   0.720  -7.601  0.00  0.00    -0.283 N 
ATOM     10  N   UNL     1      -1.273   2.921  -5.402  0.00  0.00    -0.279 N 
ATOM     11  C   UNL     1      -0.586   2.523  -4.315  0.00  0.00    +0.333 A 
ATOM     12  O   UNL     1       0.335   3.207  -3.912  0.00  0.00    -0.246 OA
ATOM     13  N   UNL     1      -0.891   1.387  -3.665  0.00  0.00    -0.259 N 
ATOM     14  C   UNL     1      -1.901   0.596  -4.082  0.00  0.00    +0.283 A 
ATOM     15  O   UNL     1      -2.164  -0.434  -3.485  0.00  0.00    -0.265 OA
ATOM     16  C   UNL     1      -0.908   4.166  -6.083  0.00  0.00    +0.155 C 
ENDROOT
BRANCH   9  17
ATOM     17  C   UNL     1      -5.687   1.268  -8.735  0.00  0.00    +0.050 A 
ATOM     18  C   UNL     1      -4.977   1.384  -9.922  0.00  0.00    +0.029 A 
ATOM     19  C   UNL     1      -5.586   1.918 -11.041  0.00  0.00    +0.040 A 
ATOM     20  C   UNL     1      -6.900   2.349 -10.975  0.00  0.00    +0.124 A 
ATOM     21  C   UNL     1      -7.608   2.239  -9.790  0.00  0.00    +0.040 A 
ATOM     22  C   UNL     1      -7.005   1.700  -8.671  0.00  0.00    +0.029 A 
ATOM     23  F   UNL     1      -7.492   2.877 -12.069  0.00  0.00    -0.205 F 
ENDBRANCH   9  17
BRANCH  13  24
ATOM     24  C   UNL     1      -0.111   0.998  -2.487  0.00  0.00    +0.134 C 
BRANCH  24  25
ATOM     25  C   UNL     1      -0.753   1.593  -1.232  0.00  0.00    +0.023 C 
ATOM     26  C   UNL     1      -0.666   3.119  -1.289  0.00  0.00    +0.011 C 
BRANCH  25  27
ATOM     27  C   UNL     1      -0.013   1.086   0.008  0.00  0.00    +0.106 C 
BRANCH  27  28
ATOM     28  N   UNL     1      -0.698   1.558   1.213  0.00  0.00    -0.342 N 
ATOM     29  H   UNL     1      -1.495   2.106   1.135  0.00  0.00    +0.146 HD
BRANCH  28  30
ATOM     30  C   UNL     1      -0.203   1.220   2.479  0.00  0.00    +0.048 A 
ATOM     31  C   UNL     1       0.932   0.433   2.593  0.00  0.00    +0.025 A 
ATOM     32  C   UNL     1       1.422   0.103   3.844  0.00  0.00    +0.002 A 
ATOM     33  C   UNL     1       0.777   0.548   4.982  0.00  0.00    +0.002 A 
ATOM     34  C   UNL     1      -0.359   1.329   4.877  0.00  0.00    +0.024 A 
ATOM     35  C   UNL     1      -0.855   1.668   3.627  0.00  0.00    +0.046 A 
BRANCH  35  36
ATOM     36  N   UNL     1      -2.005   2.459   3.519  0.00  0.00    -0.357 N 
ATOM     37  H   UNL     1      -2.351   2.695   2.644  0.00  0.00    +0.142 HD
ATOM     38  H   UNL     1      -2.457   2.770   4.319  0.00  0.00    +0.142 HD
ENDBRANCH  35  36
ENDBRANCH  28  30
ENDBRANCH  27  28
ENDBRANCH  25  27
ENDBRANCH  24  25
ENDBRANCH  13  24
TORSDOF 7
