REMARK  Name = ZINC21239309
REMARK  10 active torsions:
REMARK  status: ('A' for Active; 'I' for Inactive)
REMARK    1  A    between atoms: C_1  and  C_2
REMARK    2  A    between atoms: C_2  and  C_3
REMARK    3  A    between atoms: C_2  and  C_4
REMARK    4  A    between atoms: C_4  and  O_5
REMARK    5  A    between atoms: O_5  and  C_6
REMARK    6  A    between atoms: C_9  and  C_12
REMARK    7  A    between atoms: C_17  and  C_27
REMARK    8  A    between atoms: C_31  and  O_34
REMARK    9  A    between atoms: C_32  and  O_33
REMARK   10  A    between atoms: O_34  and  C_35
REMARK                            x       y       z     vdW  Elec       q    Type
REMARK                         _______ _______ _______ _____ _____    ______ ____
ROOT
ATOM      1  C   UNL     1       4.778   4.999   2.831  0.00  0.00    +0.032 C 
ATOM      2  C   UNL     1       4.318   5.082   1.377  0.00  0.00    +0.059 C 
ATOM      3  C   UNL     1       3.568   3.816   0.998  0.00  0.00    +0.017 C 
ATOM      4  C   UNL     1       3.903   2.635   1.547  0.00  0.00    +0.037 C 
ATOM      5  C   UNL     1       3.250   1.306   1.255  0.00  0.00    +0.140 C 
ATOM      6  N   UNL     1       2.363   1.309   0.111  0.00  0.00    -0.331 N 
ATOM      7  C   UNL     1       1.194   2.069   0.110  0.00  0.00    +0.049 A 
ATOM      8  C   UNL     1      -0.056   1.472   0.117  0.00  0.00    +0.025 A 
ATOM      9  C   UNL     1      -1.187   2.265   0.213  0.00  0.00    +0.002 A 
ATOM     10  C   UNL     1      -1.071   3.640   0.313  0.00  0.00    +0.002 A 
ATOM     11  C   UNL     1       0.176   4.239   0.290  0.00  0.00    +0.025 A 
ATOM     12  C   UNL     1       1.307   3.450   0.171  0.00  0.00    +0.052 A 
ATOM     13  N   UNL     1       2.584   3.989   0.079  0.00  0.00    -0.316 N 
ATOM     14  C   UNL     1       4.945   2.565   2.501  0.00  0.00    +0.163 C 
ATOM     15  O   UNL     1       5.242   1.481   2.965  0.00  0.00    -0.292 OA
ATOM     16  C   UNL     1       5.696   3.778   2.961  0.00  0.00    +0.088 C 
ATOM     17  H   UNL     1       2.607   0.706  -0.776  0.00  0.00    +0.147 HD
ATOM     18  H   UNL     1       2.771   4.595  -0.820  0.00  0.00    +0.152 HD
ENDROOT
BRANCH   1  22
ATOM     19  C   UNL     1       6.927   8.543   3.873  0.00  0.00    +0.121 A 
ATOM     20  C   UNL     1       5.774   8.201   4.565  0.00  0.00    +0.046 A 
ATOM     21  C   UNL     1       5.082   7.055   4.226  0.00  0.00    +0.007 A 
ATOM     22  C   UNL     1       5.536   6.249   3.199  0.00  0.00    -0.043 A 
ATOM     23  C   UNL     1       6.688   6.585   2.511  0.00  0.00    +0.007 A 
ATOM     24  C   UNL     1       7.381   7.733   2.842  0.00  0.00    +0.046 A 
BRANCH  19  25
ATOM     25  O   UNL     1       7.610   9.670   4.205  0.00  0.00    -0.492 OA
BRANCH  25  26
ATOM     26  C   UNL     1       8.788   9.960   3.450  0.00  0.00    +0.232 C 
BRANCH  26  28
ATOM     27  C   UNL     1      10.743  11.503   3.240  0.00  0.00    +0.010 C 
ATOM     28  C   UNL     1       9.417  11.258   3.963  0.00  0.00    +0.020 C 
ATOM     29  C   UNL     1       8.466  12.426   3.695  0.00  0.00    +0.010 C 
ENDBRANCH  26  28
ENDBRANCH  25  26
ENDBRANCH  19  25
ENDBRANCH   1  22
BRANCH   5  30
ATOM     30  C   UNL     1       2.462   0.884   2.468  0.00  0.00    +0.022 A 
ATOM     31  C   UNL     1       2.142   1.813   3.442  0.00  0.00    +0.009 A 
ATOM     32  C   UNL     1       1.415   1.430   4.553  0.00  0.00    +0.004 A 
ATOM     33  C   UNL     1       1.014   0.115   4.702  0.00  0.00    +0.049 A 
ATOM     34  C   UNL     1       1.336  -0.821   3.733  0.00  0.00    +0.162 A 
ATOM     35  C   UNL     1       2.063  -0.435   2.611  0.00  0.00    +0.164 A 
BRANCH  35  36
ATOM     36  O   UNL     1       2.382  -1.350   1.657  0.00  0.00    -0.503 OA
ATOM     37  H   UNL     1       2.065  -2.397   1.772  0.00  0.00    +0.292 HD
ENDBRANCH  35  36
BRANCH  34  38
ATOM     38  O   UNL     1       0.942  -2.115   3.878  0.00  0.00    -0.491 OA
ATOM     39  C   UNL     1       0.198  -2.439   5.054  0.00  0.00    +0.277 C 
ENDBRANCH  34  38
ENDBRANCH   5  30
TORSDOF 7
