REMARK  Name = ZINC22719187
REMARK  4 active torsions:
REMARK  status: ('A' for Active; 'I' for Inactive)
REMARK    1  A    between atoms: C_1  and  C_2
REMARK    2  A    between atoms: C_5  and  N_9
REMARK    3  A    between atoms: C_10  and  C_12
REMARK    4  A    between atoms: C_12  and  N_13
REMARK                            x       y       z     vdW  Elec       q    Type
REMARK                         _______ _______ _______ _____ _____    ______ ____
ROOT
ATOM      1  C   UNL     1      -0.136  -6.343  -1.191  0.00  0.00    +0.214 C 
ENDROOT
BRANCH   1   2
ATOM      2  N   UNL     1      -0.234  -6.825  -2.571  0.00  0.00    -0.215 N 
ATOM      3  C   UNL     1      -1.396  -7.000  -3.231  0.00  0.00    +0.248 C 
ATOM      4  O   UNL     1      -2.515  -6.795  -2.812  0.00  0.00    -0.273 OA
ATOM      5  C   UNL     1      -1.012  -7.505  -4.607  0.00  0.00    +0.122 C 
ATOM      6  C   UNL     1      -1.466  -6.513  -5.675  0.00  0.00    +0.047 C 
ATOM      7  C   UNL     1      -1.698  -7.245  -7.026  0.00  0.00    +0.072 C 
ATOM      8  S   UNL     1      -2.476  -8.800  -6.405  0.00  0.00    -0.158 S 
ATOM      9  C   UNL     1      -1.574  -8.925  -4.805  0.00  0.00    +0.104 C 
ATOM     10  N   UNL     1       0.458  -7.562  -4.559  0.00  0.00    -0.284 N 
ATOM     11  C   UNL     1       0.819  -7.141  -3.333  0.00  0.00    +0.310 C 
ATOM     12  O   UNL     1       1.973  -7.061  -2.959  0.00  0.00    -0.252 OA
ATOM     13  H   UNL     1       1.051  -7.844  -5.274  0.00  0.00    +0.151 HD
ENDBRANCH   1   2
BRANCH   1  15
ATOM     14  N   UNL     1       0.057  -4.171  -0.023  0.00  0.00    -0.283 N 
ATOM     15  C   UNL     1      -0.042  -4.839  -1.190  0.00  0.00    +0.235 C 
ATOM     16  O   UNL     1      -0.055  -4.230  -2.238  0.00  0.00    -0.274 OA
ATOM     17  H   UNL     1       0.149  -4.660   0.809  0.00  0.00    +0.155 HD
BRANCH  14  22
ATOM     18  C   UNL     1      -0.064   1.502   0.016  0.00  0.00    +0.044 C 
ATOM     19  C   UNL     1      -0.031  -0.005   0.006  0.00  0.00    -0.049 A 
ATOM     20  C   UNL     1      -0.622  -0.701  -1.033  0.00  0.00    +0.005 A 
ATOM     21  C   UNL     1      -0.594  -2.082  -1.045  0.00  0.00    +0.025 A 
ATOM     22  C   UNL     1       0.028  -2.772  -0.014  0.00  0.00    +0.052 A 
ATOM     23  C   UNL     1       0.621  -2.070   1.029  0.00  0.00    +0.062 A 
ATOM     24  C   UNL     1       0.595  -0.688   1.032  0.00  0.00    +0.025 A 
ATOM     25 CL   UNL     1       1.401  -2.928   2.321  0.00  0.00    -0.082 Cl
ENDBRANCH  14  22
ENDBRANCH   1  15
TORSDOF 3
