REMARK  Name = ZINC40735234
REMARK  10 active torsions:
REMARK  status: ('A' for Active; 'I' for Inactive)
REMARK    1  A    between atoms: C_1  and  C_2
REMARK    2  A    between atoms: C_2  and  CA_3
REMARK    3  A    between atoms: CA_3  and  C_5
REMARK    4  A    between atoms: CA_3  and  N_7
REMARK    5  A    between atoms: C_5  and  O_6
REMARK    6  A    between atoms: N_7  and  C_8
REMARK    7  A    between atoms: C_8  and  C_9
REMARK    8  A    between atoms: C_18  and  O_19
REMARK    9  A    between atoms: O_19  and  C_20
REMARK   10  A    between atoms: C_20  and  C_21
REMARK                            x       y       z     vdW  Elec       q    Type
REMARK                         _______ _______ _______ _____ _____    ______ ____
ROOT
ATOM      1  C   UNL     1       3.973   1.524   1.329  0.00  0.00    -0.015 A 
ATOM      2  C   UNL     1       4.732   1.461   2.509  0.00  0.00    -0.013 A 
ATOM      3  C   UNL     1       4.143   1.118   3.738  0.00  0.00    +0.009 A 
ATOM      4  C   UNL     1       4.909   1.067   4.862  0.00  0.00    +0.001 A 
ATOM      5  C   UNL     1       6.273   1.350   4.813  0.00  0.00    +0.001 A 
ATOM      6  C   UNL     1       6.878   1.685   3.641  0.00  0.00    +0.008 A 
ATOM      7  C   UNL     1       6.120   1.748   2.460  0.00  0.00    -0.017 A 
ATOM      8  C   UNL     1       6.711   2.091   1.232  0.00  0.00    +0.012 A 
ATOM      9  C   UNL     1       5.949   2.142   0.107  0.00  0.00    +0.046 A 
ATOM     10  C   UNL     1       4.581   1.855   0.152  0.00  0.00    +0.123 A 
ENDROOT
BRANCH   1  11
ATOM     11  C   UNL     1       2.497   1.222   1.361  0.00  0.00    -0.042 C 
BRANCH  11  12
ATOM     12  N   UNL     1       2.286  -0.214   1.135  0.00  0.00    +0.385 N 
ATOM     13  H1  UNL     1       2.678  -0.738   1.903  0.00  0.00    -0.085 HD
ATOM     14  H2  UNL     1       2.738  -0.489   0.275  0.00  0.00    -0.085 HD
BRANCH  12  15
ATOM     15  CA  UNL     1       0.846  -0.489   1.040  0.00  0.00    -0.046 C 
BRANCH  15  17
ATOM     16  C   UNL     1       1.182  -2.218  -0.732  0.00  0.00    +0.002 C 
ATOM     17  C   UNL     1       0.630  -1.958   0.671  0.00  0.00    -0.017 C 
ENDBRANCH  15  17
BRANCH  15  18
ATOM     18  C   UNL     1       0.182  -0.199   2.388  0.00  0.00    +0.140 C 
BRANCH  18  19
ATOM     19  O   UNL     1       0.677  -1.111   3.369  0.00  0.00    -0.397 OA
ATOM     20  H   UNL     1       0.299  -0.986   4.250  0.00  0.00    +0.209 HD
ENDBRANCH  18  19
ENDBRANCH  15  18
ENDBRANCH  12  15
ENDBRANCH  11  12
ENDBRANCH   1  11
BRANCH  10  21
ATOM     21  O   UNL     1       3.846   1.909  -0.990  0.00  0.00    -0.487 OA
BRANCH  21  22
ATOM     22  C   UNL     1       4.537   2.261  -2.190  0.00  0.00    +0.267 C 
BRANCH  22  23
ATOM     23  C   UNL     1       3.568   2.271  -3.344  0.00  0.00    +0.026 A 
ATOM     24  C   UNL     1       3.351   1.117  -4.075  0.00  0.00    +0.049 A 
ATOM     25  C   UNL     1       2.461   1.127  -5.134  0.00  0.00    +0.020 A 
ATOM     26  C   UNL     1       1.789   2.289  -5.462  0.00  0.00    +0.003 A 
ATOM     27  C   UNL     1       2.005   3.442  -4.732  0.00  0.00    +0.020 A 
ATOM     28  C   UNL     1       2.890   3.432  -3.668  0.00  0.00    +0.049 A 
ATOM     29 CL   UNL     1       3.156   4.879  -2.746  0.00  0.00    -0.083 Cl
ATOM     30 CL   UNL     1       4.196  -0.343  -3.664  0.00  0.00    -0.083 Cl
ENDBRANCH  22  23
ENDBRANCH  21  22
ENDBRANCH  10  21
TORSDOF 9
