REMARK  Name = ZINC40724202
REMARK  2 active torsions:
REMARK  status: ('A' for Active; 'I' for Inactive)
REMARK    1  A    between atoms: C_1  and  C_2
REMARK    2  A    between atoms: N_12  and  C_13
REMARK                            x       y       z     vdW  Elec       q    Type
REMARK                         _______ _______ _______ _____ _____    ______ ____
ROOT
ATOM      1  C   UNL     1      -0.640  -1.165  -2.082  0.00  0.00    +0.009 C 
ATOM      2  C   UNL     1       0.517  -0.671  -1.212  0.00  0.00    +0.005 C 
ATOM      3  C   UNL     1      -0.013  -0.067   0.115  0.00  0.00    +0.024 C 
ATOM      4  C   UNL     1       1.198  -0.276   1.058  0.00  0.00    +0.108 C 
ATOM      5  N   UNL     1       1.764  -1.579   0.662  0.00  0.00    -0.300 N 
ATOM      6  C   UNL     1       1.387  -1.853  -0.736  0.00  0.00    +0.111 C 
ATOM      7  C   UNL     1       2.528  -2.407   1.470  0.00  0.00    +0.218 A 
ATOM      8  N   UNL     1       2.826  -2.186   2.717  0.00  0.00    -0.137 NA
ATOM      9  N   UNL     1       3.611  -3.255   3.172  0.00  0.00    -0.253 N 
ATOM     10  C   UNL     1       3.762  -4.112   2.141  0.00  0.00    +0.177 A 
ATOM     11  N   UNL     1       3.093  -3.602   1.087  0.00  0.00    -0.288 N 
ATOM     12  S   UNL     1       4.637  -5.583   2.167  0.00  0.00    -0.011 S 
ATOM     13  H   UNL     1       3.978  -3.360   4.064  0.00  0.00    +0.191 HD
ENDROOT
BRANCH  11  14
ATOM     14  C   UNL     1       2.989  -4.213  -0.240  0.00  0.00    +0.092 C 
ATOM     15  C   UNL     1       2.334  -5.591  -0.116  0.00  0.00    +0.025 C 
ATOM     16  C   UNL     1       2.225  -6.230  -1.502  0.00  0.00    +0.002 C 
ATOM     17  C   UNL     1       3.623  -6.381  -2.106  0.00  0.00    +0.000 C 
ATOM     18  C   UNL     1       4.277  -5.004  -2.229  0.00  0.00    +0.002 C 
ATOM     19  C   UNL     1       4.386  -4.365  -0.843  0.00  0.00    +0.025 C 
ENDBRANCH  11  14
TORSDOF 1
