REMARK  Name = ZINC38705366
REMARK  13 active torsions:
REMARK  status: ('A' for Active; 'I' for Inactive)
REMARK    1  A    between atoms: C_1  and  C_2
REMARK    2  A    between atoms: C_2  and  C_3
REMARK    3  A    between atoms: C_3  and  C_4
REMARK    4  A    between atoms: C_4  and  C_5
REMARK    5  A    between atoms: C_5  and  O_6
REMARK    6  A    between atoms: O_6  and  C_7
REMARK    7  A    between atoms: C_10  and  C_13
REMARK    8  A    between atoms: C_16  and  C_31
REMARK    9  A    between atoms: N_23  and  C_24
REMARK   10  A    between atoms: C_24  and  C_25
REMARK   11  A    between atoms: C_32  and  C_39
REMARK   12  A    between atoms: C_34  and  C_38
REMARK   13  A    between atoms: C_36  and  O_37
REMARK                            x       y       z     vdW  Elec       q    Type
REMARK                         _______ _______ _______ _____ _____    ______ ____
ROOT
ATOM      1  C   UNL     1       4.118  -6.518   6.801  0.00  0.00    +0.141 C 
ATOM      2  C   UNL     1       5.421  -7.105   6.331  0.00  0.00    +0.035 A 
ATOM      3  C   UNL     1       6.684  -6.877   5.774  0.00  0.00    +0.102 A 
ATOM      4  N   UNL     1       7.286  -8.046   5.671  0.00  0.00    -0.173 NA
ATOM      5  N   UNL     1       6.528  -8.988   6.106  0.00  0.00    -0.272 N 
ATOM      6  H   UNL     1       6.765  -9.928   6.127  0.00  0.00    +0.189 HD
ATOM      7  C   UNL     1       5.340  -8.469   6.537  0.00  0.00    +0.126 A 
ATOM      8  C   UNL     1       4.031  -8.775   7.123  0.00  0.00    +0.266 C 
ATOM      9  O   UNL     1       3.649  -9.890   7.423  0.00  0.00    -0.268 OA
ATOM     10  N   UNL     1       3.312  -7.648   7.281  0.00  0.00    -0.283 N 
ENDROOT
BRANCH   3  11
ATOM     11  C   UNL     1       7.244  -5.562   5.374  0.00  0.00    +0.047 A 
ATOM     12  C   UNL     1       7.814  -5.399   4.114  0.00  0.00    -0.037 A 
ATOM     13  C   UNL     1       8.333  -4.175   3.746  0.00  0.00    +0.007 A 
ATOM     14  C   UNL     1       8.289  -3.107   4.624  0.00  0.00    -0.047 A 
ATOM     15  C   UNL     1       7.725  -3.257   5.877  0.00  0.00    +0.049 A 
ATOM     16  C   UNL     1       7.195  -4.480   6.257  0.00  0.00    +0.127 A 
ATOM     17  C   UNL     1       8.858  -1.773   4.214  0.00  0.00    +0.044 C 
ATOM     18  C   UNL     1       7.865  -6.560   3.153  0.00  0.00    +0.044 C 
BRANCH  16  19
ATOM     19  O   UNL     1       6.635  -4.628   7.486  0.00  0.00    -0.506 OA
ATOM     20  H   UNL     1       7.270  -4.830   8.186  0.00  0.00    +0.292 HD
ENDBRANCH  16  19
ENDBRANCH   3  11
BRANCH   1  24
ATOM     21  C   UNL     1       2.130  -4.566   3.560  0.00  0.00    +0.121 A 
ATOM     22  C   UNL     1       2.631  -3.821   4.618  0.00  0.00    +0.046 A 
ATOM     23  C   UNL     1       3.273  -4.455   5.665  0.00  0.00    +0.009 A 
ATOM     24  C   UNL     1       3.417  -5.830   5.658  0.00  0.00    -0.022 A 
ATOM     25  C   UNL     1       2.919  -6.574   4.605  0.00  0.00    +0.009 A 
ATOM     26  C   UNL     1       2.271  -5.946   3.559  0.00  0.00    +0.046 A 
BRANCH  21  27
ATOM     27  O   UNL     1       1.498  -3.945   2.530  0.00  0.00    -0.492 OA
BRANCH  27  28
ATOM     28  C   UNL     1       1.390  -2.522   2.598  0.00  0.00    +0.229 C 
BRANCH  28  29
ATOM     29  C   UNL     1       0.654  -2.006   1.360  0.00  0.00    +0.041 C 
BRANCH  29  30
ATOM     30  C   UNL     1       0.538  -0.482   1.433  0.00  0.00    +0.003 C 
BRANCH  30  32
ATOM     31  C   UNL     1      -0.314   1.558   0.268  0.00  0.00    +0.004 C 
ATOM     32  C   UNL     1      -0.198   0.034   0.195  0.00  0.00    -0.003 C 
ENDBRANCH  30  32
ENDBRANCH  29  30
ENDBRANCH  28  29
ENDBRANCH  27  28
ENDBRANCH  21  27
ENDBRANCH   1  24
BRANCH  10  33
ATOM     33  C   UNL     1       1.959  -7.562   7.837  0.00  0.00    +0.140 C 
BRANCH  33  34
ATOM     34  C   UNL     1       0.934  -7.699   6.708  0.00  0.00    +0.136 C 
ATOM     35  C   UNL     1      -0.490  -7.490   7.265  0.00  0.00    +0.035 C 
ATOM     36  C   UNL     1      -1.309  -8.554   6.485  0.00  0.00    +0.031 C 
ATOM     37  C   UNL     1      -0.263  -9.689   6.350  0.00  0.00    +0.160 C 
ATOM     38  O   UNL     1       0.995  -9.020   6.155  0.00  0.00    -0.375 OA
ENDBRANCH  33  34
ENDBRANCH  10  33
TORSDOF 10
