REMARK  Name = ZINC62220526
REMARK  7 active torsions:
REMARK  status: ('A' for Active; 'I' for Inactive)
REMARK    1  A    between atoms: C_1  and  C_2
REMARK    2  A    between atoms: C_2  and  C_3
REMARK    3  A    between atoms: C_3  and  C_4
REMARK    4  A    between atoms: C_4  and  C_6
REMARK    5  A    between atoms: C_4  and  C_21
REMARK    6  A    between atoms: C_6  and  C_7
REMARK    7  A    between atoms: N_9  and  C_10
REMARK                            x       y       z     vdW  Elec       q    Type
REMARK                         _______ _______ _______ _____ _____    ______ ____
ROOT
ATOM      1  C   UNL     1      -0.662  -4.050  -1.503  0.00  0.00    +0.218 C 
ATOM      2  O   UNL     1       0.381  -4.645  -1.329  0.00  0.00    -0.275 OA
ATOM      3  N   UNL     1      -1.821  -4.732  -1.590  0.00  0.00    -0.285 N 
ATOM      4  H   UNL     1      -2.645  -4.264  -1.798  0.00  0.00    +0.155 HD
ENDROOT
BRANCH   3   5
ATOM      5  C   UNL     1      -1.836  -6.117  -1.380  0.00  0.00    +0.037 A 
ATOM      6  C   UNL     1      -0.976  -6.686  -0.449  0.00  0.00    +0.025 A 
ATOM      7  C   UNL     1      -0.987  -8.051  -0.239  0.00  0.00    +0.031 A 
ATOM      8  C   UNL     1      -1.859  -8.854  -0.958  0.00  0.00    +0.087 A 
ATOM      9  C   UNL     1      -2.724  -8.286  -1.893  0.00  0.00    +0.159 A 
ATOM     10  C   UNL     1      -2.714  -6.916  -2.098  0.00  0.00    +0.071 A 
ATOM     11  O   UNL     1      -3.449  -9.295  -2.436  0.00  0.00    -0.408 OA
ATOM     12  C   UNL     1      -3.072 -10.458  -1.881  0.00  0.00    +0.419 A 
ATOM     13  O   UNL     1      -3.533 -11.549  -2.156  0.00  0.00    -0.223 OA
ATOM     14  N   UNL     1      -2.102 -10.229  -0.974  0.00  0.00    -0.288 N 
ATOM     15  H   UNL     1      -1.655 -10.896  -0.430  0.00  0.00    +0.172 HD
ENDBRANCH   3   5
BRANCH   1  16
ATOM     16  C   UNL     1      -0.661  -2.547  -1.621  0.00  0.00    +0.104 C 
BRANCH  16  17
ATOM     17  C   UNL     1       0.752  -2.017  -1.371  0.00  0.00    +0.028 C 
BRANCH  17  18
ATOM     18  C   UNL     1       1.668  -2.490  -2.471  0.00  0.00    -0.044 A 
ATOM     19  C   UNL     1       1.411  -2.138  -3.783  0.00  0.00    +0.007 A 
ATOM     20  C   UNL     1       2.249  -2.571  -4.792  0.00  0.00    +0.038 A 
ATOM     21  C   UNL     1       3.348  -3.357  -4.489  0.00  0.00    +0.123 A 
ATOM     22  C   UNL     1       3.605  -3.709  -3.175  0.00  0.00    +0.038 A 
ATOM     23  C   UNL     1       2.767  -3.271  -2.167  0.00  0.00    +0.007 A 
ATOM     24  F   UNL     1       4.169  -3.781  -5.475  0.00  0.00    -0.205 F 
ENDBRANCH  17  18
BRANCH  17  25
ATOM     25  C   UNL     1       0.727  -0.488  -1.351  0.00  0.00    +0.008 C 
BRANCH  25  27
ATOM     26  C   UNL     1       2.126   1.568  -1.106  0.00  0.00    +0.004 C 
ATOM     27  C   UNL     1       2.121   0.041  -1.007  0.00  0.00    -0.003 C 
ENDBRANCH  25  27
ENDBRANCH  17  25
ENDBRANCH  16  17
ENDBRANCH   1  16
TORSDOF 6
