REMARK  Name = ZINC05060844
REMARK  4 active torsions:
REMARK  status: ('A' for Active; 'I' for Inactive)
REMARK    1  A    between atoms: C_1  and  C_2
REMARK    2  A    between atoms: C_10  and  C_11
REMARK    3  A    between atoms: N_13  and  N_14
REMARK    4  A    between atoms: N_17  and  C_18
REMARK                            x       y       z     vdW  Elec       q    Type
REMARK                         _______ _______ _______ _____ _____    ______ ____
ROOT
ATOM      1  N   UNL     1       2.366   1.218  -0.014  0.00  0.00    -0.218 N 
ATOM      2  C   UNL     1       3.524   1.908  -0.021  0.00  0.00    +0.316 C 
ATOM      3  O   UNL     1       4.585   1.314  -0.035  0.00  0.00    -0.251 OA
ATOM      4  N   UNL     1       3.506   3.256  -0.014  0.00  0.00    -0.293 N 
ATOM      5  H   UNL     1       2.379   0.248  -0.019  0.00  0.00    +0.174 HD
ATOM      6  H   UNL     1       2.659   3.729  -0.003  0.00  0.00    +0.151 HD
ENDROOT
BRANCH   4   7
ATOM      7  C   UNL     1       4.764   4.005  -0.022  0.00  0.00    +0.037 C 
ATOM      8  C   UNL     1       5.583   3.640   1.218  0.00  0.00    +0.029 C 
ATOM      9  C   UNL     1       6.898   4.423   1.209  0.00  0.00    -0.008 C 
ATOM     10  C   UNL     1       6.598   5.923   1.220  0.00  0.00    +0.007 C 
ATOM     11  C   UNL     1       5.779   6.288  -0.019  0.00  0.00    -0.008 C 
ATOM     12  C   UNL     1       4.464   5.505  -0.011  0.00  0.00    +0.029 C 
ATOM     13  C   UNL     1       6.574   5.936  -1.278  0.00  0.00    +0.007 C 
ATOM     14  C   UNL     1       6.874   4.436  -1.289  0.00  0.00    -0.008 C 
ATOM     15  C   UNL     1       7.693   4.071  -0.050  0.00  0.00    +0.007 C 
ATOM     16  C   UNL     1       5.560   3.653  -1.281  0.00  0.00    +0.029 C 
ENDBRANCH   4   7
BRANCH   1  19
ATOM     17  C   UNL     1      -0.014   1.212   0.009  0.00  0.00    +0.296 C 
ATOM     18  O   UNL     1       0.002  -0.004   0.002  0.00  0.00    -0.265 OA
ATOM     19  N   UNL     1       1.143   1.902   0.001  0.00  0.00    -0.227 N 
ATOM     20  H   UNL     1       1.130   2.872   0.007  0.00  0.00    +0.173 HD
BRANCH  17  30
ATOM     21  C   UNL     1      -2.817  -0.136   0.002  0.00  0.00    +0.048 C 
ATOM     22  C   UNL     1      -2.521   1.342   0.016  0.00  0.00    +0.008 A 
ATOM     23  C   UNL     1      -3.495   2.433   0.031  0.00  0.00    +0.024 A 
ATOM     24  C   UNL     1      -4.891   2.494   0.037  0.00  0.00    +0.012 A 
ATOM     25  C   UNL     1      -5.516   3.708   0.046  0.00  0.00    +0.001 A 
ATOM     26  C   UNL     1      -4.774   4.881   0.049  0.00  0.00    +0.004 A 
ATOM     27  C   UNL     1      -3.397   4.844   0.043  0.00  0.00    +0.047 A 
ATOM     28  C   UNL     1      -2.738   3.620   0.034  0.00  0.00    +0.136 A 
ATOM     29  O   UNL     1      -1.436   3.272   0.026  0.00  0.00    -0.450 OA
ATOM     30  C   UNL     1      -1.297   1.930   0.019  0.00  0.00    +0.195 A 
ENDBRANCH  17  30
ENDBRANCH   1  19
TORSDOF 3
