REMARK  Name = ZINC12810367
REMARK  5 active torsions:
REMARK  status: ('A' for Active; 'I' for Inactive)
REMARK    1  A    between atoms: C_1  and  C_2
REMARK    2  A    between atoms: C_5  and  C_7
REMARK    3  A    between atoms: C_8  and  C_13
REMARK    4  A    between atoms: N_24  and  C_25
REMARK    5  A    between atoms: C_25  and  C_26
REMARK                            x       y       z     vdW  Elec       q    Type
REMARK                         _______ _______ _______ _____ _____    ______ ____
ROOT
ATOM      1  C   UNL     1       1.263   2.105   0.001  0.00  0.00    +0.197 C 
ATOM      2  N   UNL     1      -0.017   1.386   0.010  0.00  0.00    -0.321 N 
ATOM      3  C   UNL     1       0.002  -0.004   0.002  0.00  0.00    +0.041 A 
ATOM      4  C   UNL     1      -1.002  -0.754   0.589  0.00  0.00    +0.024 A 
ATOM      5  C   UNL     1      -0.933  -2.134   0.556  0.00  0.00    +0.002 A 
ATOM      6  C   UNL     1       0.132  -2.772  -0.060  0.00  0.00    +0.001 A 
ATOM      7  C   UNL     1       1.141  -2.039  -0.650  0.00  0.00    +0.015 A 
ATOM      8  C   UNL     1       1.083  -0.648  -0.626  0.00  0.00    +0.058 A 
ATOM      9  C   UNL     1       2.128   0.183  -1.250  0.00  0.00    +0.250 C 
ATOM     10  O   UNL     1       2.938  -0.314  -2.009  0.00  0.00    -0.270 OA
ATOM     11  N   UNL     1       2.177   1.502  -0.970  0.00  0.00    -0.270 N 
ATOM     12  H   UNL     1      -0.857   1.870   0.016  0.00  0.00    +0.148 HD
ENDROOT
BRANCH   1  14
ATOM     13  C   UNL     1       1.184   2.057   2.600  0.00  0.00    +0.134 A 
ATOM     14  C   UNL     1       1.881   2.039   1.374  0.00  0.00    +0.039 A 
ATOM     15  C   UNL     1       3.200   1.948   1.649  0.00  0.00    +0.112 A 
ATOM     16  N   UNL     1       3.346   1.918   2.992  0.00  0.00    -0.284 N 
ATOM     17  H   UNL     1       4.213   1.859   3.487  0.00  0.00    +0.188 HD
ATOM     18  N   UNL     1       2.072   1.984   3.571  0.00  0.00    -0.170 NA
BRANCH  13  23
ATOM     19  C   UNL     1      -3.617   3.305   1.826  0.00  0.00    +0.086 C 
ATOM     20  C   UNL     1      -2.384   2.686   2.433  0.00  0.00    +0.103 A 
ATOM     21  C   UNL     1      -2.359   1.888   3.518  0.00  0.00    +0.045 A 
ATOM     22  C   UNL     1      -1.012   1.535   3.739  0.00  0.00    +0.052 A 
ATOM     23  C   UNL     1      -0.283   2.143   2.767  0.00  0.00    +0.155 A 
ATOM     24  O   UNL     1      -1.127   2.841   1.984  0.00  0.00    -0.458 OA
ENDBRANCH  13  23
ENDBRANCH   1  14
BRANCH  11  25
ATOM     25  C   UNL     1       3.162   2.347  -1.650  0.00  0.00    +0.145 C 
BRANCH  25  26
ATOM     26  C   UNL     1       2.564   2.891  -2.922  0.00  0.00    -0.026 A 
ATOM     27  C   UNL     1       1.885   4.096  -2.904  0.00  0.00    +0.009 A 
ATOM     28  C   UNL     1       1.335   4.599  -4.068  0.00  0.00    +0.050 A 
ATOM     29  C   UNL     1       1.463   3.897  -5.256  0.00  0.00    +0.166 A 
ATOM     30  C   UNL     1       2.147   2.684  -5.273  0.00  0.00    +0.167 A 
ATOM     31  C   UNL     1       2.700   2.188  -4.104  0.00  0.00    +0.054 A 
ATOM     32  O   UNL     1       2.134   2.195  -6.548  0.00  0.00    -0.453 OA
ATOM     33  C   UNL     1       1.088   2.915  -7.226  0.00  0.00    +0.466 C 
ATOM     34  O   UNL     1       1.022   4.168  -6.519  0.00  0.00    -0.453 OA
ENDBRANCH  25  26
ENDBRANCH  11  25
TORSDOF 4
