REMARK  Name = ZINC20835300
REMARK  8 active torsions:
REMARK  status: ('A' for Active; 'I' for Inactive)
REMARK    1  A    between atoms: C_1  and  C_2
REMARK    2  A    between atoms: C_2  and  C_3
REMARK    3  A    between atoms: C_3  and  C_26
REMARK    4  A    between atoms: N_4  and  N_5
REMARK    5  A    between atoms: C_8  and  S_11
REMARK    6  A    between atoms: S_11  and  C_12
REMARK    7  A    between atoms: C_12  and  C_13
REMARK    8  A    between atoms: C_13  and  C_14
REMARK                            x       y       z     vdW  Elec       q    Type
REMARK                         _______ _______ _______ _____ _____    ______ ____
ROOT
ATOM      1  N   UNL     1       9.702   3.653  -0.072  0.00  0.00    -0.205 N 
ATOM      2  C   UNL     1       8.339   3.393  -0.060  0.00  0.00    +0.232 A 
ATOM      3  N   UNL     1       7.756   2.157  -0.060  0.00  0.00    -0.186 NA
ATOM      4  C   UNL     1       6.401   2.328  -0.047  0.00  0.00    +0.210 A 
ATOM      5  N   UNL     1       6.156   3.617  -0.043  0.00  0.00    -0.144 NA
ATOM      6  N   UNL     1       7.384   4.291  -0.046  0.00  0.00    -0.245 N 
ATOM      7  H   UNL     1      10.420   2.820  -0.083  0.00  0.00    +0.177 HD
ATOM      8  H   UNL     1       7.636   5.362  -0.040  0.00  0.00    +0.192 HD
ENDROOT
BRANCH   1  10
ATOM      9  C   UNL     1      11.439   5.218  -0.081  0.00  0.00    +0.066 C 
ATOM     10  N   UNL     1      10.163   4.976  -0.069  0.00  0.00    -0.184 NA
BRANCH   9  11
ATOM     11  C   UNL     1      11.924   6.610  -0.078  0.00  0.00    -0.002 A 
ATOM     12  C   UNL     1      13.296   6.875  -0.084  0.00  0.00    +0.010 A 
ATOM     13  C   UNL     1      13.743   8.180  -0.086  0.00  0.00    +0.001 A 
ATOM     14  C   UNL     1      12.837   9.225  -0.072  0.00  0.00    +0.000 A 
ATOM     15  C   UNL     1      11.477   8.971  -0.062  0.00  0.00    +0.001 A 
ATOM     16  C   UNL     1      11.015   7.671  -0.064  0.00  0.00    +0.010 A 
ENDBRANCH   9  11
BRANCH   9  18
ATOM     17  C   UNL     1      12.742   3.698  -1.543  0.00  0.00    +0.010 C 
ATOM     18  C   UNL     1      12.423   4.077  -0.096  0.00  0.00    +0.054 C 
ENDBRANCH   9  18
ENDBRANCH   1  10
BRANCH   4  19
ATOM     19  S   UNL     1       5.194   1.044  -0.042  0.00  0.00    -0.084 S 
BRANCH  19  20
ATOM     20  C   UNL     1       3.611   1.930  -0.022  0.00  0.00    +0.086 C 
BRANCH  20  21
ATOM     21  C   UNL     1       2.462   0.920  -0.017  0.00  0.00    +0.107 C 
BRANCH  21  22
ATOM     22  C   UNL     1       1.147   1.655   0.000  0.00  0.00    +0.219 C 
ATOM     23  O   UNL     1       1.130   2.868   0.007  0.00  0.00    -0.275 OA
ATOM     24  N   UNL     1      -0.011   0.966   0.007  0.00  0.00    -0.265 N 
ATOM     25  C   UNL     1      -1.220   1.642   0.017  0.00  0.00    +0.165 A 
ATOM     26  N   UNL     1      -2.438   1.152   0.020  0.00  0.00    -0.225 NA
ATOM     27  C   UNL     1      -3.537   1.937   0.030  0.00  0.00    +0.080 A 
ATOM     28  C   UNL     1      -4.894   1.540   0.035  0.00  0.00    +0.029 A 
ATOM     29  C   UNL     1      -5.897   2.474   0.046  0.00  0.00    +0.002 A 
ATOM     30  C   UNL     1      -5.621   3.833   0.053  0.00  0.00    +0.001 A 
ATOM     31  C   UNL     1      -4.305   4.258   0.048  0.00  0.00    +0.017 A 
ATOM     32  C   UNL     1      -3.294   3.330   0.037  0.00  0.00    +0.041 A 
ATOM     33  S   UNL     1      -1.519   3.404   0.036  0.00  0.00    -0.052 S 
ATOM     34  H   UNL     1       0.004  -0.134   0.006  0.00  0.00    +0.157 HD
ENDBRANCH  21  22
ENDBRANCH  20  21
ENDBRANCH  19  20
ENDBRANCH   4  19
TORSDOF 7
