REMARK  Name = ZINC44169829
REMARK  7 active torsions:
REMARK  status: ('A' for Active; 'I' for Inactive)
REMARK    1  A    between atoms: C_4  and  C_7
REMARK    2  A    between atoms: C_10  and  C_13
REMARK    3  A    between atoms: C_18  and  C_21
REMARK    4  A    between atoms: N_23  and  C_24
REMARK    5  A    between atoms: C_24  and  C_25
REMARK    6  A    between atoms: C_25  and  C_26
REMARK    7  A    between atoms: C_25  and  C_32
REMARK                            x       y       z     vdW  Elec       q    Type
REMARK                         _______ _______ _______ _____ _____    ______ ____
ROOT
ATOM      1  C   UNL     1       7.694  -4.603  -0.135  0.00  0.00    -0.030 C 
ATOM      2  C   UNL     1       8.113  -4.892  -1.581  0.00  0.00    +0.058 C 
ATOM      3  S   UNL     1       9.915  -5.142  -1.613  0.00  0.00    -0.163 S 
ATOM      4  C   UNL     1      10.175  -6.347  -0.274  0.00  0.00    +0.062 C 
ATOM      5  C   UNL     1       9.447  -5.840   0.977  0.00  0.00    +0.027 C 
ATOM      6  N   UNL     1       8.009  -5.754   0.713  0.00  0.00    +0.392 N 
ATOM      7  H   UNL     1       7.518  -5.664   1.590  0.00  0.00    -0.084 HD
ATOM      8  H   UNL     1       7.705  -6.598   0.251  0.00  0.00    -0.084 HD
ENDROOT
BRANCH   1  12
ATOM      9  C   UNL     1       3.487  -3.848   0.002  0.00  0.00    -0.018 A 
ATOM     10  C   UNL     1       4.389  -2.786   0.010  0.00  0.00    +0.009 A 
ATOM     11  C   UNL     1       5.746  -3.035  -0.034  0.00  0.00    +0.002 A 
ATOM     12  C   UNL     1       6.211  -4.337  -0.086  0.00  0.00    -0.061 A 
ATOM     13  C   UNL     1       5.320  -5.395  -0.095  0.00  0.00    +0.002 A 
ATOM     14  C   UNL     1       3.962  -5.157  -0.045  0.00  0.00    +0.009 A 
BRANCH   9  18
ATOM     15  C   UNL     1      -0.696  -3.097   0.136  0.00  0.00    +0.000 A 
ATOM     16  C   UNL     1       0.195  -2.039   0.139  0.00  0.00    +0.001 A 
ATOM     17  C   UNL     1       1.553  -2.277   0.096  0.00  0.00    +0.008 A 
ATOM     18  C   UNL     1       2.028  -3.586   0.049  0.00  0.00    -0.018 A 
ATOM     19  C   UNL     1       1.126  -4.648   0.046  0.00  0.00    +0.008 A 
ATOM     20  C   UNL     1      -0.231  -4.399   0.090  0.00  0.00    +0.001 A 
ENDBRANCH   9  18
ENDBRANCH   1  12
BRANCH   5  21
ATOM     21  C   UNL     1       9.971  -4.475   1.342  0.00  0.00    +0.200 C 
ATOM     22  O   UNL     1       9.215  -3.630   1.772  0.00  0.00    -0.278 OA
ATOM     23  N   UNL     1      11.281  -4.193   1.190  0.00  0.00    -0.316 N 
ATOM     24  H   UNL     1      11.886  -4.869   0.846  0.00  0.00    +0.149 HD
BRANCH  23  25
ATOM     25  C   UNL     1      11.790  -2.866   1.545  0.00  0.00    +0.117 C 
BRANCH  25  26
ATOM     26  C   UNL     1      13.296  -2.810   1.280  0.00  0.00    +0.066 C 
BRANCH  26  27
ATOM     27  C   UNL     1      13.551  -2.953  -0.198  0.00  0.00    -0.038 A 
ATOM     28  C   UNL     1      14.420  -3.925  -0.659  0.00  0.00    +0.004 A 
ATOM     29  C   UNL     1      14.654  -4.056  -2.015  0.00  0.00    +0.000 A 
ATOM     30  C   UNL     1      14.019  -3.215  -2.910  0.00  0.00    +0.000 A 
ATOM     31  C   UNL     1      13.150  -2.244  -2.450  0.00  0.00    +0.000 A 
ATOM     32  C   UNL     1      12.912  -2.116  -1.094  0.00  0.00    +0.004 A 
ENDBRANCH  26  27
BRANCH  26  33
ATOM     33  C   UNL     1      13.842  -1.490   1.759  0.00  0.00    -0.038 A 
ATOM     34  C   UNL     1      13.271  -0.308   1.325  0.00  0.00    +0.004 A 
ATOM     35  C   UNL     1      13.772   0.903   1.764  0.00  0.00    +0.000 A 
ATOM     36  C   UNL     1      14.843   0.933   2.638  0.00  0.00    +0.000 A 
ATOM     37  C   UNL     1      15.413  -0.249   3.072  0.00  0.00    +0.000 A 
ATOM     38  C   UNL     1      14.909  -1.460   2.637  0.00  0.00    +0.004 A 
ENDBRANCH  26  33
ENDBRANCH  25  26
ENDBRANCH  23  25
ENDBRANCH   5  21
TORSDOF 7
