REMARK  Name = ZINC04913277
REMARK  8 active torsions:
REMARK  status: ('A' for Active; 'I' for Inactive)
REMARK    1  A    between atoms: C_1  and  N_2
REMARK    2  A    between atoms: N_13  and  C_25
REMARK    3  A    between atoms: C_14  and  C_16
REMARK    4  A    between atoms: C_20  and  O_23
REMARK    5  A    between atoms: C_21  and  O_22
REMARK    6  A    between atoms: O_23  and  C_24
REMARK    7  A    between atoms: C_28  and  O_31
REMARK    8  A    between atoms: O_31  and  C_32
REMARK                            x       y       z     vdW  Elec       q    Type
REMARK                         _______ _______ _______ _____ _____    ______ ____
ROOT
ATOM      1  C   UNL     1       3.600   6.161   3.338  0.00  0.00    +0.149 C 
ATOM      2  N   UNL     1       2.509   5.336   2.813  0.00  0.00    -0.339 N 
ATOM      3  C   UNL     1       1.404   4.928   3.521  0.00  0.00    +0.050 A 
ATOM      4  C   UNL     1       0.984   5.133   4.832  0.00  0.00    +0.026 A 
ATOM      5  C   UNL     1      -0.202   4.583   5.265  0.00  0.00    +0.002 A 
ATOM      6  C   UNL     1      -0.986   3.824   4.405  0.00  0.00    +0.001 A 
ATOM      7  C   UNL     1      -0.595   3.608   3.116  0.00  0.00    +0.010 A 
ATOM      8  C   UNL     1       0.608   4.157   2.651  0.00  0.00    +0.006 A 
ATOM      9  C   UNL     1       1.274   4.122   1.407  0.00  0.00    +0.016 A 
ATOM     10  C   UNL     1       2.425   4.839   1.522  0.00  0.00    +0.111 A 
ATOM     11  C   UNL     1       3.133   4.812   0.234  0.00  0.00    +0.268 C 
ATOM     12  O   UNL     1       4.196   5.362   0.014  0.00  0.00    -0.268 OA
ATOM     13  N   UNL     1       2.440   4.092  -0.665  0.00  0.00    -0.254 N 
ATOM     14  C   UNL     1       1.223   3.600  -0.009  0.00  0.00    +0.148 C 
ENDROOT
BRANCH  14  15
ATOM     15  C   UNL     1       1.206   2.094  -0.007  0.00  0.00    +0.023 A 
ATOM     16  C   UNL     1       2.396   1.389  -0.006  0.00  0.00    +0.009 A 
ATOM     17  C   UNL     1       2.384   0.007  -0.005  0.00  0.00    +0.004 A 
ATOM     18  C   UNL     1       1.182  -0.677  -0.004  0.00  0.00    +0.049 A 
ATOM     19  C   UNL     1      -0.014   0.022  -0.005  0.00  0.00    +0.162 A 
ATOM     20  C   UNL     1      -0.002   1.414  -0.006  0.00  0.00    +0.164 A 
BRANCH  20  21
ATOM     21  O   UNL     1      -1.173   2.106  -0.012  0.00  0.00    -0.503 OA
ATOM     22  H   UNL     1      -1.558   2.234   0.865  0.00  0.00    +0.292 HD
ENDBRANCH  20  21
BRANCH  19  23
ATOM     23  O   UNL     1      -1.196  -0.649  -0.004  0.00  0.00    -0.491 OA
ATOM     24  C   UNL     1      -1.132  -2.076  -0.003  0.00  0.00    +0.277 C 
ENDBRANCH  19  23
ENDBRANCH  14  15
BRANCH  13  25
ATOM     25  C   UNL     1       2.814   3.853  -1.993  0.00  0.00    +0.038 A 
ATOM     26  C   UNL     1       2.002   3.082  -2.815  0.00  0.00    +0.027 A 
ATOM     27  C   UNL     1       2.369   2.851  -4.126  0.00  0.00    +0.047 A 
ATOM     28  C   UNL     1       3.553   3.380  -4.619  0.00  0.00    +0.120 A 
ATOM     29  C   UNL     1       4.367   4.146  -3.797  0.00  0.00    +0.047 A 
ATOM     30  C   UNL     1       3.999   4.382  -2.487  0.00  0.00    +0.027 A 
BRANCH  28  31
ATOM     31  O   UNL     1       3.917   3.147  -5.908  0.00  0.00    -0.495 OA
ATOM     32  C   UNL     1       3.031   2.350  -6.698  0.00  0.00    +0.277 C 
ENDBRANCH  28  31
ENDBRANCH  13  25
TORSDOF 5
