REMARK  Name = ZINC37425014
REMARK  6 active torsions:
REMARK  status: ('A' for Active; 'I' for Inactive)
REMARK    1  A    between atoms: C_1  and  N_2
REMARK    2  A    between atoms: N_2  and  C_3
REMARK    3  A    between atoms: N_2  and  C_11
REMARK    4  A    between atoms: C_11  and  C_13
REMARK    5  A    between atoms: C_11  and  C_15
REMARK    6  A    between atoms: C_13  and  N_14
REMARK                            x       y       z     vdW  Elec       q    Type
REMARK                         _______ _______ _______ _____ _____    ______ ____
ROOT
ATOM      1  C   UNL     1      -1.365  -0.753  -0.006  0.00  0.00    +0.069 C 
ENDROOT
BRANCH   1   2
ATOM      2  C   UNL     1      -1.834  -0.490  -1.414  0.00  0.00    -0.029 A 
ATOM      3  C   UNL     1      -1.392   0.631  -2.091  0.00  0.00    +0.025 A 
ATOM      4  C   UNL     1      -1.822   0.873  -3.384  0.00  0.00    +0.043 A 
ATOM      5  C   UNL     1      -2.696  -0.006  -3.998  0.00  0.00    +0.040 A 
ATOM      6  C   UNL     1      -3.138  -1.128  -3.319  0.00  0.00    +0.043 A 
ATOM      7  C   UNL     1      -2.703  -1.372  -2.029  0.00  0.00    +0.025 A 
ATOM      8 CL   UNL     1      -4.235  -2.232  -4.089  0.00  0.00    -0.083 Cl
ATOM      9 CL   UNL     1      -1.267   2.281  -4.234  0.00  0.00    -0.083 Cl
ENDBRANCH   1   2
BRANCH   1  11
ATOM     10  C   UNL     1      -0.449   1.409   0.584  0.00  0.00    +0.105 C 
ATOM     11  N   UNL     1      -0.138   0.012   0.252  0.00  0.00    -0.296 NA
BRANCH  11  12
ATOM     12  C   UNL     1       0.661  -0.616   1.313  0.00  0.00    +0.079 C 
ATOM     13  C   UNL     1       1.136  -2.001   0.842  0.00  0.00    +0.043 C 
ATOM     14  C   UNL     1       2.222  -2.504   1.836  0.00  0.00    +0.167 C 
ATOM     15  S   UNL     1       3.163  -0.946   2.123  0.00  0.00    -0.029 S 
ATOM     16  O   UNL     1       3.424  -0.814   3.514  0.00  0.00    -0.174 OA
ATOM     17  O   UNL     1       4.241  -0.880   1.200  0.00  0.00    -0.174 OA
ATOM     18  C   UNL     1       1.882   0.279   1.635  0.00  0.00    +0.184 C 
ENDBRANCH  11  12
ENDBRANCH   1  11
BRANCH   1  19
ATOM     19  C   UNL     1      -2.451  -0.324   0.982  0.00  0.00    -0.063 C 
BRANCH  19  20
ATOM     20  N   UNL     1      -1.968  -0.517   2.356  0.00  0.00    +0.379 N 
ATOM     21  H   UNL     1      -1.612  -1.456   2.458  0.00  0.00    -0.090 HD
ATOM     22  H   UNL     1      -1.231   0.145   2.550  0.00  0.00    -0.090 HD
ATOM     23  H   UNL     1      -2.728  -0.374   3.003  0.00  0.00    -0.090 HD
ENDBRANCH  19  20
ENDBRANCH   1  19
TORSDOF 5
