REMARK  Name = ZINC35808645
REMARK  10 active torsions:
REMARK  status: ('A' for Active; 'I' for Inactive)
REMARK    1  A    between atoms: C_1  and  C_2
REMARK    2  A    between atoms: C_2  and  C_3
REMARK    3  A    between atoms: C_3  and  C_4
REMARK    4  A    between atoms: C_4  and  N_5
REMARK    5  A    between atoms: N_5  and  C_6
REMARK    6  A    between atoms: C_6  and  C_7
REMARK    7  A    between atoms: C_17  and  C_19
REMARK    8  A    between atoms: C_27  and  C_29
REMARK    9  A    between atoms: C_29  and  C_30
REMARK   10  A    between atoms: C_30  and  C_31
REMARK                            x       y       z     vdW  Elec       q    Type
REMARK                         _______ _______ _______ _____ _____    ______ ____
ROOT
ATOM      1  C   UNL     1       3.430  -3.971  -2.144  0.00  0.00    +0.234 C 
ATOM      2  O   UNL     1       2.415  -4.566  -1.851  0.00  0.00    -0.274 OA
ATOM      3  N   UNL     1       4.626  -4.581  -2.027  0.00  0.00    -0.289 N 
ATOM      4  C   UNL     1       5.864  -3.867  -2.373  0.00  0.00    +0.114 C 
ATOM      5  C   UNL     1       6.505  -4.568  -3.581  0.00  0.00    +0.062 C 
ATOM      6  C   UNL     1       6.430  -6.045  -3.372  0.00  0.00    -0.003 A 
ATOM      7  C   UNL     1       5.648  -6.727  -2.491  0.00  0.00    -0.012 A 
ATOM      8  C   UNL     1       5.761  -8.116  -2.499  0.00  0.00    +0.013 A 
ATOM      9  C   UNL     1       6.620  -8.720  -3.352  0.00  0.00    +0.046 A 
ATOM     10  S   UNL     1       7.331  -7.323  -4.208  0.00  0.00    -0.101 S 
ATOM     11  C   UNL     1       4.712  -5.967  -1.547  0.00  0.00    +0.139 C 
ENDROOT
BRANCH  11  12
ATOM     12  C   UNL     1       5.266  -5.988  -0.145  0.00  0.00    -0.004 A 
ATOM     13  C   UNL     1       6.594  -6.309   0.068  0.00  0.00    +0.008 A 
ATOM     14  C   UNL     1       7.103  -6.329   1.352  0.00  0.00    +0.020 A 
ATOM     15  C   UNL     1       6.285  -6.026   2.426  0.00  0.00    +0.042 A 
ATOM     16  C   UNL     1       4.956  -5.705   2.213  0.00  0.00    +0.040 A 
ATOM     17  C   UNL     1       4.448  -5.680   0.927  0.00  0.00    +0.048 A 
ATOM     18 CL   UNL     1       2.783  -5.271   0.658  0.00  0.00    -0.083 Cl
ATOM     19 CL   UNL     1       6.924  -6.051   4.040  0.00  0.00    -0.083 Cl
ENDBRANCH  11  12
BRANCH   1  20
ATOM     20  C   UNL     1       3.354  -2.549  -2.637  0.00  0.00    +0.203 C 
BRANCH  20  21
ATOM     21  N   UNL     1       1.954  -2.119  -2.674  0.00  0.00    -0.293 N 
ATOM     22  C   UNL     1       1.221  -2.307  -3.789  0.00  0.00    +0.216 C 
ATOM     23  O   UNL     1       1.720  -2.833  -4.762  0.00  0.00    -0.276 OA
BRANCH  21  24
ATOM     24  C   UNL     1       1.352  -1.484  -1.500  0.00  0.00    +0.108 C 
BRANCH  24  25
ATOM     25  C   UNL     1       1.552   0.030  -1.579  0.00  0.00    +0.019 C 
BRANCH  25  27
ATOM     26  C   UNL     1       1.124   2.208  -0.431  0.00  0.00    +0.004 C 
ATOM     27  C   UNL     1       0.923   0.693  -0.352  0.00  0.00    -0.002 C 
ENDBRANCH  25  27
ENDBRANCH  24  25
ENDBRANCH  21  24
BRANCH  22  28
ATOM     28  C   UNL     1      -0.219  -1.865  -3.827  0.00  0.00    +0.096 C 
BRANCH  28  29
ATOM     29  C   UNL     1      -0.817  -2.192  -5.197  0.00  0.00    +0.013 C 
BRANCH  29  30
ATOM     30  C   UNL     1      -2.279  -1.743  -5.236  0.00  0.00    -0.011 C 
ATOM     31  C   UNL     1      -3.124  -2.611  -4.280  0.00  0.00    +0.003 C 
ATOM     32  C   UNL     1      -4.473  -2.789  -5.021  0.00  0.00    +0.000 C 
ATOM     33  C   UNL     1      -4.034  -2.939  -6.499  0.00  0.00    +0.000 C 
ATOM     34  C   UNL     1      -2.858  -1.952  -6.646  0.00  0.00    +0.003 C 
ENDBRANCH  29  30
ENDBRANCH  28  29
ENDBRANCH  22  28
ENDBRANCH  20  21
ENDBRANCH   1  20
TORSDOF 9
