REMARK  Name = ZINC36550431
REMARK  11 active torsions:
REMARK  status: ('A' for Active; 'I' for Inactive)
REMARK    1  A    between atoms: C_1  and  C_2
REMARK    2  A    between atoms: C_2  and  C_3
REMARK    3  A    between atoms: N_5  and  C_6
REMARK    4  A    between atoms: N_5  and  C_13
REMARK    5  A    between atoms: C_13  and  C_15
REMARK    6  A    between atoms: C_13  and  C_22
REMARK    7  A    between atoms: C_20  and  O_21
REMARK    8  A    between atoms: N_24  and  C_25
REMARK    9  A    between atoms: C_25  and  S_26
REMARK   10  A    between atoms: S_26  and  C_29
REMARK   11  A    between atoms: C_32  and  C_35
REMARK                            x       y       z     vdW  Elec       q    Type
REMARK                         _______ _______ _______ _____ _____    ______ ____
ROOT
ATOM      1  C   UNL     1       0.342  -2.861   0.461  0.00  0.00    +0.201 C 
ENDROOT
BRANCH   1   2
ATOM      2  C   UNL     1       1.081  -2.581  -0.822  0.00  0.00    +0.024 A 
ATOM      3  C   UNL     1       0.460  -1.884  -1.840  0.00  0.00    +0.009 A 
ATOM      4  C   UNL     1       1.138  -1.627  -3.018  0.00  0.00    +0.001 A 
ATOM      5  C   UNL     1       2.439  -2.067  -3.179  0.00  0.00    +0.004 A 
ATOM      6  C   UNL     1       3.065  -2.764  -2.164  0.00  0.00    +0.046 A 
ATOM      7  C   UNL     1       2.388  -3.018  -0.979  0.00  0.00    +0.122 A 
BRANCH   7   8
ATOM      8  O   UNL     1       3.004  -3.699   0.023  0.00  0.00    -0.506 OA
ATOM      9  H   UNL     1       2.951  -4.661  -0.065  0.00  0.00    +0.292 HD
ENDBRANCH   7   8
ENDBRANCH   1   2
BRANCH   1  10
ATOM     10  C   UNL     1      -1.140  -2.708   0.230  0.00  0.00    +0.240 C 
ATOM     11  O   UNL     1      -1.717  -1.720   0.631  0.00  0.00    -0.273 OA
ATOM     12  N   UNL     1      -1.823  -3.670  -0.422  0.00  0.00    -0.294 N 
ATOM     13  H   UNL     1      -1.377  -4.491  -0.682  0.00  0.00    +0.150 HD
BRANCH  12  14
ATOM     14  C   UNL     1      -3.240  -3.475  -0.738  0.00  0.00    +0.278 C 
BRANCH  14  15
ATOM     15  S   UNL     1      -3.400  -2.824  -2.423  0.00  0.00    +0.013 S 
ATOM     16  O   UNL     1      -4.772  -2.689  -2.767  0.00  0.00    -0.168 OA
ATOM     17  O   UNL     1      -2.495  -1.746  -2.619  0.00  0.00    -0.168 OA
BRANCH  15  18
ATOM     18  C   UNL     1      -2.800  -4.111  -3.465  0.00  0.00    +0.090 A 
ATOM     19  C   UNL     1      -1.459  -4.163  -3.797  0.00  0.00    +0.027 A 
ATOM     20  C   UNL     1      -0.988  -5.173  -4.615  0.00  0.00    +0.005 A 
ATOM     21  C   UNL     1      -1.857  -6.132  -5.100  0.00  0.00    -0.050 A 
ATOM     22  C   UNL     1      -3.198  -6.081  -4.767  0.00  0.00    +0.005 A 
ATOM     23  C   UNL     1      -3.668  -5.074  -3.946  0.00  0.00    +0.027 A 
ATOM     24  C   UNL     1      -1.343  -7.233  -5.992  0.00  0.00    +0.044 C 
ENDBRANCH  15  18
ENDBRANCH  14  15
ENDBRANCH  12  14
ENDBRANCH   1  10
BRANCH   1  27
ATOM     25  C   UNL     1       0.298  -2.020   2.747  0.00  0.00    +0.220 C 
ATOM     26  O   UNL     1       0.578  -1.179   3.575  0.00  0.00    -0.275 OA
ATOM     27  N   UNL     1       0.776  -1.915   1.491  0.00  0.00    -0.254 N 
BRANCH  27  28
ATOM     28  C   UNL     1       1.687  -0.901   1.172  0.00  0.00    +0.056 A 
ATOM     29  C   UNL     1       3.051  -1.129   1.293  0.00  0.00    +0.025 A 
ATOM     30  C   UNL     1       3.948  -0.127   0.977  0.00  0.00    +0.002 A 
ATOM     31  C   UNL     1       3.489   1.102   0.540  0.00  0.00    +0.002 A 
ATOM     32  C   UNL     1       2.131   1.333   0.417  0.00  0.00    +0.022 A 
ATOM     33  C   UNL     1       1.228   0.333   0.727  0.00  0.00    +0.062 A 
ATOM     34 CL   UNL     1      -0.476   0.620   0.566  0.00  0.00    -0.082 Cl
ENDBRANCH  27  28
BRANCH  25  36
ATOM     35  C   UNL     1      -0.868  -3.143   4.626  0.00  0.00    +0.013 C 
ATOM     36  C   UNL     1      -0.584  -3.183   3.123  0.00  0.00    +0.093 C 
ENDBRANCH  25  36
ENDBRANCH   1  27
TORSDOF 9
