REMARK  Name = ZINC02155139
REMARK  7 active torsions:
REMARK  status: ('A' for Active; 'I' for Inactive)
REMARK    1  A    between atoms: C_1  and  C_2
REMARK    2  A    between atoms: C_12  and  C_13
REMARK    3  A    between atoms: C_13  and  C_14
REMARK    4  A    between atoms: N_16  and  CA_17
REMARK    5  A    between atoms: CA_17  and  CB_19
REMARK    6  A    between atoms: CA_17  and  C_26
REMARK    7  A    between atoms: CB_19  and  CG_20
REMARK                            x       y       z     vdW  Elec       q    Type
REMARK                         _______ _______ _______ _____ _____    ______ ____
ROOT
ATOM      1  C   UNK A   0      -2.603   5.361   0.053  0.00  0.00    +0.045 C 
ATOM      2  C   UNK A   0      -2.531   3.856   0.046  0.00  0.00    -0.029 A 
ATOM      3  C   UNK A   0      -1.241   3.159   0.031  0.00  0.00    +0.022 A 
ATOM      4  C   UNK A   0      -0.046   3.878   0.023  0.00  0.00    +0.023 A 
ATOM      5  C   UNK A   0       1.162   3.193   0.008  0.00  0.00    +0.024 A 
ATOM      6  C   UNK A   0       1.180   1.782   0.000  0.00  0.00    +0.139 A 
ATOM      7  C   UNK A   0      -0.013   1.076   0.008  0.00  0.00    +0.093 A 
ATOM      8  C   UNK A   0      -1.224   1.749   0.017  0.00  0.00    +0.143 A 
ATOM      9  O   UNK A   0      -2.380   1.053   0.031  0.00  0.00    -0.422 OA
ATOM     10  C   UNK A   0      -3.553   1.693   0.045  0.00  0.00    +0.341 A 
ATOM     11  O   UNK A   0      -4.576   1.033   0.052  0.00  0.00    -0.245 OA
ATOM     12  C   UNK A   0      -3.658   3.099   0.053  0.00  0.00    +0.049 A 
ATOM     13  O   UNK A   0       2.475   1.400  -0.014  0.00  0.00    -0.459 OA
ATOM     14  C   UNK A   0       3.293   2.466  -0.016  0.00  0.00    +0.109 A 
ATOM     15  C   UNK A   0       2.568   3.596  -0.003  0.00  0.00    +0.001 A 
ATOM     16  C   UNK A   0       3.140   4.989   0.002  0.00  0.00    +0.039 C 
ATOM     17  C   UNK A   0       4.620   4.905   0.394  0.00  0.00    +0.005 C 
ATOM     18  C   UNK A   0       5.308   3.830  -0.453  0.00  0.00    +0.008 C 
ATOM     19  C   UNK A   0       4.805   2.445  -0.031  0.00  0.00    +0.075 C 
ENDROOT
BRANCH  12  20
ATOM     20  C   UNK A   0      -5.013   3.757   0.068  0.00  0.00    +0.138 C 
BRANCH  20  21
ATOM     21  C   UNK A   0      -5.478   3.983  -1.347  0.00  0.00    +0.218 C 
ATOM     22  O   UNK A   0      -4.778   3.643  -2.277  0.00  0.00    -0.275 OA
ATOM     23  N   PHE A   1      -6.672   4.563  -1.580  0.00  0.00    -0.302 N 
ATOM     24  H   PHE A   1      -7.233   4.835  -0.836  0.00  0.00    +0.150 HD
BRANCH  23  25
ATOM     25  CA  PHE A   1      -7.124   4.783  -2.956  0.00  0.00    +0.191 C 
BRANCH  25  26
ATOM     26  C   PHE A   1      -6.556   6.080  -3.471  0.00  0.00    +0.376 C 
ATOM     27  O   PHE A   1      -5.846   6.753  -2.760  0.00  0.00    -0.244 OA
ATOM     28  OXT PHE A   1      -6.838   6.489  -4.718  0.00  0.00    -0.244 OA
ENDBRANCH  25  26
BRANCH  25  29
ATOM     29  CB  PHE A   1      -8.653   4.848  -2.987  0.00  0.00    +0.069 C 
BRANCH  29  30
ATOM     30  CG  PHE A   1      -9.220   3.509  -2.590  0.00  0.00    -0.045 A 
ATOM     31  CD2 PHE A   1      -9.477   2.554  -3.555  0.00  0.00    +0.004 A 
ATOM     32  CE2 PHE A   1      -9.993   1.324  -3.190  0.00  0.00    +0.000 A 
ATOM     33  CZ  PHE A   1     -10.262   1.054  -1.861  0.00  0.00    +0.000 A 
ATOM     34  CE1 PHE A   1     -10.010   2.012  -0.896  0.00  0.00    +0.000 A 
ATOM     35  CD1 PHE A   1      -9.489   3.240  -1.261  0.00  0.00    +0.004 A 
ENDBRANCH  29  30
ENDBRANCH  25  29
ENDBRANCH  23  25
ENDBRANCH  20  21
ENDBRANCH  12  20
TORSDOF 6
