REMARK  Name = ZINC59875592
REMARK  14 active torsions:
REMARK  status: ('A' for Active; 'I' for Inactive)
REMARK    1  A    between atoms: C_1  and  C_2
REMARK    2  A    between atoms: C_2  and  C_3
REMARK    3  A    between atoms: C_3  and  C_5
REMARK    4  A    between atoms: C_3  and  C_6
REMARK    5  A    between atoms: C_9  and  C_12
REMARK    6  A    between atoms: C_12  and  C_14
REMARK    7  A    between atoms: C_12  and  N_17
REMARK    8  A    between atoms: C_14  and  C_15
REMARK    9  A    between atoms: C_14  and  C_16
REMARK   10  A    between atoms: C_18  and  C_20
REMARK   11  A    between atoms: C_20  and  C_21
REMARK   12  A    between atoms: C_21  and  C_22
REMARK   13  A    between atoms: C_22  and  C_23
REMARK   14  A    between atoms: C_23  and  C_24
REMARK                            x       y       z     vdW  Elec       q    Type
REMARK                         _______ _______ _______ _____ _____    ______ ____
ROOT
ATOM      1  N   UNL     1      -0.892  -6.671   1.990  0.00  0.00    -0.308 N 
ATOM      2  C   UNL     1      -1.408  -7.878   1.683  0.00  0.00    +0.213 C 
ATOM      3  O   UNL     1      -0.791  -8.637   0.966  0.00  0.00    -0.276 OA
ATOM      4  H   UNL     1      -1.385  -6.064   2.564  0.00  0.00    +0.149 HD
ENDROOT
BRANCH   1   5
ATOM      5  C   UNL     1       0.414  -6.276   1.457  0.00  0.00    +0.106 C 
BRANCH   5   9
ATOM      6  C   UNL     1       0.657  -2.014   1.298  0.00  0.00    -0.045 A 
ATOM      7  C   UNL     1       1.179  -2.775   0.269  0.00  0.00    +0.004 A 
ATOM      8  C   UNL     1       1.101  -4.154   0.320  0.00  0.00    +0.006 A 
ATOM      9  C   UNL     1       0.500  -4.773   1.401  0.00  0.00    -0.027 A 
ATOM     10  C   UNL     1      -0.021  -4.012   2.431  0.00  0.00    +0.006 A 
ATOM     11  C   UNL     1       0.061  -2.633   2.381  0.00  0.00    +0.004 A 
BRANCH   6  12
ATOM     12  C   UNL     1       0.742  -0.511   1.242  0.00  0.00    +0.016 C 
ATOM     13  C   UNL     1       2.210  -0.086   1.169  0.00  0.00    +0.012 C 
BRANCH  12  15
ATOM     14  C   UNL     1      -0.019   1.526   0.010  0.00  0.00    +0.004 C 
ATOM     15  C   UNL     1       0.002  -0.004   0.002  0.00  0.00    +0.004 C 
ENDBRANCH  12  15
ENDBRANCH   6  12
ENDBRANCH   5   9
BRANCH   5  16
ATOM     16  C   UNL     1       1.520  -6.817   2.365  0.00  0.00    +0.008 C 
ATOM     17  C   UNL     1       1.279  -6.345   3.800  0.00  0.00    +0.009 C 
ATOM     18  C   UNL     1       1.512  -8.347   2.324  0.00  0.00    +0.009 C 
ENDBRANCH   5  16
ENDBRANCH   1   5
BRANCH   2  19
ATOM     19  C   UNL     1      -2.752  -8.284   2.232  0.00  0.00    +0.096 C 
BRANCH  19  20
ATOM     20  C   UNL     1      -3.102  -9.688   1.736  0.00  0.00    +0.009 C 
BRANCH  20  21
ATOM     21  C   UNL     1      -4.466 -10.100   2.292  0.00  0.00    +0.002 C 
BRANCH  21  22
ATOM     22  C   UNL     1      -4.816 -11.504   1.796  0.00  0.00    +0.016 C 
BRANCH  22  23
ATOM     23  C   UNL     1      -6.181 -11.917   2.353  0.00  0.00    +0.069 C 
ATOM     24  C   UNL     1      -6.590 -13.314   1.839  0.00  0.00    +0.108 C 
ATOM     25  C   UNL     1      -7.264 -14.187   2.901  0.00  0.00    +0.105 C 
ATOM     26  C   UNL     1      -7.391 -13.501   4.278  0.00  0.00    +0.093 C 
ATOM     27  S   UNL     1      -6.093 -12.208   4.173  0.00  0.00    -0.154 S 
ATOM     28  N   UNL     1      -6.367 -15.347   3.032  0.00  0.00    -0.294 N 
ATOM     29  C   UNL     1      -5.333 -15.195   2.192  0.00  0.00    +0.300 C 
ATOM     30  O   UNL     1      -4.436 -16.010   2.092  0.00  0.00    -0.253 OA
ATOM     31  N   UNL     1      -5.378 -14.069   1.483  0.00  0.00    -0.294 N 
ATOM     32  H   UNL     1      -6.502 -16.099   3.629  0.00  0.00    +0.151 HD
ATOM     33  H   UNL     1      -4.714 -13.795   0.832  0.00  0.00    +0.151 HD
ENDBRANCH  22  23
ENDBRANCH  21  22
ENDBRANCH  20  21
ENDBRANCH  19  20
ENDBRANCH   2  19
TORSDOF 10
