REMARK  Name = ZINC63351229
REMARK  12 active torsions:
REMARK  status: ('A' for Active; 'I' for Inactive)
REMARK    1  A    between atoms: C_1  and  O_2
REMARK    2  A    between atoms: O_2  and  C_3
REMARK    3  A    between atoms: C_8  and  O_9
REMARK    4  A    between atoms: O_9  and  C_10
REMARK    5  A    between atoms: C_14  and  N_16
REMARK    6  A    between atoms: C_17  and  C_23
REMARK    7  A    between atoms: N_25  and  C_26
REMARK    8  A    between atoms: C_26  and  C_28
REMARK    9  A    between atoms: C_26  and  C_38
REMARK   10  A    between atoms: C_28  and  C_29
REMARK   11  A    between atoms: C_38  and  O_40
REMARK   12  A    between atoms: O_40  and  C_41
REMARK                            x       y       z     vdW  Elec       q    Type
REMARK                         _______ _______ _______ _____ _____    ______ ____
ROOT
ATOM      1  N   UNL     1       3.554  -2.654   4.650  0.00  0.00    -0.251 N 
ATOM      2  C   UNL     1       4.625  -2.034   5.439  0.00  0.00    +0.166 C 
ATOM      3  C   UNL     1       5.938  -2.403   4.714  0.00  0.00    +0.041 C 
ATOM      4  C   UNL     1       5.446  -2.629   3.266  0.00  0.00    +0.098 C 
ATOM      5  C   UNL     1       3.987  -2.998   3.425  0.00  0.00    +0.219 C 
ATOM      6  O   UNL     1       3.307  -3.526   2.570  0.00  0.00    -0.275 OA
ENDROOT
BRANCH   1  16
ATOM      7  C   UNL     1       1.669  -6.535   7.245  0.00  0.00    +0.162 A 
ATOM      8  C   UNL     1       2.015  -6.655   5.910  0.00  0.00    +0.050 A 
ATOM      9  C   UNL     1       2.208  -5.524   5.132  0.00  0.00    +0.013 A 
ATOM     10  C   UNL     1       2.058  -4.275   5.684  0.00  0.00    +0.029 A 
ATOM     11  C   UNL     1       1.709  -4.133   7.032  0.00  0.00    +0.112 A 
ATOM     12  C   UNL     1       1.508  -5.276   7.815  0.00  0.00    +0.176 A 
ATOM     13  C   UNL     1       1.625  -2.694   7.322  0.00  0.00    +0.345 C 
ATOM     14  O   UNL     1       1.343  -2.217   8.404  0.00  0.00    -0.245 OA
ATOM     15  O   UNL     1       1.905  -1.983   6.217  0.00  0.00    -0.435 OA
ATOM     16  C   UNL     1       2.190  -2.876   5.136  0.00  0.00    +0.302 C 
BRANCH   7  18
ATOM     17  C   UNL     1       1.662  -8.911   7.352  0.00  0.00    +0.277 C 
ATOM     18  O   UNL     1       1.481  -7.651   8.000  0.00  0.00    -0.491 OA
ENDBRANCH   7  18
BRANCH  12  19
ATOM     19  O   UNL     1       1.164  -5.156   9.122  0.00  0.00    -0.491 OA
ATOM     20  C   UNL     1       2.231  -5.088  10.071  0.00  0.00    +0.277 C 
ENDBRANCH  12  19
ENDBRANCH   1  16
BRANCH   2  21
ATOM     21  C   UNL     1       4.448  -0.538   5.473  0.00  0.00    +0.234 C 
ATOM     22  O   UNL     1       3.743   0.008   4.652  0.00  0.00    -0.274 OA
ATOM     23  N   UNL     1       5.073   0.193   6.417  0.00  0.00    -0.301 N 
ATOM     24  H   UNL     1       5.637  -0.244   7.074  0.00  0.00    +0.150 HD
BRANCH  23  25
ATOM     25  C   UNL     1       4.902   1.647   6.450  0.00  0.00    +0.186 C 
BRANCH  25  26
ATOM     26  C   UNL     1       5.884   2.291   5.506  0.00  0.00    +0.328 C 
ATOM     27  O   UNL     1       6.649   1.605   4.871  0.00  0.00    -0.249 OA
BRANCH  26  28
ATOM     28  O   UNL     1       5.909   3.626   5.371  0.00  0.00    -0.467 OA
ATOM     29  C   UNL     1       6.866   4.168   4.458  0.00  0.00    +0.280 C 
ENDBRANCH  26  28
ENDBRANCH  25  26
BRANCH  25  30
ATOM     30  C   UNL     1       5.150   2.158   7.871  0.00  0.00    +0.067 C 
BRANCH  30  31
ATOM     31  C   UNL     1       4.092   1.610   8.794  0.00  0.00    -0.039 C 
ATOM     32  C   UNL     1       4.182   0.505   9.569  0.00  0.00    -0.001 A 
ATOM     33  C   UNL     1       5.250  -0.480   9.775  0.00  0.00    +0.010 A 
ATOM     34  C   UNL     1       5.040  -1.504  10.634  0.00  0.00    +0.001 A 
ATOM     35  C   UNL     1       3.833  -1.646  11.331  0.00  0.00    +0.002 A 
ATOM     36  C   UNL     1       2.805  -0.781  11.194  0.00  0.00    +0.026 A 
ATOM     37  C   UNL     1       2.916   0.333  10.316  0.00  0.00    +0.043 A 
ATOM     38  N   UNL     1       2.076   1.294  10.016  0.00  0.00    -0.380 N 
ATOM     39  C   UNL     1       2.718   2.189   9.047  0.00  0.00    +0.144 C 
ATOM     40  H   UNL     1       1.182   1.397  10.377  0.00  0.00    +0.160 HD
ENDBRANCH  30  31
ENDBRANCH  25  30
ENDBRANCH  23  25
ENDBRANCH   2  21
TORSDOF 9
