REMARK  Name = ZINC65459101
REMARK  5 active torsions:
REMARK  status: ('A' for Active; 'I' for Inactive)
REMARK    1  A    between atoms: C_4  and  C_7
REMARK    2  A    between atoms: C_9  and  C_27
REMARK    3  A    between atoms: N_11  and  C_14
REMARK    4  A    between atoms: C_14  and  C_16
REMARK    5  A    between atoms: C_14  and  C_22
REMARK                            x       y       z     vdW  Elec       q    Type
REMARK                         _______ _______ _______ _____ _____    ______ ____
ROOT
ATOM      1  C   UNL     1       3.711  -0.707  -0.038  0.00  0.00    +0.108 C 
ATOM      2  C   UNL     1       4.024  -1.204  -1.462  0.00  0.00    +0.128 C 
ATOM      3  N   UNL     1       4.103  -2.681  -1.361  0.00  0.00    -0.266 NA
ATOM      4  C   UNL     1       4.428  -2.938   0.066  0.00  0.00    +0.170 C 
ATOM      5  N   UNL     1       3.628  -1.925   0.803  0.00  0.00    -0.295 NA
ATOM      6  H   UNL     1       4.012  -1.758   1.721  0.00  0.00    +0.124 HD
ENDROOT
BRANCH   2   7
ATOM      7  C   UNL     1       2.922  -0.803  -2.408  0.00  0.00    +0.052 A 
ATOM      8  H   UNL     1       1.571   0.665  -4.806  0.00  0.00    +0.166 HD
ATOM      9  C   UNL     1       3.039   0.051  -3.443  0.00  0.00    +0.106 A 
ATOM     10  N   UNL     1       1.806   0.129  -4.033  0.00  0.00    -0.352 N 
ATOM     11  C   UNL     1       0.978  -0.679  -3.337  0.00  0.00    +0.171 A 
ATOM     12  N   UNL     1       1.654  -1.237  -2.369  0.00  0.00    -0.348 N 
ATOM     13  H   UNL     1       1.294  -1.865  -1.724  0.00  0.00    +0.166 HD
ENDBRANCH   2   7
BRANCH   1  17
ATOM     14  C   UNL     1      -0.017   1.378   0.010  0.00  0.00    +0.000 A 
ATOM     15  C   UNL     1       1.171   2.086   0.002  0.00  0.00    +0.000 A 
ATOM     16  C   UNL     1       2.377   1.411  -0.013  0.00  0.00    +0.005 A 
ATOM     17  C   UNL     1       2.396   0.029  -0.020  0.00  0.00    -0.029 A 
ATOM     18  C   UNL     1       1.208  -0.679  -0.012  0.00  0.00    +0.005 A 
ATOM     19  C   UNL     1       0.002  -0.004   0.002  0.00  0.00    +0.000 A 
ENDBRANCH   1  17
BRANCH   3  20
ATOM     20  C   UNL     1       5.149  -3.214  -2.244  0.00  0.00    +0.155 C 
BRANCH  20  21
ATOM     21  C   UNL     1       5.198  -4.715  -2.115  0.00  0.00    -0.023 A 
ATOM     22  C   UNL     1       4.025  -5.439  -2.017  0.00  0.00    +0.005 A 
ATOM     23  C   UNL     1       4.071  -6.816  -1.898  0.00  0.00    +0.000 A 
ATOM     24  C   UNL     1       5.290  -7.468  -1.877  0.00  0.00    +0.000 A 
ATOM     25  C   UNL     1       6.463  -6.743  -1.976  0.00  0.00    +0.000 A 
ATOM     26  C   UNL     1       6.417  -5.367  -2.099  0.00  0.00    +0.005 A 
ENDBRANCH  20  21
BRANCH  20  27
ATOM     27  C   UNL     1       4.838  -2.843  -3.671  0.00  0.00    +0.126 A 
ATOM     28  C   UNL     1       5.735  -2.455  -4.596  0.00  0.00    +0.046 A 
ATOM     29  C   UNL     1       5.014  -2.208  -5.787  0.00  0.00    +0.041 A 
ATOM     30  C   UNL     1       3.720  -2.459  -5.519  0.00  0.00    +0.195 A 
ATOM     31  O   UNL     1       3.620  -2.849  -4.237  0.00  0.00    -0.466 OA
ENDBRANCH  20  27
ENDBRANCH   3  20
TORSDOF 5
