REMARK  Name = ZINC23118789
REMARK  10 active torsions:
REMARK  status: ('A' for Active; 'I' for Inactive)
REMARK    1  A    between atoms: C_1  and  C_2
REMARK    2  A    between atoms: C_2  and  C_3
REMARK    3  A    between atoms: C_6  and  C_9
REMARK    4  A    between atoms: C_11  and  C_23
REMARK    5  A    between atoms: C_12  and  C_22
REMARK    6  A    between atoms: C_17  and  S_19
REMARK    7  A    between atoms: S_19  and  C_20
REMARK    8  A    between atoms: C_20  and  C_21
REMARK    9  A    between atoms: N_25  and  C_26
REMARK   10  A    between atoms: C_31  and  C_32
REMARK                            x       y       z     vdW  Elec       q    Type
REMARK                         _______ _______ _______ _____ _____    ______ ____
ROOT
ATOM      1  C   UNL     1      -1.583  -0.379   0.224  0.00  0.00    +0.177 C 
ATOM      2  C   UNL     1      -0.164   0.100   0.069  0.00  0.00    +0.060 C 
ATOM      3  C   UNL     1       0.881  -0.733  -0.042  0.00  0.00    +0.018 C 
ATOM      4  N   UNL     1       0.733  -2.098  -0.039  0.00  0.00    -0.287 N 
ATOM      5  C   UNL     1      -0.553  -2.601  -0.183  0.00  0.00    +0.219 A 
ATOM      6  N   UNL     1      -1.647  -1.809  -0.071  0.00  0.00    -0.220 N 
ATOM      7  N   UNL     1      -2.756  -2.628  -0.278  0.00  0.00    -0.141 NA
ATOM      8  C   UNL     1      -2.295  -3.842  -0.494  0.00  0.00    +0.210 A 
ATOM      9  N   UNL     1      -0.956  -3.817  -0.434  0.00  0.00    -0.187 NA
ATOM     10  C   UNL     1       2.265  -0.151  -0.173  0.00  0.00    +0.061 C 
ATOM     11  H   UNL     1       1.614  -2.747   0.074  0.00  0.00    +0.155 HD
ENDROOT
BRANCH   1  15
ATOM     12  C   UNL     1      -2.896   0.325   4.227  0.00  0.00    -0.048 A 
ATOM     13  C   UNL     1      -3.564   0.911   3.168  0.00  0.00    +0.004 A 
ATOM     14  C   UNL     1      -3.139   0.683   1.872  0.00  0.00    +0.006 A 
ATOM     15  C   UNL     1      -2.046  -0.131   1.636  0.00  0.00    -0.018 A 
ATOM     16  C   UNL     1      -1.383  -0.721   2.695  0.00  0.00    +0.006 A 
ATOM     17  C   UNL     1      -1.805  -0.489   3.991  0.00  0.00    +0.004 A 
BRANCH  12  19
ATOM     18  C   UNL     1      -4.389  -0.489   6.033  0.00  0.00    +0.009 C 
ATOM     19  C   UNL     1      -3.360   0.573   5.639  0.00  0.00    +0.032 C 
ENDBRANCH  12  19
ENDBRANCH   1  15
BRANCH   2  20
ATOM     20  C   UNL     1       0.078   1.493   0.046  0.00  0.00    +0.248 C 
ATOM     21  O   UNL     1       1.222   1.912   0.038  0.00  0.00    -0.270 OA
ATOM     22  N   UNL     1      -0.956   2.357   0.027  0.00  0.00    -0.281 N 
ATOM     23  H   UNL     1      -1.988   1.982   0.101  0.00  0.00    +0.155 HD
BRANCH  22  24
ATOM     24  C   UNL     1      -0.718   3.731  -0.087  0.00  0.00    +0.037 A 
ATOM     25  C   UNL     1       0.404   4.294   0.507  0.00  0.00    +0.023 A 
ATOM     26  C   UNL     1       0.636   5.650   0.392  0.00  0.00    +0.002 A 
ATOM     27  C   UNL     1      -0.247   6.448  -0.313  0.00  0.00    +0.000 A 
ATOM     28  C   UNL     1      -1.365   5.890  -0.905  0.00  0.00    +0.005 A 
ATOM     29  C   UNL     1      -1.600   4.533  -0.798  0.00  0.00    -0.029 A 
ATOM     30  C   UNL     1      -2.816   3.925  -1.449  0.00  0.00    +0.045 C 
ENDBRANCH  22  24
ENDBRANCH   2  20
BRANCH   8  31
ATOM     31  S   UNL     1      -3.280  -5.268  -0.812  0.00  0.00    -0.085 S 
BRANCH  31  32
ATOM     32  C   UNL     1      -2.066  -6.601  -1.020  0.00  0.00    +0.074 C 
ATOM     33  C   UNL     1      -2.796  -7.915  -1.305  0.00  0.00    +0.016 C 
ENDBRANCH  31  32
ENDBRANCH   8  31
TORSDOF 6
