REMARK  Name = ZINC06643752
REMARK  7 active torsions:
REMARK  status: ('A' for Active; 'I' for Inactive)
REMARK    1  A    between atoms: C_1  and  C_2
REMARK    2  A    between atoms: C_8  and  N_10
REMARK    3  A    between atoms: C_14  and  C_16
REMARK    4  A    between atoms: C_16  and  O_17
REMARK    5  A    between atoms: O_17  and  C_18
REMARK    6  A    between atoms: C_18  and  C_20
REMARK    7  A    between atoms: C_25  and  O_26
REMARK                            x       y       z     vdW  Elec       q    Type
REMARK                         _______ _______ _______ _____ _____    ______ ____
ROOT
ATOM      1  N   UNL     1       0.738  -1.962  -1.265  0.00  0.00    -0.296 N 
ATOM      2  C   UNL     1       0.838  -2.628  -2.432  0.00  0.00    +0.306 C 
ATOM      3  O   UNL     1       0.911  -2.014  -3.478  0.00  0.00    -0.252 OA
ATOM      4  N   UNL     1       0.856  -3.976  -2.440  0.00  0.00    -0.237 N 
ATOM      5  C   UNL     1       0.956  -4.642  -3.607  0.00  0.00    +0.258 C 
ATOM      6  O   UNL     1       1.029  -4.029  -4.650  0.00  0.00    -0.272 OA
ATOM      7  H   UNL     1       0.679  -2.453  -0.430  0.00  0.00    +0.151 HD
ATOM      8  H   UNL     1       0.797  -4.467  -1.605  0.00  0.00    +0.159 HD
ENDROOT
BRANCH   1  15
ATOM      9  C   UNL     1      -1.433  -0.534   0.013  0.00  0.00    +0.009 C 
ATOM     10  C   UNL     1       0.002  -0.004   0.002  0.00  0.00    +0.006 C 
ATOM     11  C   UNL     1      -0.019   1.526   0.010  0.00  0.00    +0.005 C 
ATOM     12  C   UNL     1       1.417   2.055  -0.000  0.00  0.00    +0.000 C 
ATOM     13  C   UNL     1       2.133   1.562  -1.259  0.00  0.00    +0.002 C 
ATOM     14  C   UNL     1       2.154   0.032  -1.268  0.00  0.00    +0.022 C 
ATOM     15  C   UNL     1       0.718  -0.497  -1.257  0.00  0.00    +0.077 C 
ENDBRANCH   1  15
BRANCH   5  16
ATOM     16  C   UNL     1       0.976  -6.149  -3.615  0.00  0.00    +0.328 C 
BRANCH  16  17
ATOM     17  O   UNL     1       1.089  -6.624  -4.983  0.00  0.00    -0.452 OA
BRANCH  17  18
ATOM     18  C   UNL     1       1.121  -7.959  -5.166  0.00  0.00    +0.343 C 
ATOM     19  O   UNL     1       1.056  -8.705  -4.209  0.00  0.00    -0.245 OA
BRANCH  18  20
ATOM     20  C   UNL     1       1.234  -8.513  -6.527  0.00  0.00    +0.101 A 
ATOM     21  C   UNL     1       1.309  -7.658  -7.630  0.00  0.00    +0.034 A 
ATOM     22  C   UNL     1       1.415  -8.184  -8.900  0.00  0.00    +0.019 A 
ATOM     23  C   UNL     1       1.447  -9.557  -9.089  0.00  0.00    +0.019 A 
ATOM     24  C   UNL     1       1.375 -10.412  -8.008  0.00  0.00    +0.047 A 
ATOM     25  C   UNL     1       1.274  -9.901  -6.722  0.00  0.00    +0.131 A 
ATOM     26 BR   UNL     1       1.516  -7.026 -10.392  0.00  0.00    -0.050 Br
BRANCH  25  27
ATOM     27  O   UNL     1       1.208 -10.740  -5.659  0.00  0.00    -0.506 OA
ATOM     28  H   UNL     1       0.308 -10.999  -5.417  0.00  0.00    +0.292 HD
ENDBRANCH  25  27
ENDBRANCH  18  20
ENDBRANCH  17  18
ENDBRANCH  16  17
ENDBRANCH   5  16
TORSDOF 6
