REMARK  Name = ZINC66629771
REMARK  11 active torsions:
REMARK  status: ('A' for Active; 'I' for Inactive)
REMARK    1  A    between atoms: C_1  and  C_2
REMARK    2  A    between atoms: C_5  and  C_7
REMARK    3  A    between atoms: C_7  and  C_9
REMARK    4  A    between atoms: C_7  and  N_10
REMARK    5  A    between atoms: C_11  and  C_13
REMARK    6  A    between atoms: C_13  and  C_15
REMARK    7  A    between atoms: C_13  and  N_21
REMARK    8  A    between atoms: C_22  and  C_24
REMARK    9  A    between atoms: C_24  and  C_25
REMARK   10  A    between atoms: C_25  and  C_26
REMARK   11  A    between atoms: C_25  and  C_27
REMARK                            x       y       z     vdW  Elec       q    Type
REMARK                         _______ _______ _______ _____ _____    ______ ____
ROOT
ATOM      1  C   UNL     1       3.731  -5.388  -2.408  0.00  0.00    +0.189 C 
ENDROOT
BRANCH   1   2
ATOM      2  C   UNL     1       4.971  -4.977  -1.658  0.00  0.00    -0.018 A 
ATOM      3  C   UNL     1       5.606  -5.878  -0.825  0.00  0.00    +0.006 A 
ATOM      4  C   UNL     1       6.744  -5.501  -0.137  0.00  0.00    +0.000 A 
ATOM      5  C   UNL     1       7.248  -4.221  -0.282  0.00  0.00    +0.000 A 
ATOM      6  C   UNL     1       6.613  -3.320  -1.117  0.00  0.00    +0.000 A 
ATOM      7  C   UNL     1       5.478  -3.699  -1.808  0.00  0.00    +0.006 A 
ENDBRANCH   1   2
BRANCH   1   9
ATOM      8  N   UNL     1       2.201  -4.137  -0.921  0.00  0.00    -0.306 N 
ATOM      9  C   UNL     1       2.539  -5.311  -1.489  0.00  0.00    +0.238 C 
ATOM     10  O   UNL     1       1.884  -6.306  -1.260  0.00  0.00    -0.273 OA
ATOM     11  H   UNL     1       2.725  -3.341  -1.103  0.00  0.00    +0.149 HD
BRANCH   8  12
ATOM     12  C   UNL     1       1.043  -4.062  -0.027  0.00  0.00    +0.107 C 
ATOM     13  C   UNL     1       1.465  -4.458   1.389  0.00  0.00    +0.033 C 
BRANCH  12  18
ATOM     14  C   UNL     1      -0.018   1.503   0.010  0.00  0.00    +0.051 C 
ATOM     15  C   UNL     1       0.002  -0.004   0.002  0.00  0.00    -0.013 A 
ATOM     16  C   UNL     1      -1.039  -0.872   0.002  0.00  0.00    +0.011 A 
ATOM     17  C   UNL     1      -0.780  -2.230  -0.007  0.00  0.00    +0.013 A 
ATOM     18  C   UNL     1       0.507  -2.653  -0.016  0.00  0.00    +0.010 A 
ATOM     19  S   UNL     1       1.404  -1.109  -0.018  0.00  0.00    -0.097 S 
ENDBRANCH  12  18
ENDBRANCH   8  12
ENDBRANCH   1   9
BRANCH   1  20
ATOM     20  N   UNL     1       3.886  -6.763  -2.892  0.00  0.00    -0.300 N 
ATOM     21  C   UNL     1       4.515  -6.999  -4.061  0.00  0.00    +0.214 C 
ATOM     22  O   UNL     1       4.952  -6.073  -4.712  0.00  0.00    -0.276 OA
ATOM     23  H   UNL     1       3.537  -7.503  -2.371  0.00  0.00    +0.150 HD
BRANCH  21  24
ATOM     24  C   UNL     1       4.675  -8.412  -4.558  0.00  0.00    +0.098 C 
BRANCH  24  25
ATOM     25  C   UNL     1       5.417  -8.401  -5.896  0.00  0.00    -0.008 C 
ATOM     26  C   UNL     1       5.689  -9.839  -6.340  0.00  0.00    +0.008 C 
ATOM     27  C   UNL     1       4.560  -7.696  -6.949  0.00  0.00    +0.008 C 
ENDBRANCH  24  25
ENDBRANCH  21  24
ENDBRANCH   1  20
TORSDOF 7
