REMARK  Name = ZINC36824162
REMARK  8 active torsions:
REMARK  status: ('A' for Active; 'I' for Inactive)
REMARK    1  A    between atoms: C_1  and  C_2
REMARK    2  A    between atoms: C_4  and  O_20
REMARK    3  A    between atoms: C_5  and  O_18
REMARK    4  A    between atoms: C_7  and  C_8
REMARK    5  A    between atoms: C_8  and  C_10
REMARK    6  A    between atoms: C_8  and  N_17
REMARK    7  A    between atoms: O_18  and  C_19
REMARK    8  A    between atoms: O_20  and  C_21
REMARK                            x       y       z     vdW  Elec       q    Type
REMARK                         _______ _______ _______ _____ _____    ______ ____
ROOT
ATOM      1  C   UNL     1       0.243   0.053   2.492  0.00  0.00    -0.011 C 
ENDROOT
BRANCH   1   8
ATOM      2  C   UNL     1      -0.301   0.893  -0.215  0.00  0.00    +0.044 C 
ATOM      3  C   UNL     1      -0.098  -0.568   0.092  0.00  0.00    -0.045 A 
ATOM      4  C   UNL     1      -0.168  -1.503  -0.925  0.00  0.00    +0.053 A 
ATOM      5  C   UNL     1       0.018  -2.846  -0.644  0.00  0.00    +0.162 A 
ATOM      6  C   UNL     1       0.275  -3.252   0.662  0.00  0.00    +0.162 A 
ATOM      7  C   UNL     1       0.343  -2.311   1.676  0.00  0.00    +0.052 A 
ATOM      8  C   UNL     1       0.162  -0.971   1.388  0.00  0.00    -0.051 A 
BRANCH   6   9
ATOM      9  O   UNL     1       0.457  -4.571   0.943  0.00  0.00    -0.491 OA
ATOM     10  C   UNL     1       0.717  -4.914   2.306  0.00  0.00    +0.277 C 
ENDBRANCH   6   9
BRANCH   5  11
ATOM     11  O   UNL     1      -0.050  -3.767  -1.643  0.00  0.00    -0.491 OA
ATOM     12  C   UNL     1      -0.318  -3.278  -2.959  0.00  0.00    +0.277 C 
ENDBRANCH   5  11
ENDBRANCH   1   8
BRANCH   1  13
ATOM     13  C   UNL     1      -1.133   0.289   3.059  0.00  0.00    -0.038 A 
ATOM     14  C   UNL     1      -1.800   1.479   2.810  0.00  0.00    +0.020 A 
ATOM     15  C   UNL     1      -3.065   1.653   3.353  0.00  0.00    +0.036 A 
ATOM     16  C   UNL     1      -3.614   0.640   4.119  0.00  0.00    +0.126 A 
ATOM     17  N   UNL     1      -2.949  -0.478   4.335  0.00  0.00    -0.262 NA
ATOM     18  C   UNL     1      -1.748  -0.679   3.830  0.00  0.00    +0.113 A 
ATOM     19 BR   UNL     1      -4.025   3.253   3.050  0.00  0.00    -0.049 Br
ENDBRANCH   1  13
BRANCH   1  20
ATOM     20  N   UNL     1       1.132  -0.440   3.552  0.00  0.00    +0.385 N 
ATOM     21  H   UNL     1       2.053  -0.598   3.172  0.00  0.00    -0.089 HD
ATOM     22  H   UNL     1       1.186   0.246   4.291  0.00  0.00    -0.089 HD
ATOM     23  H   UNL     1       0.768  -1.305   3.922  0.00  0.00    -0.089 HD
ENDBRANCH   1  20
TORSDOF 5
