REMARK  Name = ZINC12211777
REMARK  6 active torsions:
REMARK  status: ('A' for Active; 'I' for Inactive)
REMARK    1  A    between atoms: C_4  and  C_7
REMARK    2  A    between atoms: C_18  and  C_19
REMARK    3  A    between atoms: C_18  and  N_56
REMARK    4  A    between atoms: C_19  and  C_20
REMARK    5  A    between atoms: N_22  and  C_23
REMARK    6  A    between atoms: C_23  and  C_24
REMARK                            x       y       z     vdW  Elec       q    Type
REMARK                         _______ _______ _______ _____ _____    ______ ____
ROOT
ATOM      1  C   UNL     1      -5.601  -2.753   6.476  0.00  0.00    +0.187 C 
ATOM      2  C   UNL     1      -5.124  -2.158   5.169  0.00  0.00    -0.028 C 
ATOM      3  C   UNL     1      -6.526  -0.167   5.147  0.00  0.00    -0.039 C 
ATOM      4  C   UNL     1      -7.567  -0.487   6.202  0.00  0.00    -0.022 A 
ATOM      5  C   UNL     1      -8.862  -0.034   6.059  0.00  0.00    +0.005 A 
ATOM      6  C   UNL     1      -9.799  -0.317   7.037  0.00  0.00    +0.000 A 
ATOM      7  C   UNL     1      -9.437  -1.049   8.153  0.00  0.00    +0.004 A 
ATOM      8  C   UNL     1      -8.141  -1.508   8.294  0.00  0.00    +0.046 A 
ATOM      9  C   UNL     1      -7.204  -1.232   7.308  0.00  0.00    +0.123 A 
ATOM     10  O   UNL     1      -5.938  -1.721   7.412  0.00  0.00    -0.486 OA
ATOM     11  N   UNL     1      -6.188  -1.428   4.446  0.00  0.00    +0.385 N 
ATOM     12  H   UNL     1      -7.026  -2.019   4.409  0.00  0.00    -0.081 HD
ENDROOT
BRANCH   1  16
ATOM     13  C   UNL     1      -2.503  -5.189   8.125  0.00  0.00    +0.000 A 
ATOM     14  C   UNL     1      -3.481  -5.758   7.331  0.00  0.00    +0.000 A 
ATOM     15  C   UNL     1      -4.484  -4.970   6.797  0.00  0.00    +0.007 A 
ATOM     16  C   UNL     1      -4.508  -3.613   7.058  0.00  0.00    -0.009 A 
ATOM     17  C   UNL     1      -3.527  -3.043   7.848  0.00  0.00    +0.007 A 
ATOM     18  C   UNL     1      -2.528  -3.832   8.386  0.00  0.00    +0.000 A 
ENDBRANCH   1  16
BRANCH  11  19
ATOM     19  C   UNL     1      -5.748  -1.138   3.072  0.00  0.00    -0.069 C 
BRANCH  19  20
ATOM     20  C   UNL     1      -4.455  -0.320   3.070  0.00  0.00    +0.077 C 
BRANCH  20  21
ATOM     21  C   UNL     1      -4.037  -0.044   1.649  0.00  0.00    +0.211 C 
ATOM     22  O   UNL     1      -4.708  -0.460   0.728  0.00  0.00    -0.276 OA
ATOM     23  N   UNL     1      -2.918   0.666   1.401  0.00  0.00    -0.311 N 
ATOM     24  H   UNL     1      -2.382   0.999   2.138  0.00  0.00    +0.149 HD
BRANCH  23  25
ATOM     25  C   UNL     1      -2.513   0.935   0.019  0.00  0.00    +0.139 C 
BRANCH  25  26
ATOM     26  C   UNL     1      -1.239   1.740   0.018  0.00  0.00    -0.028 A 
ATOM     27  C   UNL     1      -0.013   1.076   0.008  0.00  0.00    +0.007 A 
ATOM     28  C   UNL     1       1.160   1.753   0.000  0.00  0.00    +0.031 A 
ATOM     29  C   UNL     1       1.161   3.172   0.009  0.00  0.00    +0.100 A 
ATOM     30  C   UNL     1      -0.123   3.868   0.025  0.00  0.00    +0.100 A 
ATOM     31  C   UNL     1      -1.312   3.093   0.031  0.00  0.00    +0.035 A 
ATOM     32  N   UNL     1       0.025   5.191   0.030  0.00  0.00    -0.191 NA
ATOM     33  S   UNL     1       1.569   5.459   0.017  0.00  0.00    +0.116 S 
ATOM     34  N   UNL     1       2.188   4.019   0.003  0.00  0.00    -0.191 NA
ENDBRANCH  25  26
ENDBRANCH  23  25
ENDBRANCH  20  21
ENDBRANCH  19  20
ENDBRANCH  11  19
TORSDOF 6
