REMARK  Name = ZINC11776132
REMARK  8 active torsions:
REMARK  status: ('A' for Active; 'I' for Inactive)
REMARK    1  A    between atoms: C_1  and  C_2
REMARK    2  A    between atoms: C_6  and  O_8
REMARK    3  A    between atoms: O_8  and  C_9
REMARK    4  A    between atoms: C_9  and  C_10
REMARK    5  A    between atoms: N_12  and  C_13
REMARK    6  A    between atoms: C_14  and  C_25
REMARK    7  A    between atoms: C_20  and  C_24
REMARK    8  A    between atoms: C_21  and  C_23
REMARK                            x       y       z     vdW  Elec       q    Type
REMARK                         _______ _______ _______ _____ _____    ______ ____
ROOT
ATOM      1  C   UNL     1       1.460   7.435  -0.931  0.00  0.00    +0.255 C 
ATOM      2  O   UNL     1       0.772   7.953  -1.785  0.00  0.00    -0.272 OA
ATOM      3  N   UNL     1       2.036   8.194   0.022  0.00  0.00    -0.277 N 
ATOM      4  H   UNL     1       2.529   7.773   0.744  0.00  0.00    +0.155 HD
ENDROOT
BRANCH   3   5
ATOM      5  C   UNL     1       1.920   9.594  -0.028  0.00  0.00    +0.121 A 
ATOM      6  C   UNL     1       3.053  10.382  -0.110  0.00  0.00    +0.068 A 
ATOM      7  N   UNL     1       2.910  11.705  -0.162  0.00  0.00    -0.226 NA
ATOM      8  C   UNL     1       1.726  12.261  -0.127  0.00  0.00    +0.181 A 
ATOM      9  N   UNL     1       0.552  11.559  -0.041  0.00  0.00    -0.257 N 
ATOM     10  C   UNL     1       0.657  10.198   0.009  0.00  0.00    +0.281 A 
ATOM     11  O   UNL     1      -0.348   9.509   0.085  0.00  0.00    -0.265 OA
ATOM     12  C   UNL     1      -0.608  12.296  -0.015  0.00  0.00    +0.036 A 
ATOM     13  C   UNL     1      -0.580  13.627  -0.070  0.00  0.00    +0.010 A 
ATOM     14  S   UNL     1       1.173  13.952  -0.168  0.00  0.00    -0.054 S 
ATOM     15  C   UNL     1      -1.728  14.603  -0.053  0.00  0.00    +0.053 C 
ATOM     16  C   UNL     1      -1.934  11.585   0.079  0.00  0.00    +0.065 C 
ATOM     17  C   UNL     1       4.423   9.756  -0.145  0.00  0.00    +0.068 C 
ENDBRANCH   3   5
BRANCH   1  18
ATOM     18  C   UNL     1       1.673   5.943  -0.938  0.00  0.00    +0.324 C 
BRANCH  18  19
ATOM     19  O   UNL     1       0.967   5.366  -2.038  0.00  0.00    -0.483 OA
BRANCH  19  25
ATOM     20  C   UNL     1      -0.221   1.341  -4.531  0.00  0.00    +0.044 C 
ATOM     21  C   UNL     1       0.490   2.022  -3.390  0.00  0.00    -0.047 A 
ATOM     22  C   UNL     1       1.235   1.274  -2.496  0.00  0.00    +0.003 A 
ATOM     23  C   UNL     1       1.893   1.897  -1.452  0.00  0.00    +0.004 A 
ATOM     24  C   UNL     1       1.805   3.267  -1.296  0.00  0.00    +0.045 A 
ATOM     25  C   UNL     1       1.055   4.018  -2.188  0.00  0.00    +0.121 A 
ATOM     26  C   UNL     1       0.394   3.391  -3.235  0.00  0.00    +0.049 A 
ENDBRANCH  19  25
ENDBRANCH  18  19
ENDBRANCH   1  18
TORSDOF 4
