REMARK  Name = ZINC67186519
REMARK  10 active torsions:
REMARK  status: ('A' for Active; 'I' for Inactive)
REMARK    1  A    between atoms: C_1  and  C_2
REMARK    2  A    between atoms: C_2  and  N_3
REMARK    3  A    between atoms: N_3  and  C_4
REMARK    4  A    between atoms: C_4  and  C_5
REMARK    5  A    between atoms: C_6  and  C_8
REMARK    6  A    between atoms: C_11  and  C_14
REMARK    7  A    between atoms: C_14  and  N_15
REMARK    8  A    between atoms: N_15  and  C_16
REMARK    9  A    between atoms: C_16  and  C_17
REMARK   10  A    between atoms: C_20  and  C_22
REMARK                            x       y       z     vdW  Elec       q    Type
REMARK                         _______ _______ _______ _____ _____    ______ ____
ROOT
ATOM      1  C   UNL     1       2.233  -1.675   5.888  0.00  0.00    -0.046 C 
ENDROOT
BRANCH   1   5
ATOM      2  C   UNL     1      -0.677  -1.215   2.789  0.00  0.00    +0.037 A 
ATOM      3  C   UNL     1       0.594  -0.656   2.646  0.00  0.00    +0.013 A 
ATOM      4  C   UNL     1       1.528  -0.808   3.650  0.00  0.00    +0.002 A 
ATOM      5  C   UNL     1       1.207  -1.513   4.796  0.00  0.00    -0.064 A 
ATOM      6  C   UNL     1      -0.050  -2.070   4.945  0.00  0.00    +0.002 A 
ATOM      7  C   UNL     1      -0.996  -1.920   3.951  0.00  0.00    +0.013 A 
BRANCH   2   9
ATOM      8  N   UNL     1      -1.334  -1.248   0.431  0.00  0.00    -0.298 N 
ATOM      9  C   UNL     1      -1.684  -1.056   1.718  0.00  0.00    +0.247 C 
ATOM     10  O   UNL     1      -2.827  -0.751   1.998  0.00  0.00    -0.270 OA
BRANCH   8  12
ATOM     11  C   UNL     1      -2.996  -2.346  -0.988  0.00  0.00    +0.024 C 
ATOM     12  C   UNL     1      -2.313  -1.023  -0.636  0.00  0.00    +0.104 C 
ENDBRANCH   8  12
BRANCH   8  13
ATOM     13  C   UNL     1       0.025  -1.681   0.098  0.00  0.00    +0.104 C 
ATOM     14  C   UNL     1       0.852  -0.473  -0.346  0.00  0.00    +0.024 C 
ENDBRANCH   8  13
ENDBRANCH   2   9
ENDBRANCH   1   5
BRANCH   1  15
ATOM     15  N   UNL     1       2.119  -0.559   6.837  0.00  0.00    +0.385 N 
ATOM     16  H   UNL     1       2.279   0.312   6.352  0.00  0.00    -0.085 HD
ATOM     17  H   UNL     1       1.195  -0.555   7.242  0.00  0.00    -0.085 HD
BRANCH  15  18
ATOM     18  C   UNL     1       3.119  -0.717   7.901  0.00  0.00    -0.025 C 
BRANCH  18  19
ATOM     19  C   UNL     1       3.003   0.427   8.874  0.00  0.00    +0.032 A 
ATOM     20  C   UNL     1       2.261   0.287  10.003  0.00  0.00    +0.068 A 
ATOM     21  S   UNL     1       2.479   1.900  10.744  0.00  0.00    -0.075 S 
ATOM     22  C   UNL     1       3.533   2.585   9.472  0.00  0.00    +0.109 A 
ATOM     23  N   UNL     1       3.623   1.561   8.634  0.00  0.00    -0.246 NA
BRANCH  22  24
ATOM     24  C   UNL     1       4.143   3.928   9.382  0.00  0.00    +0.014 A 
ATOM     25  C   UNL     1       3.935   4.875  10.382  0.00  0.00    +0.018 A 
ATOM     26  C   UNL     1       4.509   6.092  10.263  0.00  0.00    +0.046 A 
ATOM     27  S   UNL     1       5.381   5.951   8.712  0.00  0.00    -0.104 S 
ATOM     28  C   UNL     1       4.930   4.270   8.315  0.00  0.00    +0.055 A 
ENDBRANCH  22  24
ENDBRANCH  18  19
ENDBRANCH  15  18
ENDBRANCH   1  15
TORSDOF 8
