REMARK  Name = ZINC58289129
REMARK  9 active torsions:
REMARK  status: ('A' for Active; 'I' for Inactive)
REMARK    1  A    between atoms: C_1  and  C_2
REMARK    2  A    between atoms: C_2  and  N_3
REMARK    3  A    between atoms: C_5  and  C_14
REMARK    4  A    between atoms: C_14  and  N_15
REMARK    5  A    between atoms: N_15  and  C_16
REMARK    6  A    between atoms: N_15  and  C_17
REMARK    7  A    between atoms: C_17  and  C_18
REMARK    8  A    between atoms: N_23  and  C_24
REMARK    9  A    between atoms: C_24  and  C_25
REMARK                            x       y       z     vdW  Elec       q    Type
REMARK                         _______ _______ _______ _____ _____    ______ ____
ROOT
ATOM      1  N   UNL     1      -5.643   0.042   2.299  0.00  0.00    +0.386 N 
ATOM      2  C   UNL     1      -6.401  -0.240   3.525  0.00  0.00    -0.095 C 
ATOM      3  H   UNL     1      -6.143  -0.325   1.503  0.00  0.00    -0.081 HD
ENDROOT
BRANCH   1   4
ATOM      4  C   UNL     1      -4.321  -0.593   2.383  0.00  0.00    -0.032 C 
BRANCH   4   7
ATOM      5  N   UNL     1      -1.535  -0.885  -0.159  0.00  0.00    -0.324 N 
ATOM      6  C   UNL     1      -2.180  -1.025   1.157  0.00  0.00    +0.147 C 
ATOM      7  C   UNL     1      -3.591  -0.430   1.048  0.00  0.00    +0.174 C 
ATOM      8  O   UNL     1      -4.305  -1.122   0.021  0.00  0.00    -0.487 OA
ATOM      9  C   UNL     1      -3.691  -1.275  -1.183  0.00  0.00    +0.142 A 
ATOM     10  C   UNL     1      -2.310  -1.158  -1.298  0.00  0.00    +0.072 A 
ATOM     11  C   UNL     1      -1.699  -1.315  -2.531  0.00  0.00    +0.027 A 
ATOM     12  C   UNL     1      -2.467  -1.582  -3.651  0.00  0.00    +0.002 A 
ATOM     13  C   UNL     1      -3.840  -1.691  -3.538  0.00  0.00    +0.004 A 
ATOM     14  C   UNL     1      -4.451  -1.547  -2.310  0.00  0.00    +0.047 A 
BRANCH   5  16
ATOM     15  C   UNL     1      -0.063   1.057  -0.367  0.00  0.00    +0.024 C 
ATOM     16  C   UNL     1      -0.135  -0.468  -0.277  0.00  0.00    +0.102 C 
ENDBRANCH   5  16
ENDBRANCH   4   7
ENDBRANCH   1   4
BRANCH   1  17
ATOM     17  C   UNL     1      -5.480   1.494   2.147  0.00  0.00    +0.019 C 
BRANCH  17  18
ATOM     18  C   UNL     1      -6.829   2.132   1.938  0.00  0.00    +0.204 C 
ATOM     19  O   UNL     1      -7.828   1.445   1.917  0.00  0.00    -0.277 OA
ATOM     20  N   UNL     1      -6.925   3.466   1.775  0.00  0.00    -0.242 N 
ATOM     21  C   UNL     1      -8.131   4.037   1.588  0.00  0.00    +0.306 C 
ATOM     22  O   UNL     1      -9.133   3.349   1.567  0.00  0.00    -0.252 OA
ATOM     23  N   UNL     1      -8.228   5.372   1.424  0.00  0.00    -0.291 N 
ATOM     24  H   UNL     1      -6.126   4.016   1.792  0.00  0.00    +0.159 HD
ATOM     25  H   UNL     1      -7.428   5.921   1.441  0.00  0.00    +0.151 HD
BRANCH  23  26
ATOM     26  C   UNL     1      -9.539   5.992   1.220  0.00  0.00    +0.219 C 
BRANCH  26  27
ATOM     27  C   UNL     1      -9.369   7.504   1.063  0.00  0.00    +0.405 C 
ATOM     28  F   UNL     1      -8.551   7.769  -0.041  0.00  0.00    -0.169 F 
ATOM     29  F   UNL     1     -10.621   8.097   0.869  0.00  0.00    -0.169 F 
ATOM     30  F   UNL     1      -8.778   8.030   2.217  0.00  0.00    -0.169 F 
ENDBRANCH  26  27
ENDBRANCH  23  26
ENDBRANCH  17  18
ENDBRANCH   1  17
TORSDOF 7
