REMARK  Name = ZINC08711414
REMARK  5 active torsions:
REMARK  status: ('A' for Active; 'I' for Inactive)
REMARK    1  A    between atoms: C_6  and  C_11
REMARK    2  A    between atoms: C_14  and  C_16
REMARK    3  A    between atoms: C_14  and  O_20
REMARK    4  A    between atoms: C_23  and  C_26
REMARK    5  A    between atoms: C_30  and  O_32
REMARK                            x       y       z     vdW  Elec       q    Type
REMARK                         _______ _______ _______ _____ _____    ______ ____
ROOT
ATOM      1  C   UNL     1      -3.126  -5.681  -0.003  0.00  0.00    +0.071 C 
ATOM      2  N   UNL     1      -2.309  -4.684  -0.005  0.00  0.00    -0.179 NA
ATOM      3  N   UNL     1      -0.965  -5.050  -0.019  0.00  0.00    -0.160 N 
ATOM      4  C   UNL     1      -0.872  -6.518  -0.035  0.00  0.00    +0.256 C 
ATOM      5  C   UNL     1      -2.344  -6.975  -0.018  0.00  0.00    +0.124 C 
ATOM      6  C   UNL     1       0.108  -4.175  -0.023  0.00  0.00    +0.184 A 
ATOM      7  N   UNL     1       0.109  -2.853  -0.010  0.00  0.00    -0.223 NA
ATOM      8  C   UNL     1       1.242  -2.167  -0.022  0.00  0.00    +0.080 A 
ATOM      9  C   UNL     1       2.433  -2.839  -0.036  0.00  0.00    +0.077 A 
ATOM     10  S   UNL     1       1.859  -4.532  -0.041  0.00  0.00    -0.058 S 
ENDROOT
BRANCH   1  16
ATOM     11  C   UNL     1      -9.367  -4.097   0.060  0.00  0.00    +0.001 A 
ATOM     12  C   UNL     1      -8.603  -2.931   0.061  0.00  0.00    +0.001 A 
ATOM     13  C   UNL     1      -7.243  -2.986   0.049  0.00  0.00    +0.008 A 
ATOM     14  C   UNL     1      -6.597  -4.236   0.035  0.00  0.00    -0.017 A 
ATOM     15  C   UNL     1      -5.197  -4.327   0.028  0.00  0.00    +0.018 A 
ATOM     16  C   UNL     1      -4.596  -5.577   0.010  0.00  0.00    -0.002 A 
ATOM     17  C   UNL     1      -5.380  -6.746   0.010  0.00  0.00    +0.010 A 
ATOM     18  C   UNL     1      -6.735  -6.675   0.021  0.00  0.00    +0.009 A 
ATOM     19  C   UNL     1      -7.375  -5.421   0.035  0.00  0.00    -0.018 A 
ATOM     20  C   UNL     1      -8.776  -5.323   0.047  0.00  0.00    +0.008 A 
ENDBRANCH   1  16
BRANCH   8  21
ATOM     21  C   UNL     1       1.219  -0.684  -0.013  0.00  0.00    +0.004 A 
ATOM     22  C   UNL     1       0.002  -0.004   0.002  0.00  0.00    +0.010 A 
ATOM     23  C   UNL     1      -0.017   1.376   0.010  0.00  0.00    +0.004 A 
ATOM     24  C   UNL     1       1.169   2.087   0.002  0.00  0.00    +0.045 A 
ATOM     25  C   UNL     1       2.385   1.418  -0.013  0.00  0.00    +0.117 A 
ATOM     26  C   UNL     1       2.413   0.033  -0.021  0.00  0.00    +0.055 A 
BRANCH  25  27
ATOM     27  O   UNL     1       3.548   2.121  -0.020  0.00  0.00    -0.507 OA
ATOM     28  H   UNL     1       3.876   2.329  -0.906  0.00  0.00    +0.292 HD
ENDBRANCH  25  27
ENDBRANCH   8  21
BRANCH   4  29
ATOM     29  C   UNL     1      -0.170  -7.000  -1.306  0.00  0.00    +0.438 C 
ATOM     30  F   UNL     1       1.132  -6.490  -1.342  0.00  0.00    -0.166 F 
ATOM     31  F   UNL     1      -0.124  -8.398  -1.312  0.00  0.00    -0.166 F 
ATOM     32  F   UNL     1      -0.878  -6.552  -2.427  0.00  0.00    -0.166 F 
ENDBRANCH   4  29
BRANCH   4  33
ATOM     33  O   UNL     1      -0.188  -6.991   1.128  0.00  0.00    -0.363 OA
ATOM     34  H   UNL     1       0.724  -6.677   1.203  0.00  0.00    +0.212 HD
ENDBRANCH   4  33
TORSDOF 5
