REMARK  Name = ZINC63893027
REMARK  10 active torsions:
REMARK  status: ('A' for Active; 'I' for Inactive)
REMARK    1  A    between atoms: C_1  and  O_2
REMARK    2  A    between atoms: O_2  and  C_3
REMARK    3  A    between atoms: C_6  and  C_9
REMARK    4  A    between atoms: C_9  and  C_11
REMARK    5  A    between atoms: C_9  and  C_27
REMARK    6  A    between atoms: C_11  and  N_12
REMARK    7  A    between atoms: C_13  and  C_15
REMARK    8  A    between atoms: C_15  and  S_16
REMARK    9  A    between atoms: S_16  and  C_17
REMARK   10  A    between atoms: C_20  and  C_23
REMARK                            x       y       z     vdW  Elec       q    Type
REMARK                         _______ _______ _______ _____ _____    ______ ____
ROOT
ATOM      1  C   UNL     1       2.505  -2.503  -4.381  0.00  0.00    +0.064 C 
ENDROOT
BRANCH   1   2
ATOM      2  C   UNL     1       1.505  -3.369  -5.104  0.00  0.00    -0.033 C 
ATOM      3  C   UNL     1       1.118  -3.260  -6.396  0.00  0.00    -0.000 A 
ATOM      4  C   UNL     1       1.498  -2.337  -7.473  0.00  0.00    +0.010 A 
ATOM      5  C   UNL     1       0.925  -2.479  -8.690  0.00  0.00    +0.001 A 
ATOM      6  C   UNL     1      -0.019  -3.482  -8.948  0.00  0.00    +0.002 A 
ATOM      7  C   UNL     1      -0.418  -4.367  -8.010  0.00  0.00    +0.026 A 
ATOM      8  C   UNL     1       0.119  -4.311  -6.694  0.00  0.00    +0.043 A 
ATOM      9  N   UNL     1      -0.103  -5.041  -5.629  0.00  0.00    -0.380 N 
ATOM     10  C   UNL     1       0.735  -4.539  -4.534  0.00  0.00    +0.145 C 
ATOM     11  H   UNL     1      -0.716  -5.791  -5.574  0.00  0.00    +0.160 HD
ENDBRANCH   1   2
BRANCH   1  15
ATOM     12  C   UNL     1       0.606  -0.607  -1.056  0.00  0.00    +0.120 A 
ATOM     13  C   UNL     1       1.173   0.161  -2.062  0.00  0.00    +0.046 A 
ATOM     14  C   UNL     1       1.786  -0.455  -3.136  0.00  0.00    +0.008 A 
ATOM     15  C   UNL     1       1.835  -1.835  -3.209  0.00  0.00    -0.038 A 
ATOM     16  C   UNL     1       1.270  -2.602  -2.207  0.00  0.00    +0.008 A 
ATOM     17  C   UNL     1       0.661  -1.992  -1.128  0.00  0.00    +0.046 A 
BRANCH  12  19
ATOM     18  C   UNL     1      -0.017   1.425   0.010  0.00  0.00    +0.277 C 
ATOM     19  O   UNL     1       0.002  -0.004   0.002  0.00  0.00    -0.495 OA
ENDBRANCH  12  19
ENDBRANCH   1  15
BRANCH   1  20
ATOM     20  C   UNL     1       3.662  -3.370  -3.882  0.00  0.00    +0.116 C 
BRANCH  20  21
ATOM     21  N   UNL     1       4.387  -3.925  -5.028  0.00  0.00    -0.314 N 
ATOM     22  C   UNL     1       5.453  -4.725  -4.828  0.00  0.00    +0.223 C 
ATOM     23  O   UNL     1       5.812  -4.986  -3.699  0.00  0.00    -0.275 OA
ATOM     24  H   UNL     1       4.099  -3.716  -5.931  0.00  0.00    +0.149 HD
BRANCH  22  25
ATOM     25  C   UNL     1       6.198  -5.296  -6.007  0.00  0.00    +0.171 C 
BRANCH  25  26
ATOM     26  S   UNL     1       7.571  -6.324  -5.414  0.00  0.00    -0.097 S 
BRANCH  26  27
ATOM     27  C   UNL     1       8.333  -6.910  -6.891  0.00  0.00    +0.097 A 
ATOM     28  C   UNL     1       9.440  -7.749  -6.810  0.00  0.00    +0.035 A 
ATOM     29  C   UNL     1      10.028  -8.201  -7.977  0.00  0.00    +0.016 A 
ATOM     30  C   UNL     1       9.488  -7.798  -9.191  0.00  0.00    +0.073 A 
ATOM     31  C   UNL     1       8.388  -6.964  -9.198  0.00  0.00    +0.124 A 
ATOM     32  N   UNL     1       7.843  -6.551  -8.069  0.00  0.00    -0.248 NA
BRANCH  30  33
ATOM     33  C   UNL     1      10.096  -8.266 -10.488  0.00  0.00    +0.419 C 
ATOM     34  F   UNL     1       9.488  -9.462 -10.884  0.00  0.00    -0.166 F 
ATOM     35  F   UNL     1       9.898  -7.293 -11.474  0.00  0.00    -0.166 F 
ATOM     36  F   UNL     1      11.468  -8.477 -10.310  0.00  0.00    -0.166 F 
ENDBRANCH  30  33
ENDBRANCH  26  27
ENDBRANCH  25  26
ENDBRANCH  22  25
ENDBRANCH  20  21
ENDBRANCH   1  20
TORSDOF 9
