REMARK  Name = ZINC35939572
REMARK  5 active torsions:
REMARK  status: ('A' for Active; 'I' for Inactive)
REMARK    1  A    between atoms: C_1  and  C_2
REMARK    2  A    between atoms: C_5  and  C_33
REMARK    3  A    between atoms: C_6  and  N_8
REMARK    4  A    between atoms: C_14  and  C_16
REMARK    5  A    between atoms: C_26  and  C_28
REMARK                            x       y       z     vdW  Elec       q    Type
REMARK                         _______ _______ _______ _____ _____    ______ ____
ROOT
ATOM      1  C   UNL     1      -1.243  -3.989   6.984  0.00  0.00    +0.152 A 
ATOM      2  C   UNL     1      -1.362  -4.606   8.240  0.00  0.00    +0.023 A 
ATOM      3  C   UNL     1      -2.692  -4.718   8.479  0.00  0.00    +0.043 A 
ATOM      4  N   UNL     1      -3.329  -4.198   7.416  0.00  0.00    -0.280 N 
ATOM      5  H   UNL     1      -4.293  -4.148   7.316  0.00  0.00    +0.189 HD
ATOM      6  N   UNL     1      -2.474  -3.769   6.553  0.00  0.00    -0.169 NA
ATOM      7  C   UNL     1      -3.281  -5.319   9.729  0.00  0.00    +0.074 C 
ATOM      8  C   UNL     1      -2.204  -6.159  10.428  0.00  0.00    +0.114 C 
ATOM      9  N   UNL     1      -0.944  -5.403  10.462  0.00  0.00    -0.293 N 
ATOM     10  C   UNL     1      -0.287  -5.078   9.182  0.00  0.00    +0.147 C 
ATOM     11  C   UNL     1      -0.402  -5.017  11.634  0.00  0.00    +0.250 C 
ATOM     12  O   UNL     1      -0.927  -5.340  12.683  0.00  0.00    -0.270 OA
ENDROOT
BRANCH   1  19
ATOM     13  N   UNL     1      -0.033  -2.779   2.390  0.00  0.00    -0.327 N 
ATOM     14  C   UNL     1       1.252  -3.066   3.043  0.00  0.00    +0.124 C 
ATOM     15  C   UNL     1       1.209  -2.515   4.473  0.00  0.00    +0.127 C 
ATOM     16  N   UNL     1      -0.030  -2.974   5.116  0.00  0.00    -0.293 N 
ATOM     17  C   UNL     1      -1.316  -2.688   4.464  0.00  0.00    +0.127 C 
ATOM     18  C   UNL     1      -1.273  -3.234   3.036  0.00  0.00    +0.124 C 
ATOM     19  C   UNL     1       0.011  -3.647   6.284  0.00  0.00    +0.267 C 
ATOM     20  O   UNL     1       1.081  -3.973   6.760  0.00  0.00    -0.268 OA
BRANCH  13  26
ATOM     21  C   UNL     1      -0.306   1.495  -0.021  0.00  0.00    +0.044 C 
ATOM     22  C   UNL     1      -0.209  -0.009  -0.018  0.00  0.00    -0.049 A 
ATOM     23  C   UNL     1      -0.162  -0.700  -1.215  0.00  0.00    +0.004 A 
ATOM     24  C   UNL     1      -0.073  -2.080  -1.217  0.00  0.00    +0.005 A 
ATOM     25  C   UNL     1      -0.030  -2.772  -0.023  0.00  0.00    -0.029 A 
ATOM     26  C   UNL     1      -0.076  -2.082   1.181  0.00  0.00    +0.033 A 
ATOM     27  C   UNL     1      -0.161  -0.695   1.179  0.00  0.00    +0.026 A 
ATOM     28  C   UNL     1       0.066  -4.276  -0.027  0.00  0.00    +0.045 C 
ENDBRANCH  13  26
ENDBRANCH   1  19
BRANCH  11  29
ATOM     29  C   UNL     1       0.827  -4.203  11.645  0.00  0.00    +0.075 A 
ATOM     30  C   UNL     1       1.947  -4.272  10.696  0.00  0.00    +0.054 A 
ATOM     31  C   UNL     1       2.832  -3.348  11.102  0.00  0.00    +0.195 A 
ATOM     32  O   UNL     1       2.356  -2.734  12.196  0.00  0.00    -0.470 OA
ATOM     33  C   UNL     1       1.159  -3.224  12.535  0.00  0.00    +0.207 A 
ENDBRANCH  11  29
TORSDOF 3
