REMARK  Name = ZINC31155562
REMARK  14 active torsions:
REMARK  status: ('A' for Active; 'I' for Inactive)
REMARK    1  A    between atoms: C_1  and  C_2
REMARK    2  A    between atoms: C_2  and  C_3
REMARK    3  A    between atoms: C_2  and  C_4
REMARK    4  A    between atoms: C_9  and  C_37
REMARK    5  A    between atoms: C_9  and  O_38
REMARK    6  A    between atoms: C_10  and  O_33
REMARK    7  A    between atoms: C_14  and  C_31
REMARK    8  A    between atoms: C_14  and  O_32
REMARK    9  A    between atoms: C_17  and  O_19
REMARK   10  A    between atoms: O_19  and  C_20
REMARK   11  A    between atoms: C_20  and  C_22
REMARK   12  A    between atoms: C_23  and  C_24
REMARK   13  A    between atoms: O_33  and  C_34
REMARK   14  A    between atoms: C_34  and  C_36
REMARK                            x       y       z     vdW  Elec       q    Type
REMARK                         _______ _______ _______ _____ _____    ______ ____
ROOT
ATOM      1  C   UNL     1       1.879   1.315  -0.290  0.00  0.00    +0.064 C 
ATOM      2  C   UNL     1       2.436   0.917   1.103  0.00  0.00    +0.129 C 
ATOM      3  C   UNL     1       1.532  -0.267   1.601  0.00  0.00    +0.070 C 
ATOM      4  C   UNL     1       2.271  -0.918   2.761  0.00  0.00    +0.102 C 
ATOM      5  C   UNL     1       3.002  -2.220   2.427  0.00  0.00    +0.208 C 
ATOM      6  C   UNL     1       4.321  -2.059   1.675  0.00  0.00    +0.050 C 
ATOM      7  C   UNL     1       4.106  -2.666   0.241  0.00  0.00    +0.041 C 
ATOM      8  C   UNL     1       4.377  -1.496  -0.747  0.00  0.00    +0.093 C 
ATOM      9  C   UNL     1       3.474  -0.403  -0.342  0.00  0.00    +0.191 C 
ATOM     10  C   UNL     1       2.788   0.541  -1.292  0.00  0.00    +0.214 C 
ATOM     11  O   UNL     1       3.720   0.287   0.872  0.00  0.00    -0.366 OA
ATOM     12  C   UNL     1       5.834  -1.042  -0.639  0.00  0.00    +0.044 C 
ATOM     13  C   UNL     1       3.295   0.082   3.301  0.00  0.00    +0.045 C 
ENDROOT
BRANCH   1  15
ATOM     14  C   UNL     1      -0.026   1.052  -1.884  0.00  0.00    +0.008 C 
ATOM     15  C   UNL     1       0.422   0.870  -0.433  0.00  0.00    -0.008 C 
ATOM     16  C   UNL     1      -0.462   1.718   0.484  0.00  0.00    +0.008 C 
ENDBRANCH   1  15
BRANCH   8  17
ATOM     17  O   UNL     1       4.085  -1.904  -2.085  0.00  0.00    -0.386 OA
ATOM     18  H   UNL     1       4.221  -1.198  -2.918  0.00  0.00    +0.210 HD
ENDBRANCH   8  17
BRANCH   4  19
ATOM     19  O   UNL     1       1.326  -1.188   3.800  0.00  0.00    -0.385 OA
ATOM     20  H   UNL     1       1.658  -1.661   4.736  0.00  0.00    +0.210 HD
ENDBRANCH   4  19
BRANCH  10  21
ATOM     21  O   UNL     1       3.727   1.415  -1.924  0.00  0.00    -0.455 OA
BRANCH  21  22
ATOM     22  C   UNL     1       4.119   1.092  -3.174  0.00  0.00    +0.332 C 
ATOM     23  O   UNL     1       3.675   0.095  -3.712  0.00  0.00    -0.246 OA
BRANCH  22  24
ATOM     24  C   UNL     1       5.077   1.940  -3.881  0.00  0.00    +0.092 C 
ATOM     25  C   UNL     1       5.469   1.617  -5.131  0.00  0.00    +0.015 C 
BRANCH  25  26
ATOM     26  C   UNL     1       6.433   2.470  -5.844  0.00  0.00    -0.025 A 
ATOM     27  C   UNL     1       6.941   3.620  -5.231  0.00  0.00    +0.008 A 
ATOM     28  C   UNL     1       7.848   4.412  -5.903  0.00  0.00    +0.001 A 
ATOM     29  C   UNL     1       8.248   4.077  -7.185  0.00  0.00    +0.000 A 
ATOM     30  C   UNL     1       7.745   2.944  -7.801  0.00  0.00    +0.001 A 
ATOM     31  C   UNL     1       6.842   2.139  -7.140  0.00  0.00    +0.008 A 
ENDBRANCH  25  26
ENDBRANCH  22  24
ENDBRANCH  21  22
ENDBRANCH  10  21
BRANCH   5  32
ATOM     32  O   UNL     1       2.117  -3.046   1.624  0.00  0.00    -0.459 OA
BRANCH  32  33
ATOM     33  C   UNL     1       2.257  -4.376   1.735  0.00  0.00    +0.304 C 
ATOM     34  O   UNL     1       3.091  -4.836   2.479  0.00  0.00    -0.251 OA
ATOM     35  C   UNL     1       1.375  -5.296   0.932  0.00  0.00    +0.136 C 
ENDBRANCH  32  33
ENDBRANCH   5  32
TORSDOF 9
