REMARK  Name = ZINC18165195
REMARK  5 active torsions:
REMARK  status: ('A' for Active; 'I' for Inactive)
REMARK    1  A    between atoms: C_1  and  C_2
REMARK    2  A    between atoms: C_4  and  C_34
REMARK    3  A    between atoms: C_9  and  N_27
REMARK    4  A    between atoms: N_10  and  C_11
REMARK    5  A    between atoms: N_27  and  C_28
REMARK                            x       y       z     vdW  Elec       q    Type
REMARK                         _______ _______ _______ _____ _____    ______ ____
ROOT
ATOM      1  C   UNL     1       0.492   0.894  -0.336  0.00  0.00    +0.066 C 
ATOM      2  C   UNL     1       0.151  -0.553  -0.086  0.00  0.00    +0.044 A 
ATOM      3  C   UNL     1      -0.111  -1.405  -1.148  0.00  0.00    +0.046 A 
ATOM      4  C   UNL     1      -0.420  -2.728  -0.874  0.00  0.00    +0.044 A 
ATOM      5  N   UNL     1      -0.455  -3.135   0.384  0.00  0.00    -0.217 NA
ATOM      6  C   UNL     1      -0.200  -2.295   1.375  0.00  0.00    +0.231 A 
ATOM      7  N   UNL     1       0.103  -1.026   1.148  0.00  0.00    -0.217 NA
ATOM      8  N   UNL     1      -0.246  -2.756   2.684  0.00  0.00    -0.295 N 
ATOM      9  C   UNL     1       0.015  -1.902   3.721  0.00  0.00    +0.224 C 
ATOM     10  N   UNL     1      -0.029  -2.341   4.967  0.00  0.00    -0.127 NA
ATOM     11  C   UNL     1      -0.713  -3.691  -1.996  0.00  0.00    +0.066 C 
ATOM     12  H   UNL     1      -0.464  -3.684   2.864  0.00  0.00    +0.172 HD
ENDROOT
BRANCH  10  13
ATOM     13  C   UNL     1       0.044  -1.474   5.987  0.00  0.00    +0.338 C 
ATOM     14  O   UNL     1       0.081  -0.276   5.766  0.00  0.00    -0.250 OA
ATOM     15  N   UNL     1       0.078  -1.927   7.256  0.00  0.00    -0.221 N 
ATOM     16  C   UNL     1      -0.079  -3.298   7.494  0.00  0.00    +0.057 A 
ATOM     17  C   UNL     1      -0.965  -4.044   6.732  0.00  0.00    +0.025 A 
ATOM     18  C   UNL     1      -1.115  -5.397   6.974  0.00  0.00    +0.002 A 
ATOM     19  C   UNL     1      -0.387  -6.016   7.973  0.00  0.00    +0.001 A 
ATOM     20  C   UNL     1       0.501  -5.281   8.740  0.00  0.00    +0.017 A 
ATOM     21  C   UNL     1       0.655  -3.928   8.502  0.00  0.00    +0.035 A 
ATOM     22  S   UNL     1       1.780  -2.964   9.463  0.00  0.00    -0.086 S 
ATOM     23  C   UNL     1       1.045  -1.359   9.408  0.00  0.00    +0.035 A 
ATOM     24  C   UNL     1       0.273  -1.014   8.300  0.00  0.00    +0.057 A 
ATOM     25  C   UNL     1      -0.303   0.245   8.245  0.00  0.00    +0.025 A 
ATOM     26  C   UNL     1      -0.107   1.141   9.281  0.00  0.00    +0.002 A 
ATOM     27  C   UNL     1       0.661   0.790  10.375  0.00  0.00    +0.001 A 
ATOM     28  C   UNL     1       1.232  -0.460  10.441  0.00  0.00    +0.017 A 
ENDBRANCH  10  13
BRANCH   9  29
ATOM     29  N   UNL     1       0.322  -0.595   3.468  0.00  0.00    -0.215 NA
BRANCH  29  30
ATOM     30  C   UNL     1       1.591  -0.100   3.784  0.00  0.00    +0.067 A 
ATOM     31  C   UNL     1       2.623  -0.978   4.093  0.00  0.00    +0.028 A 
ATOM     32  C   UNL     1       3.875  -0.486   4.405  0.00  0.00    +0.002 A 
ATOM     33  C   UNL     1       4.103   0.878   4.410  0.00  0.00    +0.000 A 
ATOM     34  C   UNL     1       3.078   1.754   4.104  0.00  0.00    +0.002 A 
ATOM     35  C   UNL     1       1.824   1.269   3.786  0.00  0.00    +0.028 A 
ENDBRANCH  29  30
ENDBRANCH   9  29
TORSDOF 3
