REMARK  Name = ZINC31934934
REMARK  6 active torsions:
REMARK  status: ('A' for Active; 'I' for Inactive)
REMARK    1  A    between atoms: C_1  and  O_2
REMARK    2  A    between atoms: O_2  and  C_3
REMARK    3  A    between atoms: C_5  and  C_10
REMARK    4  A    between atoms: C_8  and  O_9
REMARK    5  A    between atoms: C_11  and  C_12
REMARK    6  A    between atoms: C_11  and  C_14
REMARK                            x       y       z     vdW  Elec       q    Type
REMARK                         _______ _______ _______ _____ _____    ______ ____
ROOT
ATOM      1  C   UNL     1      -3.155   0.857   1.153  0.00  0.00    +0.027 C 
ATOM      2  C   UNL     1      -3.172   1.553  -0.016  0.00  0.00    +0.061 C 
ENDROOT
BRANCH   2   3
ATOM      3  C   UNL     1      -2.865   3.002  -0.020  0.00  0.00    +0.011 A 
ATOM      4  C   UNL     1      -1.622   3.453  -0.464  0.00  0.00    +0.012 A 
ATOM      5  C   UNL     1      -1.344   4.804  -0.471  0.00  0.00    +0.021 A 
ATOM      6  C   UNL     1      -2.293   5.712  -0.034  0.00  0.00    +0.042 A 
ATOM      7  C   UNL     1      -3.527   5.271   0.414  0.00  0.00    +0.040 A 
ATOM      8  C   UNL     1      -3.817   3.921   0.426  0.00  0.00    +0.051 A 
ATOM      9 CL   UNL     1      -5.364   3.368   0.987  0.00  0.00    -0.083 Cl
ATOM     10 CL   UNL     1      -1.936   7.411  -0.045  0.00  0.00    -0.083 Cl
ENDBRANCH   2   3
BRANCH   1  13
ATOM     11  C   UNL     1      -2.881   1.850   4.759  0.00  0.00    +0.162 A 
ATOM     12  C   UNL     1      -3.326   1.239   3.603  0.00  0.00    +0.057 A 
ATOM     13  C   UNL     1      -2.687   1.503   2.385  0.00  0.00    -0.020 A 
ATOM     14  C   UNL     1      -1.597   2.381   2.348  0.00  0.00    +0.012 A 
ATOM     15  C   UNL     1      -1.163   2.989   3.505  0.00  0.00    +0.050 A 
ATOM     16  C   UNL     1      -1.798   2.727   4.712  0.00  0.00    +0.158 A 
BRANCH  11  18
ATOM     17  C   UNL     1      -4.602   0.688   5.918  0.00  0.00    +0.277 C 
ATOM     18  O   UNL     1      -3.499   1.596   5.944  0.00  0.00    -0.491 OA
ENDBRANCH  11  18
BRANCH  16  19
ATOM     19  O   UNL     1      -1.362   3.326   5.851  0.00  0.00    -0.503 OA
ATOM     20  H   UNL     1      -0.507   4.018   5.816  0.00  0.00    +0.292 HD
ENDBRANCH  16  19
ENDBRANCH   1  13
BRANCH   2  21
ATOM     21  C   UNL     1      -3.486   0.884  -1.243  0.00  0.00    +0.100 C 
ATOM     22  N   UNL     1      -3.735   0.354  -2.216  0.00  0.00    -0.191 NA
ENDBRANCH   2  21
TORSDOF 5
