REMARK  Name = ZINC01014006
REMARK  6 active torsions:
REMARK  status: ('A' for Active; 'I' for Inactive)
REMARK    1  A    between atoms: C_1  and  C_2
REMARK    2  A    between atoms: C_2  and  C_3
REMARK    3  A    between atoms: C_3  and  N_4
REMARK    4  A    between atoms: C_8  and  C_9
REMARK    5  A    between atoms: C_10  and  C_19
REMARK    6  A    between atoms: N_22  and  C_23
REMARK                            x       y       z     vdW  Elec       q    Type
REMARK                         _______ _______ _______ _____ _____    ______ ____
ROOT
ATOM      1  N   UNL     1      -0.921  -2.043   0.951  0.00  0.00    -0.246 N 
ATOM      2  C   UNL     1      -1.772  -2.539   1.832  0.00  0.00    +0.259 C 
ATOM      3  O   UNL     1      -1.897  -3.743   1.970  0.00  0.00    -0.269 OA
ATOM      4  C   UNL     1      -2.546  -1.630   2.612  0.00  0.00    +0.078 C 
ATOM      5  C   UNL     1      -3.481  -1.892   3.566  0.00  0.00    +0.030 C 
ATOM      6  S   UNL     1      -1.962  -0.055   2.003  0.00  0.00    -0.049 S 
ATOM      7  C   UNL     1      -0.786  -0.677   0.811  0.00  0.00    +0.168 C 
ATOM      8  N   UNL     1       0.002  -0.004   0.002  0.00  0.00    -0.225 NA
ENDROOT
BRANCH   5   9
ATOM      9  C   UNL     1      -4.160  -0.790   4.248  0.00  0.00    +0.004 A 
ATOM     10  C   UNL     1      -3.571   0.291   4.842  0.00  0.00    +0.021 A 
ATOM     11  N   UNL     1      -4.527   1.102   5.366  0.00  0.00    -0.358 N 
ATOM     12  H   UNL     1      -4.352   1.932   5.835  0.00  0.00    +0.166 HD
ATOM     13  C   UNL     1      -5.782   0.573   5.142  0.00  0.00    +0.047 A 
ATOM     14  C   UNL     1      -5.614  -0.629   4.436  0.00  0.00    +0.007 A 
ATOM     15  C   UNL     1      -6.725  -1.385   4.071  0.00  0.00    +0.010 A 
ATOM     16  C   UNL     1      -7.988  -0.948   4.407  0.00  0.00    +0.001 A 
ATOM     17  C   UNL     1      -8.155   0.239   5.104  0.00  0.00    +0.002 A 
ATOM     18  C   UNL     1      -7.065   0.997   5.472  0.00  0.00    +0.026 A 
ATOM     19  C   UNL     1      -2.088   0.547   4.903  0.00  0.00    +0.064 C 
ENDBRANCH   5   9
BRANCH   8  20
ATOM     20  C   UNL     1      -0.017   1.364   0.009  0.00  0.00    +0.067 A 
ATOM     21  C   UNL     1      -1.234   2.049   0.019  0.00  0.00    +0.028 A 
ATOM     22  C   UNL     1      -1.245   3.428   0.033  0.00  0.00    +0.002 A 
ATOM     23  C   UNL     1      -0.054   4.133   0.025  0.00  0.00    +0.000 A 
ATOM     24  C   UNL     1       1.155   3.461   0.010  0.00  0.00    +0.002 A 
ATOM     25  C   UNL     1       1.182   2.082   0.002  0.00  0.00    +0.028 A 
ENDBRANCH   8  20
BRANCH   1  26
ATOM     26  C   UNL     1      -0.114  -2.946   0.126  0.00  0.00    +0.116 C 
BRANCH  26  28
ATOM     27  C   UNL     1       2.042  -4.200  -0.015  0.00  0.00    +0.005 C 
ATOM     28  C   UNL     1       1.200  -3.258   0.847  0.00  0.00    +0.016 C 
ENDBRANCH  26  28
ENDBRANCH   1  26
TORSDOF 4
