REMARK  Name = ZINC04625855
REMARK  12 active torsions:
REMARK  status: ('A' for Active; 'I' for Inactive)
REMARK    1  A    between atoms: C_1  and  C_2
REMARK    2  A    between atoms: C_2  and  N_3
REMARK    3  A    between atoms: N_3  and  C_4
REMARK    4  A    between atoms: N_3  and  C_6
REMARK    5  A    between atoms: C_4  and  C_5
REMARK    6  A    between atoms: C_9  and  C_12
REMARK    7  A    between atoms: C_19  and  O_20
REMARK    8  A    between atoms: C_22  and  C_29
REMARK    9  A    between atoms: C_22  and  O_30
REMARK   10  A    between atoms: C_23  and  C_25
REMARK   11  A    between atoms: C_25  and  O_27
REMARK   12  A    between atoms: O_27  and  C_28
REMARK                            x       y       z     vdW  Elec       q    Type
REMARK                         _______ _______ _______ _____ _____    ______ ____
ROOT
ATOM      1  C   UNL     1      -0.261  -5.612  -0.565  0.00  0.00    +0.072 C 
ATOM      2  C   UNL     1       0.831  -5.039  -1.433  0.00  0.00    +0.044 A 
ATOM      3  C   UNL     1       1.210  -5.563  -2.626  0.00  0.00    +0.046 A 
ATOM      4  N   UNL     1       2.199  -4.799  -3.117  0.00  0.00    -0.278 N 
ATOM      5  N   UNL     1       2.445  -3.767  -2.199  0.00  0.00    -0.136 NA
ATOM      6  C   UNL     1       1.622  -3.913  -1.186  0.00  0.00    +0.235 A 
ATOM      7  C   UNL     1       0.592  -6.792  -3.244  0.00  0.00    +0.090 C 
ATOM      8  C   UNL     1      -0.184  -7.543  -2.155  0.00  0.00    +0.082 C 
ATOM      9  C   UNL     1      -1.105  -6.569  -1.416  0.00  0.00    +0.141 C 
ATOM     10  C   UNL     1      -1.023  -8.650  -2.797  0.00  0.00    +0.042 C 
ATOM     11  H   UNL     1       2.662  -4.936  -3.959  0.00  0.00    +0.189 HD
ENDROOT
BRANCH   1  15
ATOM     12  C   UNL     1      -2.723  -2.454   0.923  0.00  0.00    +0.013 A 
ATOM     13  C   UNL     1      -2.425  -3.537   1.729  0.00  0.00    +0.022 A 
ATOM     14  C   UNL     1      -1.628  -4.559   1.248  0.00  0.00    +0.006 A 
ATOM     15  C   UNL     1      -1.130  -4.498  -0.040  0.00  0.00    -0.039 A 
ATOM     16  C   UNL     1      -1.429  -3.417  -0.847  0.00  0.00    +0.006 A 
ATOM     17  C   UNL     1      -2.229  -2.397  -0.367  0.00  0.00    +0.022 A 
BRANCH  12  18
ATOM     18  N   UNL     1      -3.529  -1.421   1.409  0.00  0.00    -0.394 NA
ATOM     19  H   UNL     1      -3.647  -0.720   0.693  0.00  0.00    +0.126 HD
BRANCH  18  21
ATOM     20  C   UNL     1      -5.764  -0.812   2.203  0.00  0.00    +0.022 C 
ATOM     21  C   UNL     1      -4.842  -1.960   1.788  0.00  0.00    +0.081 C 
ENDBRANCH  18  21
BRANCH  18  22
ATOM     22  C   UNL     1      -2.890  -0.815   2.586  0.00  0.00    +0.081 C 
ATOM     23  C   UNL     1      -1.581  -0.144   2.167  0.00  0.00    +0.022 C 
ENDBRANCH  18  22
ENDBRANCH  12  18
ENDBRANCH   1  15
BRANCH   6  25
ATOM     24  H   UNL     1       2.125  -3.386   0.637  0.00  0.00    +0.294 HD
ATOM     25  O   UNL     1       1.551  -3.111  -0.091  0.00  0.00    -0.491 OA
ENDBRANCH   6  25
BRANCH   9  26
ATOM     26  C   UNL     1      -1.903  -5.777  -2.419  0.00  0.00    +0.314 C 
ATOM     27  O   UNL     1      -1.343  -5.014  -3.170  0.00  0.00    -0.250 OA
BRANCH  26  28
ATOM     28  O   UNL     1      -3.237  -5.918  -2.477  0.00  0.00    -0.468 OA
ATOM     29  C   UNL     1      -3.930  -5.137  -3.452  0.00  0.00    +0.280 C 
ENDBRANCH  26  28
ENDBRANCH   9  26
BRANCH   8  30
ATOM     30  O   UNL     1       0.737  -8.122  -1.228  0.00  0.00    -0.388 OA
ATOM     31  H   UNL     1       1.353  -8.752  -1.626  0.00  0.00    +0.210 HD
ENDBRANCH   8  30
TORSDOF 8
