REMARK  Name = ZINC05296073
REMARK  9 active torsions:
REMARK  status: ('A' for Active; 'I' for Inactive)
REMARK    1  A    between atoms: C_1  and  C_2
REMARK    2  A    between atoms: C_2  and  C_3
REMARK    3  A    between atoms: C_2  and  C_4
REMARK    4  A    between atoms: C_2  and  C_5
REMARK    5  A    between atoms: C_5  and  C_6
REMARK    6  A    between atoms: C_12  and  C_16
REMARK    7  A    between atoms: N_18  and  N_19
REMARK    8  A    between atoms: C_20  and  C_21
REMARK    9  A    between atoms: C_25  and  O_27
REMARK                            x       y       z     vdW  Elec       q    Type
REMARK                         _______ _______ _______ _____ _____    ______ ____
ROOT
ATOM      1  C   UNL     1       5.607  11.202   0.368  0.00  0.00    -0.006 C 
ATOM      2  C   UNL     1       4.968  11.979  -0.786  0.00  0.00    +0.010 C 
ATOM      3  C   UNL     1       3.525  12.347  -0.429  0.00  0.00    +0.055 C 
ATOM      4  C   UNL     1       2.825  11.105   0.063  0.00  0.00    +0.040 A 
ATOM      5  C   UNL     1       3.471   9.980   0.457  0.00  0.00    +0.006 A 
ATOM      6  C   UNL     1       2.467   9.070   0.829  0.00  0.00    +0.152 A 
ATOM      7  N   UNL     1       1.311   9.687   0.651  0.00  0.00    -0.169 NA
ATOM      8  N   UNL     1       1.509  10.879   0.204  0.00  0.00    -0.281 N 
ATOM      9  H   UNL     1       0.788  11.539  -0.007  0.00  0.00    +0.189 HD
ATOM     10  C   UNL     1       4.965   9.811   0.467  0.00  0.00    +0.043 C 
ENDROOT
BRANCH   6  11
ATOM     11  C   UNL     1       2.665   7.694   1.327  0.00  0.00    +0.284 C 
ATOM     12  O   UNL     1       3.789   7.245   1.444  0.00  0.00    -0.267 OA
ATOM     13  N   UNL     1       1.599   6.935   1.651  0.00  0.00    -0.202 N 
ATOM     14  H   UNL     1       0.703   7.293   1.558  0.00  0.00    +0.178 HD
BRANCH  13  15
ATOM     15  N   UNL     1       1.787   5.629   2.124  0.00  0.00    -0.187 NA
ATOM     16  C   UNL     1       0.761   4.899   2.436  0.00  0.00    +0.138 C 
BRANCH  16  17
ATOM     17  C   UNL     1       0.959   3.524   2.933  0.00  0.00    -0.002 A 
ATOM     18  C   UNL     1       2.249   3.006   3.069  0.00  0.00    +0.010 A 
ATOM     19  C   UNL     1       2.430   1.720   3.534  0.00  0.00    +0.004 A 
ATOM     20  C   UNL     1       1.337   0.940   3.866  0.00  0.00    +0.045 A 
ATOM     21  C   UNL     1       0.051   1.444   3.730  0.00  0.00    +0.117 A 
ATOM     22  C   UNL     1      -0.143   2.736   3.270  0.00  0.00    +0.054 A 
BRANCH  21  23
ATOM     23  O   UNL     1      -1.019   0.671   4.053  0.00  0.00    -0.507 OA
ATOM     24  H   UNL     1      -1.298   0.750   4.976  0.00  0.00    +0.292 HD
ENDBRANCH  21  23
ENDBRANCH  16  17
ENDBRANCH  13  15
ENDBRANCH   6  11
BRANCH   1  25
ATOM     25  C   UNL     1       7.109  11.053   0.113  0.00  0.00    +0.010 C 
BRANCH  25  27
ATOM     26  C   UNL     1       7.617  12.485   2.096  0.00  0.00    +0.010 C 
ATOM     27  C   UNL     1       7.834  12.312   0.592  0.00  0.00    -0.037 C 
ATOM     28  C   UNL     1       9.331  12.178   0.304  0.00  0.00    +0.010 C 
ATOM     29  C   UNL     1       7.280  13.531  -0.147  0.00  0.00    +0.010 C 
ENDBRANCH  25  27
ENDBRANCH   1  25
TORSDOF 6
