REMARK  Name = ZINC65273474
REMARK  5 active torsions:
REMARK  status: ('A' for Active; 'I' for Inactive)
REMARK    1  A    between atoms: C_1  and  C_2
REMARK    2  A    between atoms: C_2  and  C_3
REMARK    3  A    between atoms: C_17  and  C_21
REMARK    4  A    between atoms: N_23  and  C_24
REMARK    5  A    between atoms: C_29  and  C_30
REMARK                            x       y       z     vdW  Elec       q    Type
REMARK                         _______ _______ _______ _____ _____    ______ ____
ROOT
ATOM      1  C   UNL     1      -1.359  -0.543  -0.065  0.00  0.00    +0.215 C 
ATOM      2  O   UNL     1      -2.288   0.236  -0.057  0.00  0.00    -0.276 OA
ATOM      3  N   UNL     1      -1.593  -1.871  -0.061  0.00  0.00    -0.298 N 
ATOM      4  C   UNL     1      -0.477  -2.827  -0.065  0.00  0.00    +0.126 C 
ATOM      5  C   UNL     1      -0.639  -3.773   1.132  0.00  0.00    +0.126 C 
ATOM      6  N   UNL     1      -2.014  -4.289   1.140  0.00  0.00    -0.307 N 
ATOM      7  C   UNL     1      -3.130  -3.333   1.144  0.00  0.00    +0.126 C 
ATOM      8  C   UNL     1      -2.969  -2.387  -0.048  0.00  0.00    +0.126 C 
ATOM      9  C   UNL     1      -2.255  -5.654   1.144  0.00  0.00    +0.161 A 
ATOM     10  N   UNL     1      -1.383  -6.638   1.147  0.00  0.00    -0.229 NA
ATOM     11  C   UNL     1      -1.762  -7.914   1.152  0.00  0.00    +0.054 A 
ATOM     12  C   UNL     1      -3.105  -8.111   1.152  0.00  0.00    +0.015 A 
ATOM     13  S   UNL     1      -3.738  -6.456   1.154  0.00  0.00    -0.057 S 
ATOM     14  C   UNL     1      -3.837  -9.410   1.154  0.00  0.00    +0.057 C 
ATOM     15  C   UNL     1      -2.841 -10.522   0.786  0.00  0.00    +0.080 C 
ATOM     16  C   UNL     1      -1.570 -10.342   1.621  0.00  0.00    +0.019 C 
ATOM     17  C   UNL     1      -0.807  -9.099   1.158  0.00  0.00    +0.057 C 
ENDROOT
BRANCH  15  18
ATOM     18  C   UNL     1      -3.455 -11.867   1.079  0.00  0.00    +0.221 C 
ATOM     19  O   UNL     1      -2.923 -12.617   1.869  0.00  0.00    -0.275 OA
ATOM     20  N   UNL     1      -4.595 -12.235   0.462  0.00  0.00    -0.285 N 
ATOM     21  H   UNL     1      -5.063 -11.606  -0.109  0.00  0.00    +0.155 HD
BRANCH  20  22
ATOM     22  C   UNL     1      -5.103 -13.527   0.644  0.00  0.00    +0.036 A 
ATOM     23  C   UNL     1      -4.252 -14.566   0.996  0.00  0.00    +0.025 A 
ATOM     24  C   UNL     1      -4.756 -15.839   1.175  0.00  0.00    +0.022 A 
ATOM     25  C   UNL     1      -6.108 -16.080   1.004  0.00  0.00    +0.041 A 
ATOM     26  C   UNL     1      -6.958 -15.046   0.653  0.00  0.00    +0.025 A 
ATOM     27  C   UNL     1      -6.460 -13.770   0.478  0.00  0.00    -0.028 A 
ATOM     28  C   UNL     1      -7.388 -12.643   0.102  0.00  0.00    +0.046 C 
ATOM     29 CL   UNL     1      -6.738 -17.682   1.229  0.00  0.00    -0.084 Cl
ENDBRANCH  20  22
ENDBRANCH  15  18
BRANCH   1  31
ATOM     30  C   UNL     1       0.043   1.502  -0.081  0.00  0.00    +0.013 C 
ATOM     31  C   UNL     1       0.057  -0.028  -0.080  0.00  0.00    +0.092 C 
ENDBRANCH   1  31
TORSDOF 3
