REMARK  Name = ZINC39440271
REMARK  8 active torsions:
REMARK  status: ('A' for Active; 'I' for Inactive)
REMARK    1  A    between atoms: C_1  and  C_2
REMARK    2  A    between atoms: C_2  and  C_23
REMARK    3  A    between atoms: N_9  and  C_22
REMARK    4  A    between atoms: C_11  and  C_12
REMARK    5  A    between atoms: C_13  and  C_14
REMARK    6  A    between atoms: C_15  and  C_16
REMARK    7  A    between atoms: C_17  and  C_18
REMARK    8  A    between atoms: C_17  and  C_20
REMARK                            x       y       z     vdW  Elec       q    Type
REMARK                         _______ _______ _______ _____ _____    ______ ____
ROOT
ATOM      1  C   UNL     1       0.050   1.435   0.060  0.00  0.00    +0.022 C 
ATOM      2  C   UNL     1      -0.042  -0.092   0.063  0.00  0.00    +0.030 C 
ATOM      3  C   UNL     1      -1.487  -0.535   0.055  0.00  0.00    -0.015 A 
ATOM      4  C   UNL     1      -2.515  -0.345  -0.842  0.00  0.00    +0.006 A 
ATOM      5  C   UNL     1      -3.765  -0.880  -0.584  0.00  0.00    +0.000 A 
ATOM      6  C   UNL     1      -3.978  -1.603   0.576  0.00  0.00    +0.002 A 
ATOM      7  C   UNL     1      -2.951  -1.795   1.476  0.00  0.00    +0.024 A 
ATOM      8  C   UNL     1      -1.689  -1.260   1.223  0.00  0.00    +0.038 A 
ATOM      9  N   UNL     1      -0.513  -1.318   1.968  0.00  0.00    -0.306 N 
ATOM     10  C   UNL     1       0.510  -0.654   1.356  0.00  0.00    +0.021 C 
ATOM     11  C   UNL     1       1.779  -0.522   1.818  0.00  0.00    +0.020 C 
ATOM     12  C   UNL     1      -0.390  -2.008   3.254  0.00  0.00    +0.135 C 
ATOM     13  C   UNL     1       0.707  -0.675  -1.137  0.00  0.00    +0.022 C 
ENDROOT
BRANCH  11  14
ATOM     14  C   UNL     1       2.184  -1.222   2.964  0.00  0.00    +0.002 C 
ATOM     15  C   UNL     1       3.435  -1.001   3.501  0.00  0.00    +0.000 C 
BRANCH  15  16
ATOM     16  C   UNL     1       3.838  -1.697   4.641  0.00  0.00    +0.000 C 
ATOM     17  C   UNL     1       5.093  -1.475   5.180  0.00  0.00    +0.002 C 
BRANCH  17  18
ATOM     18  C   UNL     1       5.495  -2.169   6.316  0.00  0.00    +0.030 C 
ATOM     19  C   UNL     1       6.761  -1.945   6.859  0.00  0.00    +0.128 C 
BRANCH  19  20
ATOM     20  C   UNL     1       7.646  -1.000   6.246  0.00  0.00    +0.110 C 
ATOM     21  N   UNL     1       8.348  -0.251   5.760  0.00  0.00    -0.190 NA
ENDBRANCH  19  20
BRANCH  19  22
ATOM     22  C   UNL     1       7.175  -2.659   8.029  0.00  0.00    +0.110 C 
ATOM     23  N   UNL     1       7.503  -3.226   8.957  0.00  0.00    -0.190 NA
ENDBRANCH  19  22
ENDBRANCH  17  18
ENDBRANCH  15  16
ENDBRANCH  11  14
TORSDOF 5
