REMARK  Name = ZINC63598094
REMARK  4 active torsions:
REMARK  status: ('A' for Active; 'I' for Inactive)
REMARK    1  A    between atoms: C_1  and  C_2
REMARK    2  A    between atoms: C_8  and  C_10
REMARK    3  A    between atoms: C_10  and  C_11
REMARK    4  A    between atoms: C_11  and  C_12
REMARK                            x       y       z     vdW  Elec       q    Type
REMARK                         _______ _______ _______ _____ _____    ______ ____
ROOT
ATOM      1  C   UNL     1      -0.116  -5.462   5.047  0.00  0.00    +0.124 C 
ATOM      2  N   UNL     1       1.101  -4.985   5.151  0.00  0.00    -0.161 NA
ATOM      3  C   UNL     1       1.943  -5.357   6.123  0.00  0.00    +0.271 C 
ATOM      4  O   UNL     1       3.071  -4.898   6.190  0.00  0.00    -0.268 OA
ATOM      5  C   UNL     1       1.453  -6.353   7.123  0.00  0.00    +0.071 C 
ATOM      6  C   UNL     1       2.119  -6.769   8.261  0.00  0.00    -0.042 C 
ATOM      7  C   UNL     1       3.291  -5.924   8.653  0.00  0.00    +0.033 C 
ATOM      8  C   UNL     1       2.847  -4.795   9.591  0.00  0.00    +0.004 C 
ATOM      9  C   UNL     1       2.303  -5.427  10.837  0.00  0.00    +0.000 C 
ATOM     10  C   UNL     1       1.040  -6.232  10.675  0.00  0.00    +0.001 C 
ATOM     11  C   UNL     1       1.363  -7.699  10.454  0.00  0.00    +0.019 C 
ATOM     12  C   UNL     1       1.450  -7.924   8.930  0.00  0.00    +0.079 C 
ATOM     13  S   UNL     1      -0.212  -8.002   8.181  0.00  0.00    -0.097 S 
ATOM     14  C   UNL     1       0.077  -6.821   6.887  0.00  0.00    +0.111 C 
ATOM     15  N   UNL     1      -0.628  -6.352   5.885  0.00  0.00    -0.227 NA
ENDROOT
BRANCH   1  16
ATOM     16  C   UNL     1      -0.982  -4.968   3.916  0.00  0.00    +0.083 C 
BRANCH  16  17
ATOM     17  C   UNL     1      -0.198  -3.955   3.079  0.00  0.00    +0.103 C 
BRANCH  17  25
ATOM     18  C   UNL     1      -0.019   1.526   0.010  0.00  0.00    +0.007 C 
ATOM     19  C   UNL     1       0.002  -0.004   0.002  0.00  0.00    -0.011 C 
ATOM     20  C   UNL     1      -1.434  -0.533   0.011  0.00  0.00    +0.022 C 
ATOM     21  C   UNL     1      -1.409  -2.065  -0.032  0.00  0.00    +0.108 C 
ATOM     22  N   UNL     1      -0.578  -2.556   1.075  0.00  0.00    -0.301 N 
ATOM     23  C   UNL     1       0.791  -2.042   1.212  0.00  0.00    +0.108 C 
ATOM     24  C   UNL     1       0.742  -0.511   1.242  0.00  0.00    +0.022 C 
ATOM     25  C   UNL     1      -1.063  -3.461   1.948  0.00  0.00    +0.216 C 
ATOM     26  O   UNL     1      -2.195  -3.878   1.824  0.00  0.00    -0.276 OA
ENDBRANCH  17  25
ENDBRANCH  16  17
ENDBRANCH   1  16
TORSDOF 3
