REMARK  Name = ZINC58666548
REMARK  4 active torsions:
REMARK  status: ('A' for Active; 'I' for Inactive)
REMARK    1  A    between atoms: C_1  and  C_2
REMARK    2  A    between atoms: C_5  and  S_9
REMARK    3  A    between atoms: S_9  and  N_12
REMARK    4  A    between atoms: C_16  and  C_18
REMARK                            x       y       z     vdW  Elec       q    Type
REMARK                         _______ _______ _______ _____ _____    ______ ____
ROOT
ATOM      1  N   UNL     1       1.210  -5.039   0.781  0.00  0.00    -0.169 NA
ATOM      2  C   UNL     1       2.418  -5.084  -0.062  0.00  0.00    +0.110 C 
ATOM      3  C   UNL     1       3.450  -5.890   0.765  0.00  0.00    +0.019 C 
ATOM      4  C   UNL     1       3.140  -5.406   2.206  0.00  0.00    +0.027 C 
ATOM      5  C   UNL     1       1.609  -5.210   2.186  0.00  0.00    +0.110 C 
ENDROOT
BRANCH   5   6
ATOM      6  C   UNL     1       1.236  -3.984   2.978  0.00  0.00    -0.025 A 
ATOM      7  C   UNL     1       1.525  -2.727   2.481  0.00  0.00    +0.009 A 
ATOM      8  C   UNL     1       1.186  -1.599   3.205  0.00  0.00    +0.050 A 
ATOM      9  C   UNL     1       0.553  -1.727   4.433  0.00  0.00    +0.162 A 
ATOM     10  C   UNL     1       0.260  -2.991   4.931  0.00  0.00    +0.162 A 
ATOM     11  C   UNL     1       0.600  -4.117   4.197  0.00  0.00    +0.054 A 
ATOM     12  O   UNL     1      -0.368  -3.138   6.130  0.00  0.00    -0.485 OA
ATOM     13  C   UNL     1      -0.362  -2.003   7.003  0.00  0.00    +0.270 C 
ATOM     14  C   UNL     1      -0.738  -0.763   6.181  0.00  0.00    +0.270 C 
ATOM     15  O   UNL     1       0.228  -0.608   5.136  0.00  0.00    -0.485 OA
ENDBRANCH   5   6
BRANCH   1  16
ATOM     16  S   UNL     1      -0.340  -4.823   0.238  0.00  0.00    +0.062 S 
ATOM     17  O   UNL     1      -0.239  -4.369  -1.105  0.00  0.00    -0.153 OA
ATOM     18  O   UNL     1      -1.023  -4.086   1.242  0.00  0.00    -0.153 OA
BRANCH  16  23
ATOM     19  C   UNL     1      -2.933 -10.267   0.026  0.00  0.00    +0.044 C 
ATOM     20  C   UNL     1      -2.285  -8.908   0.079  0.00  0.00    -0.049 A 
ATOM     21  C   UNL     1      -2.701  -7.980   1.015  0.00  0.00    +0.005 A 
ATOM     22  C   UNL     1      -2.106  -6.733   1.064  0.00  0.00    +0.030 A 
ATOM     23  C   UNL     1      -1.096  -6.413   0.176  0.00  0.00    +0.119 A 
ATOM     24  C   UNL     1      -0.680  -7.341  -0.761  0.00  0.00    +0.044 A 
ATOM     25  C   UNL     1      -1.271  -8.591  -0.806  0.00  0.00    +0.020 A 
ATOM     26 BR   UNL     1       0.702  -6.904  -1.976  0.00  0.00    -0.048 Br
ENDBRANCH  16  23
ENDBRANCH   1  16
TORSDOF 3
