REMARK  Name = ZINC39452438
REMARK  6 active torsions:
REMARK  status: ('A' for Active; 'I' for Inactive)
REMARK    1  A    between atoms: C_1  and  O_2
REMARK    2  A    between atoms: O_2  and  N_3
REMARK    3  A    between atoms: C_12  and  C_18
REMARK    4  A    between atoms: C_18  and  C_19
REMARK    5  A    between atoms: C_26  and  C_31
REMARK    6  A    between atoms: C_31  and  C_32
REMARK                            x       y       z     vdW  Elec       q    Type
REMARK                         _______ _______ _______ _____ _____    ______ ____
ROOT
ATOM      1  N   UNL     1      -1.284  -0.598   0.011  0.00  0.00    -0.139 N 
ATOM      2  C   UNL     1      -1.884  -0.880   1.233  0.00  0.00    +0.149 A 
ATOM      3  C   UNL     1      -3.139  -1.453   1.293  0.00  0.00    +0.085 A 
ATOM      4  C   UNL     1      -3.857  -1.780   0.048  0.00  0.00    +0.100 A 
ATOM      5  C   UNL     1      -3.219  -1.482  -1.185  0.00  0.00    +0.070 A 
ATOM      6  C   UNL     1      -1.884  -0.863  -1.162  0.00  0.00    +0.293 A 
ATOM      7  O   UNL     1      -1.321  -0.595  -2.207  0.00  0.00    -0.264 OA
ATOM      8  C   UNL     1      -3.852  -1.767  -2.386  0.00  0.00    +0.025 A 
ATOM      9  C   UNL     1      -5.127  -2.352  -2.332  0.00  0.00    +0.005 A 
ATOM     10  C   UNL     1      -5.846  -2.673  -3.495  0.00  0.00    -0.034 A 
ATOM     11  C   UNL     1      -7.079  -3.240  -3.383  0.00  0.00    +0.004 A 
ATOM     12  C   UNL     1      -7.646  -3.510  -2.141  0.00  0.00    +0.002 A 
ATOM     13  C   UNL     1      -6.999  -3.222  -0.979  0.00  0.00    +0.028 A 
ATOM     14  C   UNL     1      -5.721  -2.634  -1.023  0.00  0.00    +0.072 A 
ATOM     15  N   UNL     1      -5.055  -2.333   0.091  0.00  0.00    -0.245 NA
ATOM     16  N   UNL     1      -3.720  -1.713   2.519  0.00  0.00    -0.337 N 
ATOM     17  C   UNL     1      -3.319  -0.889   3.670  0.00  0.00    +0.082 C 
ATOM     18  C   UNL     1      -1.790  -0.917   3.769  0.00  0.00    +0.104 C 
ATOM     19  C   UNL     1      -1.196  -0.570   2.429  0.00  0.00    +0.186 C 
ATOM     20  O   UNL     1      -0.115  -0.019   2.375  0.00  0.00    -0.290 OA
ATOM     21  H   UNL     1      -4.377  -2.420   2.618  0.00  0.00    +0.146 HD
ENDROOT
BRANCH   1  23
ATOM     22  C   UNL     1      -0.017   1.425   0.010  0.00  0.00    +0.311 C 
ATOM     23  O   UNL     1       0.002  -0.004   0.002  0.00  0.00    -0.411 OA
ENDBRANCH   1  23
BRANCH  10  24
ATOM     24  C   UNL     1      -5.259  -2.392  -4.854  0.00  0.00    +0.071 C 
BRANCH  24  25
ATOM     25  C   UNL     1      -4.370  -3.538  -5.264  0.00  0.00    -0.043 A 
ATOM     26  C   UNL     1      -3.029  -3.525  -4.931  0.00  0.00    +0.004 A 
ATOM     27  C   UNL     1      -2.214  -4.577  -5.308  0.00  0.00    +0.000 A 
ATOM     28  C   UNL     1      -2.740  -5.640  -6.016  0.00  0.00    +0.000 A 
ATOM     29  C   UNL     1      -4.082  -5.653  -6.348  0.00  0.00    +0.000 A 
ATOM     30  C   UNL     1      -4.898  -4.604  -5.968  0.00  0.00    +0.004 A 
ENDBRANCH  24  25
ENDBRANCH  10  24
BRANCH  17  31
ATOM     31  C   UNL     1      -3.797   0.550   3.467  0.00  0.00    +0.057 C 
BRANCH  31  32
ATOM     32  C   UNL     1      -5.304   0.582   3.463  0.00  0.00    -0.046 A 
ATOM     33  C   UNL     1      -5.996   0.424   2.277  0.00  0.00    +0.004 A 
ATOM     34  C   UNL     1      -7.378   0.454   2.273  0.00  0.00    +0.000 A 
ATOM     35  C   UNL     1      -8.068   0.641   3.456  0.00  0.00    +0.000 A 
ATOM     36  C   UNL     1      -7.376   0.799   4.643  0.00  0.00    +0.000 A 
ATOM     37  C   UNL     1      -5.994   0.764   4.647  0.00  0.00    +0.004 A 
ENDBRANCH  31  32
ENDBRANCH  17  31
TORSDOF 5
