REMARK  Name = ZINC23328406
REMARK  12 active torsions:
REMARK  status: ('A' for Active; 'I' for Inactive)
REMARK    1  A    between atoms: C_1  and  C_2
REMARK    2  A    between atoms: C_5  and  C_33
REMARK    3  A    between atoms: C_6  and  O_8
REMARK    4  A    between atoms: O_8  and  C_9
REMARK    5  A    between atoms: C_9  and  C_10
REMARK    6  A    between atoms: C_13  and  S_16
REMARK    7  A    between atoms: N_14  and  N_15
REMARK    8  A    between atoms: S_16  and  C_17
REMARK    9  A    between atoms: C_17  and  C_18
REMARK   10  A    between atoms: C_23  and  C_32
REMARK   11  A    between atoms: C_33  and  C_34
REMARK   12  A    between atoms: C_33  and  C_35
REMARK                            x       y       z     vdW  Elec       q    Type
REMARK                         _______ _______ _______ _____ _____    ______ ____
ROOT
ATOM      1  C   UNL     1      -2.325   6.021  -6.702  0.00  0.00    +0.189 A 
ATOM      2  N   UNL     1      -2.892   4.875  -6.453  0.00  0.00    -0.128 NA
ATOM      3  N   UNL     1      -2.367   4.340  -5.409  0.00  0.00    -0.121 NA
ATOM      4  C   UNL     1      -1.434   5.128  -4.926  0.00  0.00    +0.209 A 
ATOM      5  N   UNL     1      -1.376   6.224  -5.738  0.00  0.00    -0.225 N 
ENDROOT
BRANCH   5   6
ATOM      6  N   UNL     1      -0.542   7.299  -5.613  0.00  0.00    -0.295 N 
ATOM      7  H   UNL     1       0.182   7.340  -4.787  0.00  0.00    +0.163 HD
ATOM      8  H   UNL     1      -0.596   8.123  -6.340  0.00  0.00    +0.163 HD
ENDBRANCH   5   6
BRANCH   1   9
ATOM      9  C   UNL     1      -2.653   6.952  -7.840  0.00  0.00    +0.306 C 
BRANCH   9  10
ATOM     10  O   UNL     1      -1.843   6.627  -8.971  0.00  0.00    -0.484 OA
BRANCH  10  16
ATOM     11  C   UNL     1      -4.132  10.284 -11.252  0.00  0.00    +0.044 C 
ATOM     12  C   UNL     1      -3.121   9.166 -11.241  0.00  0.00    -0.047 A 
ATOM     13  C   UNL     1      -2.368   8.904 -12.370  0.00  0.00    +0.004 A 
ATOM     14  C   UNL     1      -1.440   7.880 -12.363  0.00  0.00    +0.008 A 
ATOM     15  C   UNL     1      -1.258   7.120 -11.223  0.00  0.00    -0.003 A 
ATOM     16  C   UNL     1      -2.016   7.377 -10.091  0.00  0.00    +0.125 A 
ATOM     17  C   UNL     1      -2.947   8.405 -10.101  0.00  0.00    +0.049 A 
BRANCH  15  18
ATOM     18  C   UNL     1      -0.241   6.007 -11.214  0.00  0.00    +0.016 C 
ATOM     19  C   UNL     1      -0.594   4.984 -12.295  0.00  0.00    +0.012 C 
ATOM     20  C   UNL     1       1.149   6.584 -11.492  0.00  0.00    +0.012 C 
ENDBRANCH  15  18
ENDBRANCH  10  16
ENDBRANCH   9  10
ENDBRANCH   1   9
BRANCH   4  21
ATOM     21  S   UNL     1      -0.440   4.824  -3.503  0.00  0.00    -0.075 S 
BRANCH  21  22
ATOM     22  C   UNL     1      -1.101   3.217  -2.995  0.00  0.00    +0.173 C 
BRANCH  22  23
ATOM     23  C   UNL     1      -0.379   2.745  -1.760  0.00  0.00    +0.230 C 
ATOM     24  O   UNL     1       0.497   3.427  -1.270  0.00  0.00    -0.274 OA
ATOM     25  N   UNL     1      -0.706   1.564  -1.198  0.00  0.00    -0.270 N 
ATOM     26  C   UNL     1      -0.013   1.086   0.008  0.00  0.00    +0.115 C 
ATOM     27  C   UNL     1      -0.699   1.562   1.261  0.00  0.00    +0.033 C 
ATOM     28  C   UNL     1      -2.073   0.967   1.521  0.00  0.00    +0.050 C 
ATOM     29  S   UNL     1      -3.269   1.615   0.316  0.00  0.00    -0.120 S 
ATOM     30  C   UNL     1      -2.947   0.626  -1.124  0.00  0.00    +0.030 A 
ATOM     31  C   UNL     1      -1.715   0.762  -1.749  0.00  0.00    +0.050 A 
ATOM     32  C   UNL     1      -1.481   0.079  -2.936  0.00  0.00    +0.024 A 
ATOM     33  C   UNL     1      -2.460  -0.749  -3.455  0.00  0.00    +0.002 A 
ATOM     34  C   UNL     1      -3.668  -0.909  -2.803  0.00  0.00    +0.001 A 
ATOM     35  C   UNL     1      -3.917  -0.219  -1.627  0.00  0.00    +0.016 A 
ATOM     36  C   UNL     1      -2.526   1.335   2.935  0.00  0.00    +0.019 C 
ENDBRANCH  22  23
ENDBRANCH  21  22
ENDBRANCH   4  21
TORSDOF 8
