REMARK  Name = ZINC16682489
REMARK  13 active torsions:
REMARK  status: ('A' for Active; 'I' for Inactive)
REMARK    1  A    between atoms: C_1  and  C_2
REMARK    2  A    between atoms: C_2  and  O_3
REMARK    3  A    between atoms: O_3  and  C_4
REMARK    4  A    between atoms: C_4  and  C_6
REMARK    5  A    between atoms: C_7  and  C_36
REMARK    6  A    between atoms: C_12  and  C_14
REMARK    7  A    between atoms: C_17  and  O_22
REMARK    8  A    between atoms: C_18  and  O_20
REMARK    9  A    between atoms: O_20  and  C_21
REMARK   10  A    between atoms: O_22  and  C_23
REMARK   11  A    between atoms: C_23  and  C_24
REMARK   12  A    between atoms: N_26  and  N_27
REMARK   13  A    between atoms: C_28  and  C_29
REMARK                            x       y       z     vdW  Elec       q    Type
REMARK                         _______ _______ _______ _____ _____    ______ ____
ROOT
ATOM      1  C   UNL     1       2.946  -0.831   3.000  0.00  0.00    -0.019 A 
ATOM      2  C   UNL     1       4.062  -1.467   2.487  0.00  0.00    +0.009 A 
ATOM      3  C   UNL     1       4.978  -0.760   1.730  0.00  0.00    +0.050 A 
ATOM      4  C   UNL     1       4.779   0.589   1.485  0.00  0.00    +0.163 A 
ATOM      5  C   UNL     1       3.656   1.229   2.001  0.00  0.00    +0.162 A 
ATOM      6  C   UNL     1       2.739   0.513   2.754  0.00  0.00    +0.055 A 
ENDROOT
BRANCH   1  13
ATOM      7  C   UNL     1       1.158  -2.494   2.885  0.00  0.00    +0.078 C 
ATOM      8  C   UNL     1       1.183  -3.825   3.107  0.00  0.00    +0.021 C 
ATOM      9  N   UNL     1       1.895  -4.354   4.145  0.00  0.00    -0.273 N 
ATOM     10  C   UNL     1       2.608  -3.617   5.007  0.00  0.00    +0.304 C 
ATOM     11  O   UNL     1       3.211  -4.178   5.901  0.00  0.00    -0.252 OA
ATOM     12  N   UNL     1       2.680  -2.275   4.915  0.00  0.00    -0.288 N 
ATOM     13  C   UNL     1       1.951  -1.607   3.824  0.00  0.00    +0.144 C 
ATOM     14  C   UNL     1       0.412  -4.744   2.194  0.00  0.00    +0.061 C 
ATOM     15  H   UNL     1       1.884  -5.316   4.265  0.00  0.00    +0.156 HD
ATOM     16  H   UNL     1       3.203  -1.761   5.550  0.00  0.00    +0.151 HD
BRANCH   7  17
ATOM     17  C   UNL     1       0.420  -1.945   1.809  0.00  0.00    +0.339 C 
ATOM     18  O   UNL     1      -0.656  -1.417   2.016  0.00  0.00    -0.245 OA
BRANCH  17  19
ATOM     19  O   UNL     1       0.911  -2.008   0.554  0.00  0.00    -0.462 OA
BRANCH  19  21
ATOM     20  C   UNL     1       0.815  -1.604  -1.827  0.00  0.00    +0.048 C 
ATOM     21  C   UNL     1       0.174  -1.330  -0.465  0.00  0.00    +0.229 C 
ENDBRANCH  19  21
ENDBRANCH  17  19
ENDBRANCH   7  17
ENDBRANCH   1  13
BRANCH   5  22
ATOM     22  O   UNL     1       3.456   2.553   1.762  0.00  0.00    -0.491 OA
ATOM     23  C   UNL     1       2.326   3.162   2.390  0.00  0.00    +0.277 C 
ENDBRANCH   5  22
BRANCH   4  24
ATOM     24  O   UNL     1       5.679   1.286   0.741  0.00  0.00    -0.479 OA
BRANCH  24  25
ATOM     25  C   UNL     1       6.808   0.565   0.244  0.00  0.00    +0.326 C 
BRANCH  25  26
ATOM     26  C   UNL     1       7.688   1.494  -0.550  0.00  0.00    +0.270 C 
ATOM     27  O   UNL     1       7.380   2.660  -0.679  0.00  0.00    -0.270 OA
ATOM     28  N   UNL     1       8.819   1.030  -1.118  0.00  0.00    -0.204 N 
ATOM     29  H   UNL     1       9.066   0.097  -1.016  0.00  0.00    +0.177 HD
BRANCH  28  30
ATOM     30  N   UNL     1       9.638   1.894  -1.857  0.00  0.00    -0.188 NA
ATOM     31  C   UNL     1      10.726   1.447  -2.404  0.00  0.00    +0.138 C 
BRANCH  31  32
ATOM     32  C   UNL     1      11.588   2.357  -3.182  0.00  0.00    -0.005 A 
ATOM     33  C   UNL     1      11.238   3.701  -3.326  0.00  0.00    +0.012 A 
ATOM     34  C   UNL     1      12.047   4.547  -4.055  0.00  0.00    +0.039 A 
ATOM     35  C   UNL     1      13.207   4.065  -4.643  0.00  0.00    +0.123 A 
ATOM     36  C   UNL     1      13.559   2.732  -4.502  0.00  0.00    +0.039 A 
ATOM     37  C   UNL     1      12.760   1.878  -3.772  0.00  0.00    +0.012 A 
ATOM     38  F   UNL     1      13.996   4.898  -5.356  0.00  0.00    -0.205 F 
ENDBRANCH  31  32
ENDBRANCH  28  30
ENDBRANCH  25  26
ENDBRANCH  24  25
ENDBRANCH   4  24
TORSDOF 10
