REMARK  Name = ZINC04702836
REMARK  5 active torsions:
REMARK  status: ('A' for Active; 'I' for Inactive)
REMARK    1  A    between atoms: C_1  and  C_2
REMARK    2  A    between atoms: C_8  and  C_33
REMARK    3  A    between atoms: C_18  and  C_22
REMARK    4  A    between atoms: C_19  and  C_21
REMARK    5  A    between atoms: C_22  and  C_23
REMARK                            x       y       z     vdW  Elec       q    Type
REMARK                         _______ _______ _______ _____ _____    ______ ____
ROOT
ATOM      1  C   UNL     1       4.556  -1.706   0.082  0.00  0.00    +0.044 C 
ATOM      2  C   UNL     1       3.355  -0.796   0.078  0.00  0.00    -0.050 A 
ATOM      3  C   UNL     1       3.540   0.585   0.077  0.00  0.00    +0.005 A 
ATOM      4  C   UNL     1       2.477   1.437   0.073  0.00  0.00    +0.029 A 
ATOM      5  C   UNL     1       1.174   0.918   0.071  0.00  0.00    +0.076 A 
ATOM      6  C   UNL     1       0.986  -0.488   0.072  0.00  0.00    +0.022 A 
ATOM      7  C   UNL     1       2.104  -1.335   0.076  0.00  0.00    +0.015 A 
ATOM      8  C   UNL     1      -0.329  -0.987   0.069  0.00  0.00    +0.051 A 
ATOM      9  N   UNL     1      -1.327  -0.128   0.065  0.00  0.00    -0.219 NA
ATOM     10  C   UNL     1      -1.114   1.186   0.064  0.00  0.00    +0.222 A 
ATOM     11  N   UNL     1       0.095   1.711   0.067  0.00  0.00    -0.214 NA
ATOM     12  N   UNL     1      -2.209   2.038   0.054  0.00  0.00    -0.254 N 
ATOM     13  C   UNL     1      -2.022   3.397   0.053  0.00  0.00    +0.202 A 
ATOM     14  N   UNL     1      -3.104   4.221   0.043  0.00  0.00    -0.295 N 
ATOM     15  H   UNL     1      -4.027   3.837   0.036  0.00  0.00    +0.172 HD
ATOM     16  C   UNL     1      -2.928   5.560   0.041  0.00  0.00    +0.256 A 
ATOM     17  O   UNL     1      -3.887   6.313   0.033  0.00  0.00    -0.267 OA
ATOM     18  C   UNL     1      -1.616   6.069   0.051  0.00  0.00    +0.042 A 
ATOM     19  C   UNL     1      -0.570   5.193   0.060  0.00  0.00    +0.050 A 
ATOM     20  N   UNL     1      -0.796   3.881   0.067  0.00  0.00    -0.221 NA
ATOM     21  C   UNL     1       0.845   5.712   0.070  0.00  0.00    +0.066 C 
ATOM     22  C   UNL     1      -0.590  -2.472   0.070  0.00  0.00    +0.066 C 
ATOM     23  H   UNL     1      -3.108   1.672   0.048  0.00  0.00    +0.158 HD
ENDROOT
BRANCH  18  24
ATOM     24  C   UNL     1      -1.371   7.556   0.049  0.00  0.00    +0.078 C 
BRANCH  24  25
ATOM     25  C   UNL     1      -1.383   8.065  -1.369  0.00  0.00    -0.035 A 
ATOM     26  C   UNL     1      -1.481   7.192  -2.409  0.00  0.00    +0.004 A 
ATOM     27  C   UNL     1      -1.493   7.645  -3.727  0.00  0.00    +0.001 A 
ATOM     28  C   UNL     1      -1.409   8.973  -4.013  0.00  0.00    +0.008 A 
ATOM     29  C   UNL     1      -1.307   9.904  -2.966  0.00  0.00    -0.018 A 
ATOM     30  C   UNL     1      -1.299   9.444  -1.625  0.00  0.00    -0.014 A 
ATOM     31  C   UNL     1      -1.193  10.376  -0.578  0.00  0.00    +0.009 A 
ATOM     32  C   UNL     1      -1.107  11.703  -0.863  0.00  0.00    +0.001 A 
ATOM     33  C   UNL     1      -1.119  12.156  -2.182  0.00  0.00    +0.001 A 
ATOM     34  C   UNL     1      -1.217  11.283  -3.221  0.00  0.00    +0.008 A 
ENDBRANCH  24  25
ENDBRANCH  18  24
TORSDOF 2
