REMARK  Name = ZINC45861235
REMARK  10 active torsions:
REMARK  status: ('A' for Active; 'I' for Inactive)
REMARK    1  A    between atoms: C_1  and  C_2
REMARK    2  A    between atoms: C_2  and  C_3
REMARK    3  A    between atoms: C_3  and  C_4
REMARK    4  A    between atoms: C_4  and  C_5
REMARK    5  A    between atoms: C_5  and  C_7
REMARK    6  A    between atoms: C_5  and  N_24
REMARK    7  A    between atoms: N_9  and  C_10
REMARK    8  A    between atoms: C_10  and  C_11
REMARK    9  A    between atoms: C_11  and  C_13
REMARK   10  A    between atoms: C_11  and  N_18
REMARK                            x       y       z     vdW  Elec       q    Type
REMARK                         _______ _______ _______ _____ _____    ______ ____
ROOT
ATOM      1  C   UNL     1      -1.956  -2.829  -0.608  0.00  0.00    +0.158 C 
ENDROOT
BRANCH   1   2
ATOM      2  N   UNL     1      -2.167  -2.554  -2.031  0.00  0.00    -0.316 N 
ATOM      3  C   UNL     1      -2.710  -1.351  -2.428  0.00  0.00    +0.150 C 
ATOM      4  N   UNL     1      -3.032  -0.456  -1.548  0.00  0.00    -0.113 NA
ATOM      5  S   UNL     1      -3.645   0.837  -2.415  0.00  0.00    +0.101 S 
ATOM      6  O   UNL     1      -5.032   0.937  -2.121  0.00  0.00    -0.146 OA
ATOM      7  O   UNL     1      -2.736   1.920  -2.279  0.00  0.00    -0.146 OA
ATOM      8  C   UNL     1      -3.487   0.201  -4.062  0.00  0.00    +0.123 A 
ATOM      9  C   UNL     1      -2.924  -1.066  -3.855  0.00  0.00    +0.043 A 
ATOM     10  C   UNL     1      -2.662  -1.848  -4.989  0.00  0.00    +0.013 A 
ATOM     11  C   UNL     1      -2.950  -1.367  -6.247  0.00  0.00    +0.001 A 
ATOM     12  C   UNL     1      -3.501  -0.111  -6.420  0.00  0.00    +0.002 A 
ATOM     13  C   UNL     1      -3.776   0.674  -5.308  0.00  0.00    +0.030 A 
ATOM     14  H   UNL     1      -1.924  -3.218  -2.695  0.00  0.00    +0.148 HD
ENDBRANCH   1   2
BRANCH   1  15
ATOM     15  C   UNL     1      -1.956  -4.318  -0.379  0.00  0.00    +0.233 C 
ATOM     16  O   UNL     1      -2.115  -5.075  -1.313  0.00  0.00    -0.274 OA
ATOM     17  N   UNL     1      -1.778  -4.809   0.864  0.00  0.00    -0.315 N 
ATOM     18  H   UNL     1      -1.651  -4.203   1.611  0.00  0.00    +0.149 HD
BRANCH  17  19
ATOM     19  C   UNL     1      -1.778  -6.257   1.087  0.00  0.00    +0.096 C 
BRANCH  19  20
ATOM     20  C   UNL     1      -1.428  -6.548   2.547  0.00  0.00    +0.016 C 
BRANCH  20  21
ATOM     21  N   UNL     1      -0.132  -5.938   2.872  0.00  0.00    +0.387 N 
ATOM     22  C   UNL     1       0.883  -6.418   1.926  0.00  0.00    -0.078 C 
ATOM     23  C   UNL     1       2.217  -5.724   2.208  0.00  0.00    -0.019 C 
ATOM     24  C   UNL     1       2.660  -6.044   3.639  0.00  0.00    -0.004 C 
ATOM     25  C   UNL     1       1.561  -5.606   4.612  0.00  0.00    -0.019 C 
ATOM     26  C   UNL     1       0.251  -6.305   4.241  0.00  0.00    -0.078 C 
ATOM     27  H   UNL     1      -0.206  -4.934   2.801  0.00  0.00    -0.081 HD
ENDBRANCH  20  21
BRANCH  20  28
ATOM     28  C   UNL     1      -1.349  -8.038   2.757  0.00  0.00    +0.093 A 
ATOM     29  C   UNL     1      -2.238  -8.785   3.437  0.00  0.00    +0.043 A 
ATOM     30  C   UNL     1      -1.776 -10.121   3.383  0.00  0.00    +0.041 A 
ATOM     31  C   UNL     1      -0.633 -10.110   2.675  0.00  0.00    +0.195 A 
ATOM     32  O   UNL     1      -0.382  -8.847   2.293  0.00  0.00    -0.469 OA
ENDBRANCH  20  28
ENDBRANCH  19  20
ENDBRANCH  17  19
ENDBRANCH   1  15
BRANCH   1  33
ATOM     33  C   UNL     1      -0.612  -2.245  -0.169  0.00  0.00    +0.032 C 
BRANCH  33  34
ATOM     34  C   UNL     1      -0.657  -0.720  -0.284  0.00  0.00    +0.002 C 
BRANCH  34  36
ATOM     35  C   UNL     1       0.643   1.389   0.040  0.00  0.00    +0.004 C 
ATOM     36  C   UNL     1       0.688  -0.136   0.155  0.00  0.00    -0.003 C 
ENDBRANCH  34  36
ENDBRANCH  33  34
ENDBRANCH   1  33
TORSDOF 9
