REMARK  Name = ZINC25060500
REMARK  11 active torsions:
REMARK  status: ('A' for Active; 'I' for Inactive)
REMARK    1  A    between atoms: C_1  and  C_2
REMARK    2  A    between atoms: C_2  and  C_3
REMARK    3  A    between atoms: C_7  and  C_24
REMARK    4  A    between atoms: C_8  and  N_9
REMARK    5  A    between atoms: C_10  and  C_12
REMARK    6  A    between atoms: C_12  and  S_13
REMARK    7  A    between atoms: S_13  and  C_14
REMARK    8  A    between atoms: C_15  and  C_22
REMARK    9  A    between atoms: C_16  and  C_21
REMARK   10  A    between atoms: C_18  and  C_20
REMARK   11  A    between atoms: C_24  and  C_25
REMARK                            x       y       z     vdW  Elec       q    Type
REMARK                         _______ _______ _______ _____ _____    ______ ____
ROOT
ATOM      1  N   UNL     1       3.113   3.062   1.795  0.00  0.00    -0.284 N 
ATOM      2  C   UNL     1       4.053   3.614   2.588  0.00  0.00    +0.227 C 
ATOM      3  O   UNL     1       3.882   3.662   3.787  0.00  0.00    -0.275 OA
ATOM      4  H   UNL     1       3.245   3.063   0.703  0.00  0.00    +0.155 HD
ENDROOT
BRANCH   1  10
ATOM      5  C   UNL     1       0.710   2.939   1.998  0.00  0.00    -0.026 A 
ATOM      6  C   UNL     1      -0.416   2.372   2.562  0.00  0.00    +0.007 A 
ATOM      7  C   UNL     1      -0.290   1.346   3.479  0.00  0.00    +0.020 A 
ATOM      8  C   UNL     1       0.965   0.890   3.844  0.00  0.00    +0.046 A 
ATOM      9  C   UNL     1       2.096   1.458   3.287  0.00  0.00    -0.008 A 
ATOM     10  C   UNL     1       1.971   2.485   2.361  0.00  0.00    +0.041 A 
ATOM     11 CL   UNL     1       1.120  -0.394   5.002  0.00  0.00    -0.083 Cl
BRANCH   5  13
ATOM     12  C   UNL     1       0.608   3.474  -0.421  0.00  0.00    +0.009 C 
ATOM     13  C   UNL     1       0.570   4.054   0.994  0.00  0.00    +0.033 C 
ENDBRANCH   5  13
BRANCH   9  14
ATOM     14  C   UNL     1       3.463   0.962   3.684  0.00  0.00    +0.035 C 
ATOM     15  C   UNL     1       3.870   1.601   5.013  0.00  0.00    +0.009 C 
ENDBRANCH   9  14
ENDBRANCH   1  10
BRANCH   2  16
ATOM     16  C   UNL     1       5.315   4.173   1.983  0.00  0.00    +0.172 C 
BRANCH  16  17
ATOM     17  S   UNL     1       6.369   4.839   3.295  0.00  0.00    -0.095 S 
BRANCH  17  18
ATOM     18  C   UNL     1       7.732   5.408   2.334  0.00  0.00    +0.118 A 
ATOM     19  C   UNL     1       8.841   6.025   2.953  0.00  0.00    +0.104 A 
ATOM     20  C   UNL     1       9.891   6.455   2.138  0.00  0.00    +0.060 A 
ATOM     21  N   UNL     1       9.806   6.268   0.831  0.00  0.00    -0.236 NA
ATOM     22  C   UNL     1       8.753   5.687   0.290  0.00  0.00    +0.128 A 
ATOM     23  N   UNL     1       7.738   5.259   1.013  0.00  0.00    -0.225 NA
ATOM     24  C   UNL     1       8.712   5.500  -1.205  0.00  0.00    +0.088 C 
ATOM     25  C   UNL     1      11.102   7.120   2.739  0.00  0.00    +0.067 C 
BRANCH  19  26
ATOM     26  C   UNL     1       8.887   6.206   4.372  0.00  0.00    +0.104 C 
ATOM     27  N   UNL     1       8.924   6.350   5.499  0.00  0.00    -0.191 NA
ENDBRANCH  19  26
ENDBRANCH  17  18
ENDBRANCH  16  17
ENDBRANCH   2  16
TORSDOF 7
