REMARK  Name = ZINC21318543
REMARK  6 active torsions:
REMARK  status: ('A' for Active; 'I' for Inactive)
REMARK    1  A    between atoms: C_3  and  C_8
REMARK    2  A    between atoms: C_8  and  S_9
REMARK    3  A    between atoms: S_9  and  C_10
REMARK    4  A    between atoms: N_14  and  N_15
REMARK    5  A    between atoms: N_16  and  N_17
REMARK    6  A    between atoms: C_18  and  C_19
REMARK                            x       y       z     vdW  Elec       q    Type
REMARK                         _______ _______ _______ _____ _____    ______ ____
ROOT
ATOM      1  C   UNL     1       1.307  -0.408  -0.013  0.00  0.00    +0.210 A 
ATOM      2  N   UNL     1       2.063   0.663  -0.014  0.00  0.00    -0.119 NA
ATOM      3  N   UNL     1       1.225   1.785   0.000  0.00  0.00    -0.109 NA
ATOM      4  C   UNL     1      -0.017   1.363   0.009  0.00  0.00    +0.254 A 
ATOM      5  N   UNL     1       0.002  -0.004   0.002  0.00  0.00    -0.211 N 
ATOM      6  N   UNL     1      -1.150   2.163   0.019  0.00  0.00    -0.204 N 
ATOM      7  H   UNL     1      -2.148   1.702   0.022  0.00  0.00    +0.177 HD
ENDROOT
BRANCH   5   8
ATOM      8  N   UNL     1      -1.092  -0.822   0.008  0.00  0.00    -0.294 N 
ATOM      9  H   UNL     1      -2.103  -0.388   0.020  0.00  0.00    +0.163 HD
ATOM     10  H   UNL     1      -0.962  -1.914   0.000  0.00  0.00    +0.163 HD
ENDBRANCH   5   8
BRANCH   6  11
ATOM     11  N   UNL     1      -1.022   3.558   0.026  0.00  0.00    -0.187 NA
ATOM     12  C   UNL     1      -2.083   4.307   0.036  0.00  0.00    +0.142 C 
BRANCH  12  13
ATOM     13  C   UNL     1      -1.949   5.775   0.043  0.00  0.00    +0.044 A 
ATOM     14  C   UNL     1      -3.088   6.584   0.053  0.00  0.00    +0.033 A 
ATOM     15  C   UNL     1      -2.956   7.958   0.060  0.00  0.00    +0.043 A 
ATOM     16  C   UNL     1      -1.698   8.538   0.056  0.00  0.00    +0.044 A 
ATOM     17  C   UNL     1      -0.563   7.747   0.046  0.00  0.00    +0.090 A 
ATOM     18  C   UNL     1      -0.679   6.366   0.046  0.00  0.00    +0.206 A 
ATOM     19  O   UNL     1       0.435   5.588   0.042  0.00  0.00    -0.286 OA
ATOM     20 CL   UNL     1       1.008   8.485   0.042  0.00  0.00    -0.080 Cl
ATOM     21 CL   UNL     1      -4.371   8.963   0.072  0.00  0.00    -0.083 Cl
ENDBRANCH  12  13
ENDBRANCH   6  11
BRANCH   1  22
ATOM     22  S   UNL     1       1.874  -2.077  -0.027  0.00  0.00    -0.080 S 
BRANCH  22  23
ATOM     23  C   UNL     1       3.681  -1.926  -0.043  0.00  0.00    +0.112 C 
BRANCH  23  26
ATOM     24  C   UNL     1       5.141  -5.184  -1.273  0.00  0.00    +0.001 A 
ATOM     25  C   UNL     1       4.572  -3.924  -1.260  0.00  0.00    +0.004 A 
ATOM     26  C   UNL     1       4.300  -3.300  -0.057  0.00  0.00    -0.036 A 
ATOM     27  C   UNL     1       4.601  -3.934   1.134  0.00  0.00    +0.019 A 
ATOM     28  C   UNL     1       5.164  -5.197   1.122  0.00  0.00    +0.018 A 
ATOM     29  C   UNL     1       5.437  -5.821  -0.082  0.00  0.00    +0.015 A 
ATOM     30 BR   UNL     1       5.570  -6.068   2.751  0.00  0.00    -0.050 Br
ENDBRANCH  23  26
ENDBRANCH  22  23
ENDBRANCH   1  22
TORSDOF 6
