REMARK  Name = ZINC58474786
REMARK  6 active torsions:
REMARK  status: ('A' for Active; 'I' for Inactive)
REMARK    1  A    between atoms: C_1  and  C_2
REMARK    2  A    between atoms: C_7  and  C_15
REMARK    3  A    between atoms: N_17  and  C_18
REMARK    4  A    between atoms: C_18  and  C_19
REMARK    5  A    between atoms: N_21  and  C_22
REMARK    6  A    between atoms: C_22  and  C_23
REMARK                            x       y       z     vdW  Elec       q    Type
REMARK                         _______ _______ _______ _____ _____    ______ ____
ROOT
ATOM      1  C   UNL     1      -0.019   1.526   0.010  0.00  0.00    +0.008 C 
ATOM      2  C   UNL     1       0.002  -0.004   0.002  0.00  0.00    -0.009 C 
ATOM      3  C   UNL     1      -1.434  -0.540   0.040  0.00  0.00    +0.010 C 
ATOM      4  C   UNL     1      -1.395  -2.044  -0.220  0.00  0.00    +0.056 C 
ATOM      5  C   UNL     1      -0.412  -2.717   0.706  0.00  0.00    +0.046 A 
ATOM      6  C   UNL     1       0.578  -2.006   1.372  0.00  0.00    -0.013 A 
ATOM      7  C   UNL     1       1.466  -2.680   2.209  0.00  0.00    +0.051 A 
ATOM      8  C   UNL     1       1.318  -4.080   2.356  0.00  0.00    +0.013 A 
ATOM      9  C   UNL     1       2.170  -4.827   3.179  0.00  0.00    +0.011 A 
ATOM     10  C   UNL     1       1.989  -6.173   3.292  0.00  0.00    +0.001 A 
ATOM     11  C   UNL     1       0.967  -6.817   2.597  0.00  0.00    +0.002 A 
ATOM     12  C   UNL     1       0.122  -6.122   1.788  0.00  0.00    +0.028 A 
ATOM     13  C   UNL     1       0.279  -4.730   1.646  0.00  0.00    +0.072 A 
ATOM     14  N   UNL     1      -0.530  -4.022   0.860  0.00  0.00    -0.251 NA
ATOM     15  C   UNL     1       0.740  -0.515   1.238  0.00  0.00    +0.041 C 
ENDROOT
BRANCH   7  16
ATOM     16  C   UNL     1       2.534  -1.951   2.926  0.00  0.00    +0.245 C 
ATOM     17  O   UNL     1       2.323  -1.498   4.034  0.00  0.00    -0.270 OA
ATOM     18  N   UNL     1       3.743  -1.790   2.351  0.00  0.00    -0.303 N 
ATOM     19  H   UNL     1       3.911  -2.152   1.467  0.00  0.00    +0.150 HD
BRANCH  18  20
ATOM     20  C   UNL     1       4.801  -1.067   3.061  0.00  0.00    +0.200 C 
BRANCH  20  21
ATOM     21  C   UNL     1       6.042  -1.028   2.207  0.00  0.00    +0.230 C 
ATOM     22  O   UNL     1       6.042  -1.551   1.113  0.00  0.00    -0.274 OA
ATOM     23  N   UNL     1       7.152  -0.410   2.659  0.00  0.00    -0.305 N 
ATOM     24  H   UNL     1       7.151   0.008   3.534  0.00  0.00    +0.149 HD
BRANCH  23  25
ATOM     25  C   UNL     1       8.358  -0.372   1.829  0.00  0.00    +0.217 C 
BRANCH  25  26
ATOM     26  C   UNL     1       9.463   0.383   2.571  0.00  0.00    +0.405 C 
ATOM     27  F   UNL     1       9.747  -0.271   3.775  0.00  0.00    -0.169 F 
ATOM     28  F   UNL     1      10.616   0.420   1.778  0.00  0.00    -0.169 F 
ATOM     29  F   UNL     1       9.039   1.689   2.837  0.00  0.00    -0.169 F 
ENDBRANCH  25  26
ENDBRANCH  23  25
ENDBRANCH  20  21
ENDBRANCH  18  20
ENDBRANCH   7  16
TORSDOF 5
