REMARK  Name = ZINC09419691
REMARK  5 active torsions:
REMARK  status: ('A' for Active; 'I' for Inactive)
REMARK    1  A    between atoms: C_1  and  C_2
REMARK    2  A    between atoms: C_5  and  C_8
REMARK    3  A    between atoms: C_15  and  O_19
REMARK    4  A    between atoms: O_19  and  S_20
REMARK    5  A    between atoms: S_20  and  C_23
REMARK                            x       y       z     vdW  Elec       q    Type
REMARK                         _______ _______ _______ _____ _____    ______ ____
ROOT
ATOM      1  C   UNL     1      -2.215   6.652   0.057  0.00  0.00    +0.058 C 
ATOM      2  C   UNL     1      -1.625   5.431   0.068  0.00  0.00    +0.176 C 
ATOM      3  C   UNL     1      -2.316   4.131   0.075  0.00  0.00    +0.231 C 
ATOM      4  O   UNL     1      -3.517   3.924   0.073  0.00  0.00    -0.283 OA
ATOM      5  C   UNL     1      -1.229   3.135   0.086  0.00  0.00    +0.068 A 
ATOM      6  C   UNL     1      -1.213   1.740   0.091  0.00  0.00    +0.019 A 
ATOM      7  C   UNL     1      -0.021   1.073   0.104  0.00  0.00    +0.049 A 
ATOM      8  C   UNL     1       1.178   1.782   0.103  0.00  0.00    +0.160 A 
ATOM      9  C   UNL     1       1.177   3.167   0.093  0.00  0.00    +0.095 A 
ATOM     10  C   UNL     1      -0.027   3.861   0.084  0.00  0.00    +0.143 A 
ATOM     11  O   UNL     1      -0.294   5.185   0.074  0.00  0.00    -0.451 OA
ENDROOT
BRANCH   1  16
ATOM     12  C   UNL     1       0.996  11.399   0.487  0.00  0.00    +0.044 C 
ATOM     13  C   UNL     1       0.154  10.154   0.374  0.00  0.00    -0.050 A 
ATOM     14  C   UNL     1       0.765   8.918   0.258  0.00  0.00    +0.004 A 
ATOM     15  C   UNL     1       0.002   7.774   0.155  0.00  0.00    +0.008 A 
ATOM     16  C   UNL     1      -1.394   7.866   0.167  0.00  0.00    -0.021 A 
ATOM     17  C   UNL     1      -2.004   9.120   0.279  0.00  0.00    +0.008 A 
ATOM     18  C   UNL     1      -1.227  10.253   0.387  0.00  0.00    +0.004 A 
ENDBRANCH   1  16
BRANCH   8  19
ATOM     19  O   UNL     1       2.357   1.110   0.111  0.00  0.00    -0.342 OA
BRANCH  19  20
ATOM     20  S   UNL     1       2.899   0.793  -1.276  0.00  0.00    +0.151 S 
ATOM     21  O   UNL     1       4.006  -0.078  -1.089  0.00  0.00    -0.131 OA
ATOM     22  O   UNL     1       1.780   0.443  -2.079  0.00  0.00    -0.131 OA
BRANCH  20  23
ATOM     23  C   UNL     1       3.544   2.293  -1.938  0.00  0.00    +0.128 A 
ATOM     24  C   UNL     1       2.729   3.129  -2.678  0.00  0.00    +0.031 A 
ATOM     25  C   UNL     1       3.233   4.308  -3.193  0.00  0.00    +0.017 A 
ATOM     26  C   UNL     1       4.557   4.647  -2.978  0.00  0.00    +0.018 A 
ATOM     27  C   UNL     1       5.374   3.808  -2.242  0.00  0.00    +0.017 A 
ATOM     28  C   UNL     1       4.867   2.631  -1.722  0.00  0.00    +0.031 A 
ATOM     29 BR   UNL     1       5.249   6.257  -3.688  0.00  0.00    -0.050 Br
ENDBRANCH  20  23
ENDBRANCH  19  20
ENDBRANCH   8  19
TORSDOF 4
