REMARK  Name = ZINC08845394
REMARK  11 active torsions:
REMARK  status: ('A' for Active; 'I' for Inactive)
REMARK    1  A    between atoms: C_1  and  C_2
REMARK    2  A    between atoms: C_4  and  O_38
REMARK    3  A    between atoms: C_5  and  C_9
REMARK    4  A    between atoms: N_17  and  C_28
REMARK    5  A    between atoms: C_18  and  C_20
REMARK    6  A    between atoms: C_23  and  S_26
REMARK    7  A    between atoms: S_26  and  C_27
REMARK    8  A    between atoms: C_28  and  C_29
REMARK    9  A    between atoms: C_29  and  C_30
REMARK   10  A    between atoms: C_33  and  O_36
REMARK   11  A    between atoms: O_36  and  C_37
REMARK                            x       y       z     vdW  Elec       q    Type
REMARK                         _______ _______ _______ _____ _____    ______ ____
ROOT
ATOM      1  C   UNL     1       0.128  -4.366  -0.052  0.00  0.00    +0.102 A 
ATOM      2  C   UNL     1       0.201  -5.151   1.103  0.00  0.00    +0.035 A 
ATOM      3  C   UNL     1       0.166  -6.462   0.670  0.00  0.00    +0.126 A 
ATOM      4  N   UNL     1       0.076  -6.410  -0.692  0.00  0.00    -0.272 N 
ATOM      5  H   UNL     1       0.034  -7.182  -1.277  0.00  0.00    +0.189 HD
ATOM      6  N   UNL     1       0.051  -5.186  -1.082  0.00  0.00    -0.173 NA
ATOM      7  C   UNL     1       0.239  -7.343   1.842  0.00  0.00    +0.265 C 
ATOM      8  O   UNL     1       0.231  -8.558   1.799  0.00  0.00    -0.268 OA
ATOM      9  N   UNL     1       0.316  -6.615   2.971  0.00  0.00    -0.285 N 
ATOM     10  C   UNL     1       0.299  -5.193   2.604  0.00  0.00    +0.141 C 
ENDROOT
BRANCH   1  15
ATOM     11  C   UNL     1       0.137   1.394  -0.270  0.00  0.00    +0.045 C 
ATOM     12  C   UNL     1       0.137  -0.112  -0.215  0.00  0.00    -0.029 A 
ATOM     13  C   UNL     1       0.944  -0.832  -1.075  0.00  0.00    +0.050 A 
ATOM     14  C   UNL     1       0.947  -2.217  -1.028  0.00  0.00    +0.126 A 
ATOM     15  C   UNL     1       0.132  -2.883  -0.108  0.00  0.00    +0.045 A 
ATOM     16  C   UNL     1      -0.678  -2.149   0.754  0.00  0.00    +0.034 A 
ATOM     17  C   UNL     1      -0.668  -0.768   0.701  0.00  0.00    +0.045 A 
ATOM     18 CL   UNL     1      -1.673   0.147   1.781  0.00  0.00    -0.083 Cl
BRANCH  14  19
ATOM     19  O   UNL     1       1.740  -2.926  -1.874  0.00  0.00    -0.506 OA
ATOM     20  H   UNL     1       2.623  -3.109  -1.524  0.00  0.00    +0.292 HD
ENDBRANCH  14  19
ENDBRANCH   1  15
BRANCH  10  21
ATOM     21  C   UNL     1       1.571  -4.524   3.059  0.00  0.00    -0.022 A 
ATOM     22  C   UNL     1       2.792  -5.130   2.823  0.00  0.00    +0.007 A 
ATOM     23  C   UNL     1       3.959  -4.520   3.239  0.00  0.00    +0.015 A 
ATOM     24  C   UNL     1       3.906  -3.296   3.895  0.00  0.00    +0.008 A 
ATOM     25  C   UNL     1       2.677  -2.690   4.130  0.00  0.00    +0.015 A 
ATOM     26  C   UNL     1       1.515  -3.303   3.707  0.00  0.00    +0.007 A 
BRANCH  24  27
ATOM     27  S   UNL     1       5.392  -2.515   4.428  0.00  0.00    -0.129 S 
ATOM     28  C   UNL     1       4.825  -0.981   5.213  0.00  0.00    +0.090 C 
ENDBRANCH  24  27
ENDBRANCH  10  21
BRANCH   9  29
ATOM     29  C   UNL     1       0.403  -7.149   4.332  0.00  0.00    +0.114 C 
BRANCH  29  30
ATOM     30  C   UNL     1       1.873  -7.341   4.712  0.00  0.00    +0.054 C 
BRANCH  30  31
ATOM     31  C   UNL     1       1.961  -7.891   6.112  0.00  0.00    -0.046 A 
ATOM     32  C   UNL     1       2.030  -7.027   7.190  0.00  0.00    +0.007 A 
ATOM     33  C   UNL     1       2.112  -7.528   8.474  0.00  0.00    +0.046 A 
ATOM     34  C   UNL     1       2.125  -8.899   8.683  0.00  0.00    +0.120 A 
ATOM     35  C   UNL     1       2.056  -9.764   7.601  0.00  0.00    +0.046 A 
ATOM     36  C   UNL     1       1.969  -9.258   6.318  0.00  0.00    +0.007 A 
BRANCH  34  37
ATOM     37  O   UNL     1       2.206  -9.395   9.946  0.00  0.00    -0.495 OA
ATOM     38  C   UNL     1       2.215 -10.817  10.086  0.00  0.00    +0.277 C 
ENDBRANCH  34  37
ENDBRANCH  30  31
ENDBRANCH  29  30
ENDBRANCH   9  29
TORSDOF 8
