REMARK  Name = ZINC66939225
REMARK  8 active torsions:
REMARK  status: ('A' for Active; 'I' for Inactive)
REMARK    1  A    between atoms: C_1  and  C_2
REMARK    2  A    between atoms: C_2  and  C_3
REMARK    3  A    between atoms: C_2  and  C_4
REMARK    4  A    between atoms: C_2  and  N_18
REMARK    5  A    between atoms: C_4  and  N_5
REMARK    6  A    between atoms: N_5  and  C_6
REMARK    7  A    between atoms: C_6  and  C_8
REMARK    8  A    between atoms: C_6  and  C_15
REMARK                            x       y       z     vdW  Elec       q    Type
REMARK                         _______ _______ _______ _____ _____    ______ ____
ROOT
ATOM      1  C   UNL     1      -1.523  -0.098   0.078  0.00  0.00    +0.069 C 
ENDROOT
BRANCH   1   3
ATOM      2  C   UNL     1       0.422   1.467  -0.033  0.00  0.00    -0.009 C 
ATOM      3  C   UNL     1       0.002  -0.004   0.002  0.00  0.00    -0.058 C 
ATOM      4  C   UNL     1       0.617  -0.680   1.229  0.00  0.00    -0.009 C 
BRANCH   3   5
ATOM      5  N   UNL     1       0.473  -0.677  -1.216  0.00  0.00    +0.387 N 
ATOM      6  C   UNL     1       1.928  -0.498  -1.346  0.00  0.00    -0.073 C 
ATOM      7  C   UNL     1       2.441  -1.447  -2.429  0.00  0.00    +0.017 C 
ATOM      8  C   UNL     1       1.617  -1.286  -3.681  0.00  0.00    -0.048 A 
ATOM      9  C   UNL     1       2.115  -1.786  -4.874  0.00  0.00    +0.004 A 
ATOM     10  C   UNL     1       1.387  -1.660  -6.040  0.00  0.00    +0.000 A 
ATOM     11  C   UNL     1       0.155  -1.033  -6.017  0.00  0.00    +0.000 A 
ATOM     12  C   UNL     1      -0.341  -0.534  -4.830  0.00  0.00    +0.002 A 
ATOM     13  C   UNL     1       0.390  -0.658  -3.657  0.00  0.00    -0.061 A 
ATOM     14  C   UNL     1      -0.186  -0.092  -2.386  0.00  0.00    -0.042 C 
ATOM     15  H   UNL     1       0.257  -1.661  -1.163  0.00  0.00    -0.080 HD
ENDBRANCH   3   5
ENDBRANCH   1   3
BRANCH   1  16
ATOM     16  N   UNL     1      -1.926  -1.510   0.112  0.00  0.00    -0.303 NA
ATOM     17  H   UNL     1      -1.559  -2.010  -0.683  0.00  0.00    +0.123 HD
BRANCH  16  18
ATOM     18  C   UNL     1      -3.388  -1.639   0.186  0.00  0.00    +0.171 C 
BRANCH  18  19
ATOM     19  C   UNL     1      -3.804  -2.971  -0.382  0.00  0.00    -0.021 A 
ATOM     20  C   UNL     1      -3.056  -4.102  -0.109  0.00  0.00    +0.008 A 
ATOM     21  C   UNL     1      -3.437  -5.324  -0.629  0.00  0.00    +0.038 A 
ATOM     22  C   UNL     1      -4.568  -5.417  -1.422  0.00  0.00    +0.123 A 
ATOM     23  C   UNL     1      -5.316  -4.284  -1.694  0.00  0.00    +0.038 A 
ATOM     24  C   UNL     1      -4.936  -3.063  -1.169  0.00  0.00    +0.008 A 
ATOM     25  F   UNL     1      -4.941  -6.612  -1.931  0.00  0.00    -0.205 F 
ENDBRANCH  18  19
BRANCH  18  26
ATOM     26  C   UNL     1      -3.828  -1.545   1.624  0.00  0.00    +0.232 C 
ATOM     27  O   UNL     1      -3.006  -1.387   2.501  0.00  0.00    -0.274 OA
ATOM     28  N   UNL     1      -5.136  -1.638   1.935  0.00  0.00    -0.328 N 
ATOM     29  H   UNL     1      -5.794  -1.764   1.234  0.00  0.00    +0.145 HD
ATOM     30  H   UNL     1      -5.420  -1.578   2.861  0.00  0.00    +0.145 HD
ENDBRANCH  18  26
ENDBRANCH  16  18
ENDBRANCH   1  16
TORSDOF 6
