REMARK  Name = ZINC20827751
REMARK  7 active torsions:
REMARK  status: ('A' for Active; 'I' for Inactive)
REMARK    1  A    between atoms: C_1  and  O_2
REMARK    2  A    between atoms: O_2  and  C_3
REMARK    3  A    between atoms: C_5  and  C_10
REMARK    4  A    between atoms: C_8  and  O_9
REMARK    5  A    between atoms: N_11  and  N_12
REMARK    6  A    between atoms: C_13  and  C_15
REMARK    7  A    between atoms: C_17  and  N_23
REMARK                            x       y       z     vdW  Elec       q    Type
REMARK                         _______ _______ _______ _____ _____    ______ ____
ROOT
ATOM      1  N   UNL     1      -2.540   4.098   0.036  0.00  0.00    -0.202 N 
ATOM      2  C   UNL     1      -2.556   5.446   0.044  0.00  0.00    +0.283 C 
ATOM      3  O   UNL     1      -1.510   6.067   0.042  0.00  0.00    -0.267 OA
ATOM      4  H   UNL     1      -3.486   3.537   0.038  0.00  0.00    +0.178 HD
ENDROOT
BRANCH   2   5
ATOM      5  C   UNL     1      -3.846   6.170   0.054  0.00  0.00    +0.149 A 
ATOM      6  C   UNL     1      -3.855   7.562   0.067  0.00  0.00    +0.094 A 
ATOM      7  C   UNL     1      -5.080   8.230   0.070  0.00  0.00    +0.067 A 
ATOM      8  C   UNL     1      -6.249   7.470   0.072  0.00  0.00    +0.100 A 
ATOM      9  C   UNL     1      -6.157   6.087   0.064  0.00  0.00    +0.150 A 
ATOM     10  N   UNL     1      -4.986   5.486   0.055  0.00  0.00    -0.228 NA
ATOM     11 CL   UNL     1      -7.608   5.134   0.066  0.00  0.00    -0.060 Cl
ATOM     12 CL   UNL     1      -7.801   8.246   0.083  0.00  0.00    -0.078 Cl
ATOM     13 CL   UNL     1      -2.366   8.454   0.073  0.00  0.00    -0.079 Cl
BRANCH   7  14
ATOM     14  N   UNL     1      -5.135   9.623   0.078  0.00  0.00    -0.356 N 
ATOM     15  H   UNL     1      -6.108  10.135   0.081  0.00  0.00    +0.142 HD
ATOM     16  H   UNL     1      -4.204  10.209   0.082  0.00  0.00    +0.142 HD
ENDBRANCH   7  14
ENDBRANCH   2   5
BRANCH   1  18
ATOM     17  C   UNL     1      -1.302   2.115   0.020  0.00  0.00    +0.138 C 
ATOM     18  N   UNL     1      -1.318   3.413   0.027  0.00  0.00    -0.187 NA
BRANCH  17  21
ATOM     19  C   UNL     1       1.210  -0.675  -0.013  0.00  0.00    +0.162 A 
ATOM     20  C   UNL     1       0.002  -0.004   0.002  0.00  0.00    +0.058 A 
ATOM     21  C   UNL     1      -0.017   1.393   0.010  0.00  0.00    -0.002 A 
ATOM     22  C   UNL     1       1.186   2.105   0.002  0.00  0.00    +0.013 A 
ATOM     23  C   UNL     1       2.387   1.428  -0.013  0.00  0.00    +0.050 A 
ATOM     24  C   UNL     1       2.405   0.041  -0.021  0.00  0.00    +0.158 A 
BRANCH  19  26
ATOM     25  C   UNL     1      -0.030  -2.705  -0.011  0.00  0.00    +0.277 C 
ATOM     26  O   UNL     1       1.232  -2.035  -0.020  0.00  0.00    -0.491 OA
ENDBRANCH  19  26
BRANCH  24  27
ATOM     27  O   UNL     1       3.592  -0.622  -0.036  0.00  0.00    -0.503 OA
ATOM     28  H   UNL     1       4.537  -0.058  -0.042  0.00  0.00    +0.292 HD
ENDBRANCH  24  27
ENDBRANCH  17  21
ENDBRANCH   1  18
TORSDOF 6
