REMARK  Name = ZINC62849976
REMARK  3 active torsions:
REMARK  status: ('A' for Active; 'I' for Inactive)
REMARK    1  A    between atoms: C_1  and  C_2
REMARK    2  A    between atoms: C_2  and  C_3
REMARK    3  A    between atoms: C_3  and  C_9
REMARK                            x       y       z     vdW  Elec       q    Type
REMARK                         _______ _______ _______ _____ _____    ______ ____
ROOT
ATOM      1  C   UNL     1       2.077  -0.094   1.358  0.00  0.00    +0.225 C 
ATOM      2  O   UNL     1       3.014  -0.856   1.250  0.00  0.00    -0.275 OA
ATOM      3  N   UNL     1       2.297   1.216   1.588  0.00  0.00    -0.264 N 
ATOM      4  C   UNL     1       3.591   1.676   1.801  0.00  0.00    +0.165 A 
ATOM      5  N   UNL     1       4.709   0.992   1.810  0.00  0.00    -0.229 NA
ATOM      6  C   UNL     1       5.896   1.573   2.031  0.00  0.00    +0.054 A 
ATOM      7  C   UNL     1       5.843   2.909   2.244  0.00  0.00    +0.014 A 
ATOM      8  S   UNL     1       4.105   3.250   2.104  0.00  0.00    -0.057 S 
ATOM      9  C   UNL     1       7.199   3.496   2.489  0.00  0.00    +0.045 C 
ATOM     10  C   UNL     1       8.095   2.283   2.827  0.00  0.00    +0.011 C 
ATOM     11  C   UNL     1       7.356   1.134   2.111  0.00  0.00    +0.056 C 
ATOM     12  H   UNL     1       1.552   1.837   1.603  0.00  0.00    +0.157 HD
ENDROOT
BRANCH   1  13
ATOM     13  C   UNL     1       0.667  -0.612   1.236  0.00  0.00    +0.044 C 
ATOM     14  C   UNL     1      -0.145  -0.182   2.462  0.00  0.00    -0.003 C 
ATOM     15  C   UNL     1       0.459  -0.817   3.716  0.00  0.00    -0.082 C 
ATOM     16  N   UNL     1       0.426  -2.279   3.593  0.00  0.00    +0.379 N 
ATOM     17  C   UNL     1       1.261  -2.703   2.463  0.00  0.00    -0.082 C 
ATOM     18  C   UNL     1       0.688  -2.141   1.161  0.00  0.00    -0.003 C 
ATOM     19  H   UNL     1       0.776  -2.695   4.443  0.00  0.00    -0.086 HD
ATOM     20  H   UNL     1      -0.524  -2.581   3.439  0.00  0.00    -0.086 HD
BRANCH  13  22
ATOM     21  C   UNL     1       0.778  -0.554  -1.259  0.00  0.00    +0.005 C 
ATOM     22  C   UNL     1       0.022  -0.045  -0.030  0.00  0.00    +0.012 C 
ENDBRANCH  13  22
ENDBRANCH   1  13
TORSDOF 2
