REMARK  Name = ZINC40041010
REMARK  9 active torsions:
REMARK  status: ('A' for Active; 'I' for Inactive)
REMARK    1  A    between atoms: C_1  and  C_2
REMARK    2  A    between atoms: C_2  and  C_3
REMARK    3  A    between atoms: C_17  and  C_19
REMARK    4  A    between atoms: C_22  and  S_25
REMARK    5  A    between atoms: S_25  and  C_26
REMARK    6  A    between atoms: C_30  and  C_32
REMARK    7  A    between atoms: C_32  and  C_33
REMARK    8  A    between atoms: C_33  and  C_34
REMARK    9  A    between atoms: C_33  and  C_35
REMARK                            x       y       z     vdW  Elec       q    Type
REMARK                         _______ _______ _______ _____ _____    ______ ____
ROOT
ATOM      1  C   UNL     1       0.707  -0.490  -1.238  0.00  0.00    -0.047 A 
ATOM      2  C   UNL     1      -0.016  -0.719  -2.400  0.00  0.00    +0.007 A 
ATOM      3  C   UNL     1       0.609  -1.165  -3.543  0.00  0.00    +0.047 A 
ATOM      4  C   UNL     1       1.985  -1.393  -3.544  0.00  0.00    +0.139 A 
ATOM      5  C   UNL     1       2.707  -1.153  -2.364  0.00  0.00    +0.065 A 
ATOM      6  C   UNL     1       2.058  -0.699  -1.216  0.00  0.00    +0.019 A 
ATOM      7  C   UNL     1       4.175  -1.378  -2.359  0.00  0.00    +0.199 A 
ATOM      8  O   UNL     1       4.850  -1.358  -1.345  0.00  0.00    -0.287 OA
ATOM      9  C   UNL     1       4.734  -1.627  -3.691  0.00  0.00    +0.072 A 
ATOM     10  C   UNL     1       3.921  -1.838  -4.769  0.00  0.00    +0.199 A 
ATOM     11  O   UNL     1       2.577  -1.839  -4.675  0.00  0.00    -0.450 OA
ATOM     12  C   UNL     1       4.769  -2.048  -5.954  0.00  0.00    +0.289 C 
ATOM     13  O   UNL     1       4.356  -2.259  -7.077  0.00  0.00    -0.266 OA
ATOM     14  N   UNL     1       6.072  -1.973  -5.612  0.00  0.00    -0.230 N 
ATOM     15  C   UNL     1       6.148  -1.705  -4.166  0.00  0.00    +0.151 C 
ATOM     16  C   UNL     1       7.151  -2.122  -6.472  0.00  0.00    +0.191 A 
ATOM     17  N   UNL     1       8.453  -2.070  -6.225  0.00  0.00    -0.125 NA
ATOM     18  N   UNL     1       9.310  -2.229  -7.136  0.00  0.00    -0.145 NA
ATOM     19  C   UNL     1       8.969  -2.457  -8.389  0.00  0.00    +0.104 A 
ATOM     20  S   UNL     1       7.185  -2.446  -8.233  0.00  0.00    -0.035 S 
ENDROOT
BRANCH  15  21
ATOM     21  C   UNL     1       6.853  -0.397  -3.916  0.00  0.00    -0.022 A 
ATOM     22  C   UNL     1       6.661   0.666  -4.780  0.00  0.00    +0.007 A 
ATOM     23  C   UNL     1       7.305   1.867  -4.554  0.00  0.00    +0.015 A 
ATOM     24  C   UNL     1       8.148   2.006  -3.458  0.00  0.00    +0.008 A 
ATOM     25  C   UNL     1       8.338   0.936  -2.592  0.00  0.00    +0.015 A 
ATOM     26  C   UNL     1       7.686  -0.260  -2.821  0.00  0.00    +0.007 A 
BRANCH  24  27
ATOM     27  S   UNL     1       8.973   3.535  -3.167  0.00  0.00    -0.129 S 
ATOM     28  C   UNL     1       9.934   3.235  -1.658  0.00  0.00    +0.090 C 
ENDBRANCH  24  27
ENDBRANCH  15  21
BRANCH   1  30
ATOM     29  C   UNL     1      -0.019   1.526   0.010  0.00  0.00    +0.009 C 
ATOM     30  C   UNL     1       0.002  -0.004   0.002  0.00  0.00    +0.032 C 
ENDBRANCH   1  30
BRANCH  19  31
ATOM     31  C   UNL     1       9.833  -2.671  -9.605  0.00  0.00    +0.068 C 
BRANCH  31  32
ATOM     32  C   UNL     1      10.133  -4.163  -9.761  0.00  0.00    -0.011 C 
ATOM     33  C   UNL     1       8.833  -4.917 -10.050  0.00  0.00    +0.007 C 
ATOM     34  C   UNL     1      11.111  -4.369 -10.920  0.00  0.00    +0.007 C 
ENDBRANCH  31  32
ENDBRANCH  19  31
TORSDOF 5
