REMARK  Name = ZINC12599889
REMARK  6 active torsions:
REMARK  status: ('A' for Active; 'I' for Inactive)
REMARK    1  A    between atoms: C_5  and  O_24
REMARK    2  A    between atoms: C_6  and  C_7
REMARK    3  A    between atoms: C_7  and  O_9
REMARK    4  A    between atoms: O_9  and  C_10
REMARK    5  A    between atoms: C_10  and  C_11
REMARK    6  A    between atoms: N_13  and  C_14
REMARK                            x       y       z     vdW  Elec       q    Type
REMARK                         _______ _______ _______ _____ _____    ______ ____
ROOT
ATOM      1  C   UNL     1      -6.517   0.837   1.080  0.00  0.00    +0.328 C 
ENDROOT
BRANCH   1   2
ATOM      2  C   UNL     1      -5.103   1.358   1.069  0.00  0.00    +0.251 C 
ATOM      3  O   UNL     1      -4.707   2.056   1.979  0.00  0.00    -0.272 OA
ATOM      4  N   UNL     1      -4.279   1.049   0.049  0.00  0.00    -0.307 N 
ATOM      5  H   UNL     1      -4.595   0.491  -0.679  0.00  0.00    +0.149 HD
BRANCH   4   6
ATOM      6  C   UNL     1      -2.904   1.556   0.038  0.00  0.00    +0.035 C 
ATOM      7  C   UNL     1      -2.188   1.063  -1.221  0.00  0.00    +0.029 C 
ATOM      8  C   UNL     1      -0.753   1.593  -1.232  0.00  0.00    -0.008 C 
ATOM      9  C   UNL     1      -0.013   1.086   0.008  0.00  0.00    +0.007 C 
ATOM     10  C   UNL     1      -0.729   1.579   1.267  0.00  0.00    -0.008 C 
ATOM     11  C   UNL     1      -2.164   1.050   1.278  0.00  0.00    +0.029 C 
ATOM     12  C   UNL     1      -0.750   3.109   1.275  0.00  0.00    +0.007 C 
ATOM     13  C   UNL     1      -1.490   3.616   0.036  0.00  0.00    -0.008 C 
ATOM     14  C   UNL     1      -0.773   3.123  -1.223  0.00  0.00    +0.007 C 
ATOM     15  C   UNL     1      -2.925   3.086   0.047  0.00  0.00    +0.029 C 
ENDBRANCH   4   6
ENDBRANCH   1   2
BRANCH   1  16
ATOM     16  O   UNL     1      -7.197   1.305   2.274  0.00  0.00    -0.452 OA
BRANCH  16  17
ATOM     17  C   UNL     1      -8.479   0.924   2.437  0.00  0.00    +0.343 C 
ATOM     18  O   UNL     1      -9.015   0.221   1.604  0.00  0.00    -0.245 OA
BRANCH  17  24
ATOM     19  C   UNL     1      -8.620   2.171   4.587  0.00  0.00    +0.034 A 
ATOM     20  C   UNL     1      -9.330   2.578   5.697  0.00  0.00    +0.020 A 
ATOM     21  C   UNL     1     -10.649   2.188   5.865  0.00  0.00    +0.034 A 
ATOM     22  C   UNL     1     -11.266   1.387   4.923  0.00  0.00    +0.061 A 
ATOM     23  C   UNL     1     -10.568   0.973   3.797  0.00  0.00    +0.145 A 
ATOM     24  C   UNL     1      -9.232   1.362   3.627  0.00  0.00    +0.102 A 
ATOM     25 BR   UNL     1     -13.067   0.862   5.164  0.00  0.00    -0.046 Br
ATOM     26 BR   UNL     1      -8.500   3.673   6.996  0.00  0.00    -0.050 Br
BRANCH  23  27
ATOM     27  O   UNL     1     -11.174   0.192   2.869  0.00  0.00    -0.505 OA
ATOM     28  H   UNL     1     -11.085  -0.756   3.034  0.00  0.00    +0.292 HD
ENDBRANCH  23  27
ENDBRANCH  17  24
ENDBRANCH  16  17
ENDBRANCH   1  16
TORSDOF 6
