REMARK  Name = ZINC30961653
REMARK  12 active torsions:
REMARK  status: ('A' for Active; 'I' for Inactive)
REMARK    1  A    between atoms: C_1  and  C_2
REMARK    2  A    between atoms: C_5  and  C_8
REMARK    3  A    between atoms: N_10  and  C_11
REMARK    4  A    between atoms: C_11  and  C_13
REMARK    5  A    between atoms: C_11  and  C_16
REMARK    6  A    between atoms: C_13  and  C_14
REMARK    7  A    between atoms: C_13  and  C_15
REMARK    8  A    between atoms: N_18  and  N_19
REMARK    9  A    between atoms: C_20  and  C_21
REMARK   10  A    between atoms: C_26  and  O_27
REMARK   11  A    between atoms: O_27  and  C_28
REMARK   12  A    between atoms: C_28  and  C_29
REMARK                            x       y       z     vdW  Elec       q    Type
REMARK                         _______ _______ _______ _____ _____    ______ ____
ROOT
ATOM      1  C   UNL     1      -0.223   0.206  -1.737  0.00  0.00    +0.253 C 
ATOM      2  O   UNL     1       0.001   1.100  -2.525  0.00  0.00    -0.272 OA
ATOM      3  N   UNL     1      -1.376  -0.488  -1.815  0.00  0.00    -0.205 N 
ATOM      4  H   UNL     1      -1.606  -1.260  -1.065  0.00  0.00    +0.177 HD
ENDROOT
BRANCH   3   5
ATOM      5  N   UNL     1      -2.282  -0.228  -2.852  0.00  0.00    -0.188 NA
ATOM      6  C   UNL     1      -3.446  -0.801  -2.856  0.00  0.00    +0.142 C 
BRANCH   6   7
ATOM      7  C   UNL     1      -4.024  -1.304  -1.597  0.00  0.00    +0.036 A 
ATOM      8  C   UNL     1      -3.584  -0.799  -0.371  0.00  0.00    +0.013 A 
ATOM      9  C   UNL     1      -4.126  -1.277   0.804  0.00  0.00    +0.001 A 
ATOM     10  C   UNL     1      -5.107  -2.253   0.773  0.00  0.00    +0.004 A 
ATOM     11  C   UNL     1      -5.554  -2.758  -0.433  0.00  0.00    +0.046 A 
ATOM     12  C   UNL     1      -5.021  -2.288  -1.623  0.00  0.00    +0.130 A 
BRANCH  12  13
ATOM     13  O   UNL     1      -5.460  -2.784  -2.809  0.00  0.00    -0.487 OA
BRANCH  13  14
ATOM     14  C   UNL     1      -6.549  -3.708  -2.763  0.00  0.00    +0.264 C 
BRANCH  14  15
ATOM     15  C   UNL     1      -6.822  -4.231  -4.150  0.00  0.00    -0.009 A 
ATOM     16  C   UNL     1      -7.791  -3.634  -4.934  0.00  0.00    +0.008 A 
ATOM     17  C   UNL     1      -8.043  -4.112  -6.207  0.00  0.00    +0.022 A 
ATOM     18  C   UNL     1      -7.324  -5.189  -6.695  0.00  0.00    +0.059 A 
ATOM     19  C   UNL     1      -6.354  -5.787  -5.909  0.00  0.00    +0.060 A 
ATOM     20  C   UNL     1      -6.104  -5.307  -4.636  0.00  0.00    +0.028 A 
ATOM     21 CL   UNL     1      -5.451  -7.138  -6.521  0.00  0.00    -0.082 Cl
ATOM     22 CL   UNL     1      -7.640  -5.791  -8.293  0.00  0.00    -0.082 Cl
ENDBRANCH  14  15
ENDBRANCH  13  14
ENDBRANCH  12  13
ENDBRANCH   6   7
ENDBRANCH   3   5
BRANCH   1  23
ATOM     23  C   UNL     1       0.787  -0.129  -0.670  0.00  0.00    +0.163 C 
BRANCH  23  26
ATOM     24  C   UNL     1       2.153   1.338   0.714  0.00  0.00    +0.245 C 
ATOM     25  O   UNL     1       1.851   0.665   1.680  0.00  0.00    -0.270 OA
ATOM     26  N   UNL     1       1.721   0.989  -0.513  0.00  0.00    -0.300 N 
ATOM     27  H   UNL     1       2.069   1.542  -1.398  0.00  0.00    +0.150 HD
BRANCH  24  32
ATOM     28  C   UNL     1       5.432   6.020   1.384  0.00  0.00    +0.044 C 
ATOM     29  C   UNL     1       4.574   4.794   1.209  0.00  0.00    -0.050 A 
ATOM     30  C   UNL     1       4.141   4.091   2.319  0.00  0.00    +0.004 A 
ATOM     31  C   UNL     1       3.354   2.969   2.166  0.00  0.00    +0.013 A 
ATOM     32  C   UNL     1       2.995   2.541   0.886  0.00  0.00    +0.037 A 
ATOM     33  C   UNL     1       3.439   3.252  -0.230  0.00  0.00    +0.013 A 
ATOM     34  C   UNL     1       4.221   4.376  -0.062  0.00  0.00    +0.004 A 
ENDBRANCH  24  32
ENDBRANCH  23  26
BRANCH  23  35
ATOM     35  C   UNL     1       1.560  -1.386  -1.076  0.00  0.00    +0.012 C 
ATOM     36  C   UNL     1       2.548  -1.757   0.031  0.00  0.00    +0.009 C 
ATOM     37  C   UNL     1       0.579  -2.540  -1.292  0.00  0.00    +0.009 C 
ENDBRANCH  23  35
ENDBRANCH   1  23
TORSDOF 9
