REMARK  Name = ZINC65888555
REMARK  8 active torsions:
REMARK  status: ('A' for Active; 'I' for Inactive)
REMARK    1  A    between atoms: C_3  and  O_22
REMARK    2  A    between atoms: C_6  and  C_7
REMARK    3  A    between atoms: C_7  and  N_8
REMARK    4  A    between atoms: N_8  and  C_9
REMARK    5  A    between atoms: C_9  and  C_10
REMARK    6  A    between atoms: N_12  and  C_13
REMARK    7  A    between atoms: O_22  and  C_23
REMARK    8  A    between atoms: C_23  and  C_24
REMARK                            x       y       z     vdW  Elec       q    Type
REMARK                         _______ _______ _______ _____ _____    ______ ____
ROOT
ATOM      1  N   UNL     1      -1.714  -1.038  -1.373  0.00  0.00    +0.387 N 
ATOM      2  H   UNL     1      -1.849  -0.153  -1.837  0.00  0.00    -0.085 HD
ATOM      3  H   UNL     1      -1.013  -1.572  -1.865  0.00  0.00    -0.085 HD
ENDROOT
BRANCH   1   4
ATOM      4  C   UNL     1      -1.273  -0.806   0.009  0.00  0.00    -0.046 C 
BRANCH   4  10
ATOM      5  C   UNL     1       0.013   1.341   0.015  0.00  0.00    +0.005 A 
ATOM      6  C   UNL     1       1.202   2.044   0.007  0.00  0.00    +0.046 A 
ATOM      7  C   UNL     1       2.410   1.362  -0.017  0.00  0.00    +0.121 A 
ATOM      8  C   UNL     1       2.420  -0.025  -0.033  0.00  0.00    +0.046 A 
ATOM      9  C   UNL     1       1.228  -0.724  -0.025  0.00  0.00    +0.005 A 
ATOM     10  C   UNL     1       0.026  -0.041  -0.001  0.00  0.00    -0.064 A 
BRANCH   7  11
ATOM     11  O   UNL     1       3.581   2.052  -0.026  0.00  0.00    -0.483 OA
BRANCH  11  12
ATOM     12  C   UNL     1       4.785   1.284  -0.051  0.00  0.00    +0.342 C 
BRANCH  12  13
ATOM     13  C   UNL     1       5.991   2.226  -0.057  0.00  0.00    +0.424 C 
ATOM     14  F   UNL     1       5.968   3.020   1.094  0.00  0.00    -0.167 F 
ATOM     15  F   UNL     1       7.170   1.474  -0.082  0.00  0.00    -0.167 F 
ATOM     16  F   UNL     1       5.936   3.045  -1.190  0.00  0.00    -0.167 F 
ENDBRANCH  12  13
ENDBRANCH  11  12
ENDBRANCH   7  11
ENDBRANCH   4  10
ENDBRANCH   1   4
BRANCH   1  17
ATOM     17  C   UNL     1      -2.980  -1.784  -1.364  0.00  0.00    +0.016 C 
BRANCH  17  18
ATOM     18  C   UNL     1      -3.433  -2.022  -2.781  0.00  0.00    +0.200 C 
ATOM     19  O   UNL     1      -2.767  -1.612  -3.708  0.00  0.00    -0.278 OA
ATOM     20  N   UNL     1      -4.578  -2.692  -3.019  0.00  0.00    -0.285 N 
ATOM     21  H   UNL     1      -5.078  -3.076  -2.282  0.00  0.00    +0.155 HD
BRANCH  20  22
ATOM     22  C   UNL     1      -5.048  -2.833  -4.332  0.00  0.00    +0.072 A 
ATOM     23  C   UNL     1      -4.148  -2.975  -5.380  0.00  0.00    +0.029 A 
ATOM     24  C   UNL     1      -4.612  -3.113  -6.675  0.00  0.00    +0.043 A 
ATOM     25  C   UNL     1      -5.972  -3.112  -6.929  0.00  0.00    +0.161 A 
ATOM     26  C   UNL     1      -6.874  -2.970  -5.885  0.00  0.00    +0.195 A 
ATOM     27  C   UNL     1      -6.414  -2.837  -4.586  0.00  0.00    +0.182 A 
ATOM     28  F   UNL     1      -7.292  -2.705  -3.568  0.00  0.00    -0.200 F 
ATOM     29  F   UNL     1      -8.202  -2.968  -6.136  0.00  0.00    -0.199 F 
ATOM     30  F   UNL     1      -6.422  -3.247  -8.195  0.00  0.00    -0.202 F 
ENDBRANCH  20  22
ENDBRANCH  17  18
ENDBRANCH   1  17
TORSDOF 8
