REMARK  Name = ZINC62039031
REMARK  11 active torsions:
REMARK  status: ('A' for Active; 'I' for Inactive)
REMARK    1  A    between atoms: C_1  and  C_2
REMARK    2  A    between atoms: C_6  and  C_9
REMARK    3  A    between atoms: C_12  and  C_15
REMARK    4  A    between atoms: C_15  and  C_16
REMARK    5  A    between atoms: C_15  and  C_17
REMARK    6  A    between atoms: C_18  and  S_20
REMARK    7  A    between atoms: S_20  and  C_21
REMARK    8  A    between atoms: C_21  and  C_22
REMARK    9  A    between atoms: N_24  and  C_25
REMARK   10  A    between atoms: C_27  and  N_32
REMARK   11  A    between atoms: C_30  and  O_31
REMARK                            x       y       z     vdW  Elec       q    Type
REMARK                         _______ _______ _______ _____ _____    ______ ____
ROOT
ATOM      1  C   UNL     1       0.576   1.339  -0.189  0.00  0.00    +0.088 C 
ATOM      2  C   UNL     1       0.455  -0.163  -0.179  0.00  0.00    +0.128 A 
ATOM      3  N   UNL     1       0.293  -0.805  -1.320  0.00  0.00    -0.225 NA
ATOM      4  C   UNL     1       0.185  -2.119  -1.337  0.00  0.00    +0.113 A 
ATOM      5  C   UNL     1       0.237  -2.877  -0.149  0.00  0.00    +0.047 A 
ATOM      6  C   UNL     1       0.102  -4.318  -0.332  0.00  0.00    +0.001 A 
ATOM      7  C   UNL     1      -0.057  -4.803  -1.586  0.00  0.00    +0.056 A 
ATOM      8  S   UNL     1      -0.036  -3.340  -2.604  0.00  0.00    -0.076 S 
ATOM      9  C   UNL     1       0.412  -2.127   1.045  0.00  0.00    +0.110 A 
ATOM     10  N   UNL     1       0.518  -0.809   0.971  0.00  0.00    -0.225 NA
ENDROOT
BRANCH   6  11
ATOM     11  C   UNL     1       0.140  -5.234   0.833  0.00  0.00    -0.017 A 
ATOM     12  C   UNL     1      -0.789  -5.094   1.863  0.00  0.00    +0.009 A 
ATOM     13  C   UNL     1      -0.750  -5.950   2.945  0.00  0.00    +0.004 A 
ATOM     14  C   UNL     1       0.210  -6.944   3.009  0.00  0.00    -0.045 A 
ATOM     15  C   UNL     1       1.135  -7.087   1.990  0.00  0.00    +0.004 A 
ATOM     16  C   UNL     1       1.101  -6.241   0.900  0.00  0.00    +0.009 A 
BRANCH  14  17
ATOM     17  C   UNL     1       0.249  -7.875   4.194  0.00  0.00    +0.013 C 
ATOM     18  C   UNL     1       0.056  -9.316   3.717  0.00  0.00    +0.012 C 
ATOM     19  C   UNL     1       1.601  -7.748   4.898  0.00  0.00    +0.012 C 
ENDBRANCH  14  17
ENDBRANCH   6  11
BRANCH   9  20
ATOM     20  S   UNL     1       0.495  -2.942   2.605  0.00  0.00    -0.096 S 
BRANCH  20  21
ATOM     21  C   UNL     1       0.718  -1.591   3.795  0.00  0.00    +0.171 C 
BRANCH  21  22
ATOM     22  C   UNL     1       0.805  -2.157   5.189  0.00  0.00    +0.228 C 
ATOM     23  O   UNL     1       0.725  -3.355   5.362  0.00  0.00    -0.275 OA
ATOM     24  N   UNL     1       0.973  -1.333   6.242  0.00  0.00    -0.282 N 
ATOM     25  H   UNL     1       0.973  -0.372   6.111  0.00  0.00    +0.155 HD
BRANCH  24  26
ATOM     26  C   UNL     1       1.146  -1.865   7.527  0.00  0.00    +0.078 A 
ATOM     27  C   UNL     1       0.634  -3.117   7.836  0.00  0.00    +0.059 A 
ATOM     28  C   UNL     1       0.806  -3.639   9.104  0.00  0.00    +0.128 A 
ATOM     29  C   UNL     1       1.487  -2.917  10.066  0.00  0.00    +0.036 A 
ATOM     30  C   UNL     1       1.999  -1.669   9.766  0.00  0.00    +0.049 A 
ATOM     31  C   UNL     1       1.837  -1.141   8.495  0.00  0.00    +0.138 A 
BRANCH  28  32
ATOM     32  N   UNL     1       0.260  -4.975   9.432  0.00  0.00    +0.056 N 
ATOM     33  O   UNL     1      -0.336  -5.608   8.592  0.00  0.00    -0.126 OA
ATOM     34  O   UNL     1       0.409  -5.434  10.541  0.00  0.00    -0.126 OA
ENDBRANCH  28  32
BRANCH  31  35
ATOM     35  O   UNL     1       2.345   0.085   8.196  0.00  0.00    -0.505 OA
ATOM     36  H   UNL     1       1.736   0.816   8.367  0.00  0.00    +0.292 HD
ENDBRANCH  31  35
ENDBRANCH  24  26
ENDBRANCH  21  22
ENDBRANCH  20  21
ENDBRANCH   9  20
TORSDOF 8
