REMARK  Name = ZINC02071608
REMARK  6 active torsions:
REMARK  status: ('A' for Active; 'I' for Inactive)
REMARK    1  A    between atoms: C_4  and  C_7
REMARK    2  A    between atoms: N_9  and  C_10
REMARK    3  A    between atoms: C_10  and  C_12
REMARK    4  A    between atoms: C_10  and  N_16
REMARK    5  A    between atoms: N_16  and  C_17
REMARK    6  A    between atoms: C_18  and  C_26
REMARK                            x       y       z     vdW  Elec       q    Type
REMARK                         _______ _______ _______ _____ _____    ______ ____
ROOT
ATOM      1  C   UNL     1       6.132  -0.704  -0.061  0.00  0.00    +0.211 C 
ENDROOT
BRANCH   1   4
ATOM      2  C   UNL     1       3.696  -0.685  -0.037  0.00  0.00    +0.246 C 
ATOM      3  O   UNL     1       3.715  -1.900  -0.045  0.00  0.00    -0.270 OA
ATOM      4  N   UNL     1       4.852   0.008  -0.045  0.00  0.00    -0.290 N 
ATOM      5  H   UNL     1       4.836   0.978  -0.039  0.00  0.00    +0.151 HD
BRANCH   2   9
ATOM      6  C   UNL     1      -0.017   1.379   0.010  0.00  0.00    +0.000 A 
ATOM      7  C   UNL     1       1.168   2.094   0.002  0.00  0.00    +0.001 A 
ATOM      8  C   UNL     1       2.377   1.429  -0.013  0.00  0.00    +0.013 A 
ATOM      9  C   UNL     1       2.403   0.034  -0.021  0.00  0.00    +0.037 A 
ATOM     10  C   UNL     1       1.204  -0.681  -0.013  0.00  0.00    +0.013 A 
ATOM     11  C   UNL     1       0.002  -0.004   0.002  0.00  0.00    +0.001 A 
ENDBRANCH   2   9
ENDBRANCH   1   4
BRANCH   1  12
ATOM     12  C   UNL     1       7.083  -0.066   0.953  0.00  0.00    +0.225 C 
ATOM     13 CL   UNL     1       6.360  -0.168   2.602  0.00  0.00    -0.080 Cl
ATOM     14 CL   UNL     1       8.659  -0.942   0.932  0.00  0.00    -0.080 Cl
ATOM     15 CL   UNL     1       7.352   1.663   0.520  0.00  0.00    -0.080 Cl
ENDBRANCH   1  12
BRANCH   1  16
ATOM     16  N   UNL     1       6.719  -0.621  -1.401  0.00  0.00    -0.316 N 
ATOM     17  H   UNL     1       7.126   0.206  -1.702  0.00  0.00    +0.148 HD
BRANCH  16  18
ATOM     18  C   UNL     1       6.694  -1.724  -2.237  0.00  0.00    +0.085 A 
ATOM     19  C   UNL     1       7.193  -1.840  -3.527  0.00  0.00    +0.083 A 
ATOM     20  C   UNL     1       7.038  -3.122  -4.194  0.00  0.00    -0.018 A 
ATOM     21  C   UNL     1       6.412  -4.075  -3.470  0.00  0.00    -0.004 A 
ATOM     22  S   UNL     1       6.038  -3.297  -1.925  0.00  0.00    -0.077 S 
ATOM     23  C   UNL     1       6.112  -5.479  -3.894  0.00  0.00    +0.043 C 
ATOM     24  C   UNL     1       6.287  -5.573  -5.417  0.00  0.00    +0.005 C 
ATOM     25  C   UNL     1       7.618  -4.922  -5.802  0.00  0.00    +0.005 C 
ATOM     26  C   UNL     1       7.532  -3.407  -5.607  0.00  0.00    +0.037 C 
BRANCH  19  27
ATOM     27  C   UNL     1       7.837  -0.738  -4.176  0.00  0.00    +0.102 C 
ATOM     28  N   UNL     1       8.348   0.137  -4.691  0.00  0.00    -0.191 NA
ENDBRANCH  19  27
ENDBRANCH  16  18
ENDBRANCH   1  16
TORSDOF 6
