REMARK  Name = ZINC64186054
REMARK  4 active torsions:
REMARK  status: ('A' for Active; 'I' for Inactive)
REMARK    1  A    between atoms: C_7  and  C_10
REMARK    2  A    between atoms: C_10  and  C_12
REMARK    3  A    between atoms: C_10  and  C_28
REMARK    4  A    between atoms: C_12  and  N_13
REMARK                            x       y       z     vdW  Elec       q    Type
REMARK                         _______ _______ _______ _____ _____    ______ ____
ROOT
ATOM      1  C   UNL     1       0.785  -3.846   1.373  0.00  0.00    +0.114 C 
ENDROOT
BRANCH   1   2
ATOM      2  N   UNL     1      -0.387  -4.692   1.610  0.00  0.00    -0.299 N 
ATOM      3  C   UNL     1      -0.540  -5.316   2.795  0.00  0.00    +0.302 C 
ATOM      4  O   UNL     1       0.340  -5.253   3.633  0.00  0.00    -0.253 OA
ATOM      5  N   UNL     1      -1.667  -6.009   3.052  0.00  0.00    -0.283 N 
ATOM      6  C   UNL     1      -1.897  -6.596   4.379  0.00  0.00    +0.128 C 
ATOM      7  C   UNL     1      -3.241  -6.085   4.914  0.00  0.00    +0.125 C 
ATOM      8  N   UNL     1      -4.261  -6.267   3.872  0.00  0.00    -0.311 N 
ATOM      9  C   UNL     1      -4.030  -5.680   2.545  0.00  0.00    +0.125 C 
ATOM     10  C   UNL     1      -2.689  -6.186   2.011  0.00  0.00    +0.128 C 
ATOM     11  C   UNL     1      -5.423  -6.982   4.137  0.00  0.00    +0.140 A 
ATOM     12  C   UNL     1      -5.745  -7.332   5.447  0.00  0.00    +0.154 A 
ATOM     13  N   UNL     1      -6.849  -8.011   5.694  0.00  0.00    -0.258 NA
ATOM     14  C   UNL     1      -7.650  -8.358   4.700  0.00  0.00    +0.130 A 
ATOM     15  C   UNL     1      -7.334  -8.013   3.400  0.00  0.00    +0.132 A 
ATOM     16  N   UNL     1      -6.232  -7.328   3.144  0.00  0.00    -0.237 NA
ATOM     17  H   UNL     1      -1.054  -4.804   0.914  0.00  0.00    +0.150 HD
ENDBRANCH   1   2
BRANCH   1  18
ATOM     18  C   UNL     1       0.801  -3.395  -0.089  0.00  0.00    +0.048 C 
BRANCH  18  25
ATOM     19  C   UNL     1       0.741   0.972  -1.496  0.00  0.00    +0.001 A 
ATOM     20  C   UNL     1       2.009   1.566  -1.539  0.00  0.00    +0.002 A 
ATOM     21  C   UNL     1       3.135   0.907  -1.195  0.00  0.00    +0.026 A 
ATOM     22  C   UNL     1       3.073  -0.449  -0.768  0.00  0.00    +0.043 A 
ATOM     23  N   UNL     1       4.005  -1.289  -0.390  0.00  0.00    -0.380 N 
ATOM     24  C   UNL     1       3.373  -2.569  -0.053  0.00  0.00    +0.145 C 
ATOM     25  C   UNL     1       1.892  -2.374  -0.288  0.00  0.00    -0.036 C 
ATOM     26  C   UNL     1       1.744  -1.099  -0.714  0.00  0.00    -0.001 A 
ATOM     27  C   UNL     1       0.569  -0.311  -1.105  0.00  0.00    +0.010 A 
ATOM     28  H   UNL     1       4.955  -1.096  -0.341  0.00  0.00    +0.160 HD
ENDBRANCH  18  25
BRANCH  18  29
ATOM     29  C   UNL     1       1.062  -4.603  -0.992  0.00  0.00    +0.063 C 
ATOM     30  C   UNL     1       0.971  -4.221  -2.493  0.00  0.00    +0.042 C 
ATOM     31  C   UNL     1       0.311  -5.309  -3.277  0.00  0.00    -0.019 C 
ATOM     32  C   UNL     1      -0.410  -6.221  -2.656  0.00  0.00    +0.036 C 
ATOM     33  S   UNL     1      -0.327  -5.812  -0.921  0.00  0.00    -0.129 S 
ENDBRANCH  18  29
ENDBRANCH   1  18
TORSDOF 4
