REMARK  Name = ZINC55300938
REMARK  6 active torsions:
REMARK  status: ('A' for Active; 'I' for Inactive)
REMARK    1  A    between atoms: C_1  and  N_2
REMARK    2  A    between atoms: N_2  and  C_3
REMARK    3  A    between atoms: C_3  and  C_5
REMARK    4  A    between atoms: C_3  and  C_14
REMARK    5  A    between atoms: C_8  and  O_12
REMARK    6  A    between atoms: O_12  and  C_13
REMARK                            x       y       z     vdW  Elec       q    Type
REMARK                         _______ _______ _______ _____ _____    ______ ____
ROOT
ATOM      1  C   UNL     1       0.690  -0.478  -1.207  0.00  0.00    -0.009 C 
ENDROOT
BRANCH   1   2
ATOM      2  C   UNL     1       0.515  -1.950  -1.478  0.00  0.00    -0.045 A 
ATOM      3  C   UNL     1       1.146  -2.880  -0.673  0.00  0.00    +0.007 A 
ATOM      4  C   UNL     1       0.988  -4.230  -0.919  0.00  0.00    +0.046 A 
ATOM      5  C   UNL     1       0.195  -4.653  -1.976  0.00  0.00    +0.121 A 
ATOM      6  C   UNL     1      -0.438  -3.719  -2.783  0.00  0.00    +0.061 A 
ATOM      7  C   UNL     1      -0.281  -2.369  -2.529  0.00  0.00    +0.023 A 
ATOM      8 BR   UNL     1      -1.149  -1.094  -3.624  0.00  0.00    -0.050 Br
BRANCH   5   9
ATOM      9  O   UNL     1       0.038  -5.980  -2.221  0.00  0.00    -0.495 OA
ATOM     10  C   UNL     1      -0.793  -6.343  -3.325  0.00  0.00    +0.277 C 
ENDBRANCH   5   9
ENDBRANCH   1   2
BRANCH   1  11
ATOM     11  C   UNL     1       1.946   0.027  -1.919  0.00  0.00    +0.134 C 
ATOM     12  C   UNL     1       1.793  -0.175  -3.430  0.00  0.00    +0.190 C 
ATOM     13  O   UNL     1       3.013   0.196  -4.079  0.00  0.00    -0.375 OA
ATOM     14  C   UNL     1       4.152  -0.540  -3.620  0.00  0.00    +0.188 C 
ATOM     15  C   UNL     1       4.304  -0.339  -2.109  0.00  0.00    +0.188 C 
ATOM     16  O   UNL     1       3.084  -0.708  -1.460  0.00  0.00    -0.373 OA
ENDBRANCH   1  11
BRANCH   1  18
ATOM     17  C   UNL     1       0.876   1.183   0.514  0.00  0.00    -0.100 C 
ATOM     18  N   UNL     1       0.826  -0.259   0.240  0.00  0.00    +0.383 N 
ATOM     19  H   UNL     1       1.676  -0.694   0.567  0.00  0.00    -0.085 HD
ATOM     20  H   UNL     1       0.036  -0.666   0.717  0.00  0.00    -0.085 HD
ENDBRANCH   1  18
TORSDOF 4
