REMARK  Name = ZINC67059757
REMARK  9 active torsions:
REMARK  status: ('A' for Active; 'I' for Inactive)
REMARK    1  A    between atoms: C_1  and  C_2
REMARK    2  A    between atoms: C_2  and  C_3
REMARK    3  A    between atoms: C_3  and  C_5
REMARK    4  A    between atoms: C_3  and  N_15
REMARK    5  A    between atoms: N_18  and  C_19
REMARK    6  A    between atoms: C_19  and  C_20
REMARK    7  A    between atoms: C_20  and  C_22
REMARK    8  A    between atoms: C_20  and  N_23
REMARK    9  A    between atoms: C_28  and  C_30
REMARK                            x       y       z     vdW  Elec       q    Type
REMARK                         _______ _______ _______ _____ _____    ______ ____
ROOT
ATOM      1  N   UNL     1      -2.465   0.899  -0.719  0.00  0.00    -0.290 N 
ATOM      2  C   UNL     1      -2.797   2.058  -1.323  0.00  0.00    +0.300 C 
ATOM      3  O   UNL     1      -2.424   3.116  -0.855  0.00  0.00    -0.253 OA
ATOM      4  N   UNL     1      -3.543   2.043  -2.446  0.00  0.00    -0.301 N 
ATOM      5  H   UNL     1      -2.763   0.055  -1.092  0.00  0.00    +0.151 HD
ATOM      6  H   UNL     1      -3.841   1.198  -2.819  0.00  0.00    +0.150 HD
ENDROOT
BRANCH   1   7
ATOM      7  C   UNL     1      -1.654   0.916   0.501  0.00  0.00    +0.140 C 
BRANCH   7   8
ATOM      8  C   UNL     1      -1.921  -0.335   1.298  0.00  0.00    +0.129 A 
ATOM      9  N   UNL     1      -2.505  -0.366   2.527  0.00  0.00    -0.340 N 
ATOM     10  H   UNL     1      -2.818   0.399   3.034  0.00  0.00    +0.167 HD
ATOM     11  C   UNL     1      -2.571  -1.689   2.916  0.00  0.00    +0.066 A 
ATOM     12  C   UNL     1      -3.050  -2.342   4.044  0.00  0.00    +0.028 A 
ATOM     13  C   UNL     1      -2.964  -3.716   4.125  0.00  0.00    +0.002 A 
ATOM     14  C   UNL     1      -2.402  -4.448   3.090  0.00  0.00    +0.002 A 
ATOM     15  C   UNL     1      -1.925  -3.822   1.972  0.00  0.00    +0.030 A 
ATOM     16  C   UNL     1      -2.002  -2.431   1.867  0.00  0.00    +0.089 A 
ATOM     17  N   UNL     1      -1.632  -1.542   0.910  0.00  0.00    -0.231 NA
ENDBRANCH   7   8
BRANCH   7  19
ATOM     18  C   UNL     1       0.124   2.303  -0.573  0.00  0.00    +0.006 C 
ATOM     19  C   UNL     1      -0.172   0.976   0.128  0.00  0.00    +0.027 C 
ENDBRANCH   7  19
ENDBRANCH   1   7
BRANCH   4  20
ATOM     20  C   UNL     1      -3.904   3.302  -3.102  0.00  0.00    +0.090 C 
BRANCH  20  21
ATOM     21  C   UNL     1      -4.585   3.003  -4.439  0.00  0.00    -0.054 C 
ATOM     22  C   UNL     1      -5.160   4.296  -5.019  0.00  0.00    -0.012 C 
BRANCH  21  23
ATOM     23  N   UNL     1      -3.601   2.441  -5.375  0.00  0.00    +0.384 N 
ATOM     24  C   UNL     1      -2.431   3.325  -5.441  0.00  0.00    -0.078 C 
ATOM     25  C   UNL     1      -1.438   2.788  -6.474  0.00  0.00    -0.019 C 
ATOM     26  C   UNL     1      -0.995   1.380  -6.064  0.00  0.00    -0.003 C 
ATOM     27  C   UNL     1      -2.230   0.486  -5.926  0.00  0.00    -0.016 C 
ATOM     28  C   UNL     1      -3.193   1.109  -4.913  0.00  0.00    -0.071 C 
ATOM     29  C   UNL     1      -4.430   0.219  -4.772  0.00  0.00    -0.013 C 
ATOM     30  H   UNL     1      -4.015   2.366  -6.292  0.00  0.00    -0.081 HD
ENDBRANCH  21  23
ENDBRANCH  20  21
ENDBRANCH   4  20
TORSDOF 6
