REMARK  Name = ZINC12375557
REMARK  6 active torsions:
REMARK  status: ('A' for Active; 'I' for Inactive)
REMARK    1  A    between atoms: C_5  and  C_7
REMARK    2  A    between atoms: C_7  and  O_8
REMARK    3  A    between atoms: O_8  and  C_9
REMARK    4  A    between atoms: C_12  and  C_15
REMARK    5  A    between atoms: C_16  and  C_30
REMARK    6  A    between atoms: C_17  and  N_29
REMARK                            x       y       z     vdW  Elec       q    Type
REMARK                         _______ _______ _______ _____ _____    ______ ____
ROOT
ATOM      1  C   UNL     1       0.060  -4.253  -0.021  0.00  0.00    +0.019 A 
ATOM      2  C   UNL     1      -0.450  -4.984  -1.112  0.00  0.00    +0.100 A 
ATOM      3  C   UNL     1      -0.407  -6.391  -1.068  0.00  0.00    +0.137 A 
ATOM      4  N   UNL     1       0.101  -7.029  -0.027  0.00  0.00    -0.213 NA
ATOM      5  C   UNL     1       0.591  -6.381   1.020  0.00  0.00    +0.155 A 
ATOM      6  C   UNL     1       0.594  -4.980   1.059  0.00  0.00    +0.093 A 
ATOM      7  C   UNL     1       1.142  -4.300   2.242  0.00  0.00    +0.284 A 
ATOM      8  O   UNL     1       1.160  -3.082   2.321  0.00  0.00    -0.265 OA
ATOM      9  N   UNL     1       1.625  -5.068   3.228  0.00  0.00    -0.184 NA
ATOM     10  C   UNL     1       1.610  -6.377   3.151  0.00  0.00    +0.182 A 
ATOM     11  N   UNL     1       1.118  -7.100   2.098  0.00  0.00    -0.279 N 
ATOM     12  C   UNL     1       1.190  -8.472   2.200  0.00  0.00    +0.102 A 
ATOM     13  C   UNL     1       1.714  -9.055   3.276  0.00  0.00    +0.067 A 
ATOM     14  S   UNL     1       2.168  -7.645   4.272  0.00  0.00    -0.058 S 
ENDROOT
BRANCH   1  18
ATOM     15  C   UNL     1       0.002  -0.004   0.002  0.00  0.00    +0.121 A 
ATOM     16  C   UNL     1       1.216  -0.680  -0.019  0.00  0.00    +0.046 A 
ATOM     17  C   UNL     1       1.238  -2.058  -0.021  0.00  0.00    +0.012 A 
ATOM     18  C   UNL     1       0.040  -2.775  -0.013  0.00  0.00    -0.015 A 
ATOM     19  C   UNL     1      -1.178  -2.091   0.002  0.00  0.00    +0.012 A 
ATOM     20  C   UNL     1      -1.193  -0.713   0.010  0.00  0.00    +0.046 A 
BRANCH  15  21
ATOM     21  O   UNL     1      -0.016   1.354   0.009  0.00  0.00    -0.487 OA
BRANCH  21  22
ATOM     22  C   UNL     1       1.248   2.020   0.001  0.00  0.00    +0.267 C 
BRANCH  22  27
ATOM     23  C   UNL     1      -0.454   5.390   0.035  0.00  0.00    +0.001 A 
ATOM     24  C   UNL     1       0.630   6.248   0.030  0.00  0.00    +0.003 A 
ATOM     25  C   UNL     1       1.915   5.739   0.015  0.00  0.00    +0.039 A 
ATOM     26  C   UNL     1       2.116   4.369   0.005  0.00  0.00    +0.130 A 
ATOM     27  C   UNL     1       1.030   3.511   0.011  0.00  0.00    +0.025 A 
ATOM     28  C   UNL     1      -0.254   4.022   0.020  0.00  0.00    +0.010 A 
ATOM     29  F   UNL     1       3.372   3.871  -0.010  0.00  0.00    -0.205 F 
ENDBRANCH  22  27
ENDBRANCH  21  22
ENDBRANCH  15  21
ENDBRANCH   1  18
BRANCH   3  30
ATOM     30  N   UNL     1      -0.903  -7.118  -2.132  0.00  0.00    -0.342 N 
ATOM     31  H   UNL     1      -0.874  -8.217  -2.108  0.00  0.00    +0.144 HD
ATOM     32  H   UNL     1      -1.328  -6.598  -3.003  0.00  0.00    +0.144 HD
ENDBRANCH   3  30
BRANCH   2  33
ATOM     33  C   UNL     1      -1.004  -4.308  -2.247  0.00  0.00    +0.103 C 
ATOM     34  N   UNL     1      -1.444  -3.772  -3.147  0.00  0.00    -0.191 NA
ENDBRANCH   2  33
TORSDOF 6
