REMARK  Name = ZINC54201106
REMARK  7 active torsions:
REMARK  status: ('A' for Active; 'I' for Inactive)
REMARK    1  A    between atoms: C_4  and  C_7
REMARK    2  A    between atoms: C_7  and  C_9
REMARK    3  A    between atoms: C_7  and  N_23
REMARK    4  A    between atoms: C_9  and  C_10
REMARK    5  A    between atoms: N_12  and  C_13
REMARK    6  A    between atoms: N_23  and  S_24
REMARK    7  A    between atoms: S_24  and  C_27
REMARK                            x       y       z     vdW  Elec       q    Type
REMARK                         _______ _______ _______ _____ _____    ______ ____
ROOT
ATOM      1  C   UNL     1       3.711  -0.706  -0.037  0.00  0.00    +0.115 C 
ENDROOT
BRANCH   1   5
ATOM      2  C   UNL     1      -0.004   1.402   0.014  0.00  0.00    +0.000 A 
ATOM      3  C   UNL     1       1.188   2.102  -0.002  0.00  0.00    +0.000 A 
ATOM      4  C   UNL     1       2.390   1.420  -0.018  0.00  0.00    +0.005 A 
ATOM      5  C   UNL     1       2.401   0.037  -0.018  0.00  0.00    -0.028 A 
ATOM      6  C   UNL     1       1.209  -0.662  -0.001  0.00  0.00    +0.005 A 
ATOM      7  C   UNL     1       0.006   0.020   0.014  0.00  0.00    +0.000 A 
ENDBRANCH   1   5
BRANCH   1   8
ATOM      8  N   UNL     1       3.601  -1.868  -0.923  0.00  0.00    -0.182 NA
ATOM      9  H   UNL     1       3.238  -2.702  -0.587  0.00  0.00    +0.149 HD
BRANCH   8  10
ATOM     10  S   UNL     1       4.094  -1.756  -2.500  0.00  0.00    +0.059 S 
ATOM     11  O   UNL     1       3.888  -3.035  -3.082  0.00  0.00    -0.153 OA
ATOM     12  O   UNL     1       3.506  -0.575  -3.027  0.00  0.00    -0.153 OA
BRANCH  10  13
ATOM     13  C   UNL     1       5.835  -1.486  -2.483  0.00  0.00    +0.105 A 
ATOM     14  C   UNL     1       6.335  -0.197  -2.444  0.00  0.00    +0.029 A 
ATOM     15  C   UNL     1       7.700   0.015  -2.430  0.00  0.00    +0.017 A 
ATOM     16  C   UNL     1       8.568  -1.062  -2.455  0.00  0.00    +0.018 A 
ATOM     17  C   UNL     1       8.068  -2.351  -2.494  0.00  0.00    +0.017 A 
ATOM     18  C   UNL     1       6.702  -2.563  -2.502  0.00  0.00    +0.029 A 
ATOM     19 BR   UNL     1      10.436  -0.772  -2.436  0.00  0.00    -0.050 Br
ENDBRANCH  10  13
ENDBRANCH   8  10
ENDBRANCH   1   8
BRANCH   1  20
ATOM     20  C   UNL     1       4.051  -1.176   1.379  0.00  0.00    +0.121 C 
BRANCH  20  21
ATOM     21  C   UNL     1       5.418  -1.812   1.383  0.00  0.00    +0.219 C 
ATOM     22  O   UNL     1       6.056  -1.882   0.354  0.00  0.00    -0.275 OA
ATOM     23  N   UNL     1       5.930  -2.302   2.529  0.00  0.00    -0.285 N 
ATOM     24  H   UNL     1       5.449  -2.186   3.363  0.00  0.00    +0.155 HD
BRANCH  23  25
ATOM     25  C   UNL     1       7.155  -2.977   2.515  0.00  0.00    +0.034 A 
ATOM     26  C   UNL     1       8.166  -2.562   1.640  0.00  0.00    +0.025 A 
ATOM     27  C   UNL     1       9.366  -3.199   1.605  0.00  0.00    +0.030 A 
ATOM     28  C   UNL     1       9.607  -4.292   2.456  0.00  0.00    +0.071 A 
ATOM     29  C   UNL     1       8.588  -4.716   3.345  0.00  0.00    +0.002 A 
ATOM     30  C   UNL     1       7.359  -4.040   3.367  0.00  0.00    +0.033 A 
ATOM     31  C   UNL     1       8.835  -5.811   4.195  0.00  0.00    +0.011 A 
ATOM     32  C   UNL     1      10.056  -6.419   4.124  0.00  0.00    +0.020 A 
ATOM     33  C   UNL     1      11.014  -5.952   3.227  0.00  0.00    +0.111 A 
ATOM     34  N   UNL     1      10.781  -4.932   2.438  0.00  0.00    -0.255 NA
ENDBRANCH  23  25
ENDBRANCH  20  21
ENDBRANCH   1  20
TORSDOF 7
