REMARK  Name = ZINC09874777
REMARK  10 active torsions:
REMARK  status: ('A' for Active; 'I' for Inactive)
REMARK    1  A    between atoms: C_1  and  C_2
REMARK    2  A    between atoms: C_2  and  C_27
REMARK    3  A    between atoms: N_5  and  C_9
REMARK    4  A    between atoms: C_9  and  C_10
REMARK    5  A    between atoms: C_10  and  C_12
REMARK    6  A    between atoms: C_15  and  S_18
REMARK    7  A    between atoms: S_18  and  N_21
REMARK    8  A    between atoms: C_27  and  C_28
REMARK    9  A    between atoms: C_33  and  O_34
REMARK   10  A    between atoms: O_34  and  C_35
REMARK                            x       y       z     vdW  Elec       q    Type
REMARK                         _______ _______ _______ _____ _____    ______ ____
ROOT
ATOM      1  C   UNL     1      -0.013   1.086   0.008  0.00  0.00    +0.042 C 
ATOM      2  C   UNL     1      -0.729   1.579   1.267  0.00  0.00    +0.114 C 
ATOM      3  C   UNL     1      -0.654   3.090   1.365  0.00  0.00    +0.247 C 
ATOM      4  O   UNL     1      -1.103   3.898   0.580  0.00  0.00    -0.273 OA
ATOM      5  N   UNL     1       0.015   3.349   2.506  0.00  0.00    -0.217 N 
ATOM      6  C   UNL     1       0.371   2.223   3.135  0.00  0.00    +0.310 C 
ATOM      7  O   UNL     1       0.984   2.200   4.184  0.00  0.00    -0.252 OA
ATOM      8  N   UNL     1      -0.026   1.119   2.477  0.00  0.00    -0.285 N 
ATOM      9  H   UNL     1       0.121   0.199   2.747  0.00  0.00    +0.151 HD
ENDROOT
BRANCH   5  10
ATOM     10  C   UNL     1       0.318   4.696   2.995  0.00  0.00    +0.197 C 
BRANCH  10  11
ATOM     11  C   UNL     1       1.647   5.143   2.446  0.00  0.00    +0.181 C 
ATOM     12  O   UNL     1       2.280   4.409   1.717  0.00  0.00    -0.290 OA
BRANCH  11  13
ATOM     13  C   UNL     1       2.178   6.471   2.794  0.00  0.00    +0.019 A 
ATOM     14  C   UNL     1       1.448   7.323   3.629  0.00  0.00    +0.013 A 
ATOM     15  C   UNL     1       1.955   8.563   3.955  0.00  0.00    +0.029 A 
ATOM     16  C   UNL     1       3.177   8.971   3.448  0.00  0.00    +0.106 A 
ATOM     17  C   UNL     1       3.902   8.136   2.616  0.00  0.00    +0.029 A 
ATOM     18  C   UNL     1       3.412   6.890   2.286  0.00  0.00    +0.013 A 
BRANCH  16  19
ATOM     19  S   UNL     1       3.812  10.561   3.865  0.00  0.00    +0.061 S 
ATOM     20  O   UNL     1       3.202  10.932   5.093  0.00  0.00    -0.153 OA
ATOM     21  O   UNL     1       5.222  10.489   3.705  0.00  0.00    -0.153 OA
BRANCH  19  22
ATOM     22  N   UNL     1       3.259  11.624   2.721  0.00  0.00    -0.177 NA
ATOM     23  C   UNL     1       4.038  11.884   1.503  0.00  0.00    +0.109 C 
ATOM     24  C   UNL     1       3.132  11.648   0.285  0.00  0.00    +0.017 C 
ATOM     25  C   UNL     1       1.871  12.506   0.420  0.00  0.00    +0.003 C 
ATOM     26  C   UNL     1       1.104  12.093   1.678  0.00  0.00    +0.017 C 
ATOM     27  C   UNL     1       1.984  12.329   2.909  0.00  0.00    +0.109 C 
ENDBRANCH  19  22
ENDBRANCH  16  19
ENDBRANCH  11  13
ENDBRANCH  10  11
ENDBRANCH   5  10
BRANCH   2  28
ATOM     28  C   UNL     1      -2.184   1.107   1.276  0.00  0.00    +0.073 C 
BRANCH  28  29
ATOM     29  C   UNL     1      -2.223  -0.398   1.357  0.00  0.00    -0.003 A 
ATOM     30  C   UNL     1      -2.333  -1.149   0.202  0.00  0.00    +0.007 A 
ATOM     31  C   UNL     1      -2.369  -2.529   0.275  0.00  0.00    +0.000 A 
ATOM     32  C   UNL     1      -2.295  -3.161   1.503  0.00  0.00    +0.004 A 
ATOM     33  C   UNL     1      -2.185  -2.414   2.660  0.00  0.00    +0.046 A 
ATOM     34  C   UNL     1      -2.144  -1.029   2.589  0.00  0.00    +0.123 A 
BRANCH  34  35
ATOM     35  O   UNL     1      -2.030  -0.293   3.725  0.00  0.00    -0.495 OA
ATOM     36  C   UNL     1      -1.954  -1.010   4.959  0.00  0.00    +0.277 C 
ENDBRANCH  34  35
ENDBRANCH  28  29
ENDBRANCH   2  28
TORSDOF 8
