REMARK  Name = ZINC09384354
REMARK  8 active torsions:
REMARK  status: ('A' for Active; 'I' for Inactive)
REMARK    1  A    between atoms: C_1  and  C_2
REMARK    2  A    between atoms: N_8  and  S_9
REMARK    3  A    between atoms: S_9  and  C_12
REMARK    4  A    between atoms: C_15  and  C_18
REMARK    5  A    between atoms: N_20  and  C_21
REMARK    6  A    between atoms: C_22  and  C_26
REMARK    7  A    between atoms: C_29  and  O_31
REMARK    8  A    between atoms: O_31  and  C_32
REMARK                            x       y       z     vdW  Elec       q    Type
REMARK                         _______ _______ _______ _____ _____    ______ ____
ROOT
ATOM      1  C   UNL     1       0.619   2.638   0.212  0.00  0.00    +0.249 C 
ATOM      2  O   UNL     1       0.946   1.476   0.350  0.00  0.00    -0.270 OA
ATOM      3  N   UNL     1       1.562   3.593   0.087  0.00  0.00    -0.275 N 
ATOM      4  H   UNL     1       1.301   4.521  -0.022  0.00  0.00    +0.156 HD
ENDROOT
BRANCH   1   8
ATOM      5  C   UNL     1      -3.495   3.689   0.109  0.00  0.00    +0.106 A 
ATOM      6  C   UNL     1      -3.126   2.365   0.265  0.00  0.00    +0.029 A 
ATOM      7  C   UNL     1      -1.792   2.017   0.300  0.00  0.00    +0.015 A 
ATOM      8  C   UNL     1      -0.812   3.004   0.176  0.00  0.00    +0.037 A 
ATOM      9  C   UNL     1      -1.192   4.339   0.024  0.00  0.00    +0.015 A 
ATOM     10  C   UNL     1      -2.530   4.673  -0.014  0.00  0.00    +0.029 A 
BRANCH   5  11
ATOM     11  S   UNL     1      -5.202   4.125   0.065  0.00  0.00    +0.061 S 
ATOM     12  O   UNL     1      -5.273   5.433  -0.486  0.00  0.00    -0.153 OA
ATOM     13  O   UNL     1      -5.888   3.019  -0.505  0.00  0.00    -0.153 OA
BRANCH  11  20
ATOM     14  C   UNL     1      -4.808   6.517   1.527  0.00  0.00    +0.026 C 
ATOM     15  C   UNL     1      -5.439   5.451   2.424  0.00  0.00    +0.077 C 
ATOM     16  C   UNL     1      -6.765   5.976   2.996  0.00  0.00    +0.020 C 
ATOM     17  C   UNL     1      -7.454   4.857   3.780  0.00  0.00    +0.003 C 
ATOM     18  C   UNL     1      -7.764   3.689   2.841  0.00  0.00    +0.017 C 
ATOM     19  C   UNL     1      -6.455   3.141   2.265  0.00  0.00    +0.110 C 
ATOM     20  N   UNL     1      -5.717   4.243   1.634  0.00  0.00    -0.174 NA
ENDBRANCH  11  20
ENDBRANCH   5  11
ENDBRANCH   1   8
BRANCH   3  21
ATOM     21  C   UNL     1       2.903   3.250   0.115  0.00  0.00    +0.084 A 
ATOM     22  C   UNL     1       4.011   4.084   0.003  0.00  0.00    +0.066 A 
ATOM     23  C   UNL     1       5.308   3.452   0.068  0.00  0.00    +0.022 A 
ATOM     24  C   UNL     1       5.333   2.117   0.229  0.00  0.00    +0.048 A 
ATOM     25  S   UNL     1       3.608   1.680   0.306  0.00  0.00    -0.081 S 
BRANCH  22  26
ATOM     26  C   UNL     1       3.870   5.531  -0.172  0.00  0.00    +0.255 C 
ATOM     27  O   UNL     1       2.762   6.032  -0.222  0.00  0.00    -0.270 OA
ATOM     28  N   UNL     1       4.966   6.308  -0.277  0.00  0.00    -0.217 N 
ATOM     29  C   UNL     1       4.836   7.640  -0.438  0.00  0.00    +0.407 C 
ATOM     30  O   UNL     1       3.730   8.140  -0.488  0.00  0.00    -0.226 OA
ATOM     31  H   UNL     1       5.849   5.908  -0.236  0.00  0.00    +0.161 HD
BRANCH  29  32
ATOM     32  O   UNL     1       5.931   8.415  -0.542  0.00  0.00    -0.453 OA
ATOM     33  C   UNL     1       5.715   9.841  -0.714  0.00  0.00    +0.282 C 
ENDBRANCH  29  32
ENDBRANCH  22  26
ENDBRANCH   3  21
TORSDOF 6
