REMARK  Name = ZINC13858363
REMARK  8 active torsions:
REMARK  status: ('A' for Active; 'I' for Inactive)
REMARK    1  A    between atoms: C_1  and  C_2
REMARK    2  A    between atoms: C_2  and  C_3
REMARK    3  A    between atoms: C_2  and  C_4
REMARK    4  A    between atoms: C_4  and  N_5
REMARK    5  A    between atoms: C_9  and  C_10
REMARK    6  A    between atoms: N_17  and  C_18
REMARK    7  A    between atoms: C_21  and  O_24
REMARK    8  A    between atoms: O_24  and  C_25
REMARK                            x       y       z     vdW  Elec       q    Type
REMARK                         _______ _______ _______ _____ _____    ______ ____
ROOT
ATOM      1  N   UNL     1      -2.105  -0.148  -1.230  0.00  0.00    -0.246 N 
ATOM      2  C   UNL     1      -2.757   1.000  -1.294  0.00  0.00    +0.259 C 
ATOM      3  O   UNL     1      -2.813   1.753  -0.339  0.00  0.00    -0.269 OA
ATOM      4  C   UNL     1      -3.411   1.330  -2.571  0.00  0.00    +0.081 C 
ATOM      5  C   UNL     1      -4.139   2.431  -2.911  0.00  0.00    +0.066 C 
ATOM      6  S   UNL     1      -2.994  -0.102  -3.556  0.00  0.00    -0.049 S 
ATOM      7  C   UNL     1      -2.048  -0.984  -2.325  0.00  0.00    +0.168 C 
ATOM      8  N   UNL     1      -1.446  -2.147  -2.435  0.00  0.00    -0.225 NA
ENDROOT
BRANCH   8   9
ATOM      9  C   UNL     1      -1.501  -2.837  -3.617  0.00  0.00    +0.067 A 
ATOM     10  C   UNL     1      -2.711  -2.954  -4.304  0.00  0.00    +0.031 A 
ATOM     11  C   UNL     1      -2.762  -3.650  -5.494  0.00  0.00    +0.048 A 
ATOM     12  C   UNL     1      -1.613  -4.234  -6.008  0.00  0.00    +0.120 A 
ATOM     13  C   UNL     1      -0.408  -4.121  -5.328  0.00  0.00    +0.048 A 
ATOM     14  C   UNL     1      -0.346  -3.421  -4.141  0.00  0.00    +0.031 A 
BRANCH  12  15
ATOM     15  O   UNL     1      -1.668  -4.921  -7.180  0.00  0.00    -0.495 OA
ATOM     16  C   UNL     1      -0.448  -5.497  -7.652  0.00  0.00    +0.277 C 
ENDBRANCH  12  15
ENDBRANCH   8   9
BRANCH   5  17
ATOM     17  C   UNL     1      -4.684   2.545  -4.211  0.00  0.00    +0.129 A 
ATOM     18  C   UNL     1      -5.432   3.602  -4.690  0.00  0.00    +0.049 A 
ATOM     19  C   UNL     1      -5.757   3.291  -6.019  0.00  0.00    +0.042 A 
ATOM     20  C   UNL     1      -5.209   2.087  -6.294  0.00  0.00    +0.195 A 
ATOM     21  O   UNL     1      -4.560   1.643  -5.207  0.00  0.00    -0.463 OA
ENDBRANCH   5  17
BRANCH   1  22
ATOM     22  C   UNL     1      -1.433  -0.534   0.013  0.00  0.00    +0.119 C 
BRANCH  22  24
ATOM     23  C   UNL     1      -0.019   1.526   0.010  0.00  0.00    +0.009 C 
ATOM     24  C   UNL     1       0.002  -0.004   0.002  0.00  0.00    +0.001 C 
ATOM     25  C   UNL     1       0.742  -0.511   1.242  0.00  0.00    +0.009 C 
ENDBRANCH  22  24
ENDBRANCH   1  22
TORSDOF 5
