REMARK  Name = ZINC46078644
REMARK  6 active torsions:
REMARK  status: ('A' for Active; 'I' for Inactive)
REMARK    1  A    between atoms: C_1  and  C_2
REMARK    2  A    between atoms: C_6  and  C_8
REMARK    3  A    between atoms: C_18  and  C_20
REMARK    4  A    between atoms: N_22  and  C_23
REMARK    5  A    between atoms: C_23  and  C_24
REMARK    6  A    between atoms: C_24  and  C_25
REMARK                            x       y       z     vdW  Elec       q    Type
REMARK                         _______ _______ _______ _____ _____    ______ ____
ROOT
ATOM      1  C   UNL     1       0.051  -2.845   2.457  0.00  0.00    +0.251 C 
ATOM      2  O   UNL     1       0.006  -2.227   1.411  0.00  0.00    -0.270 OA
ATOM      3  N   UNL     1       0.169  -4.188   2.442  0.00  0.00    -0.267 N 
ATOM      4  C   UNL     1       0.180  -4.950   3.698  0.00  0.00    +0.114 C 
ATOM      5  C   UNL     1       1.309  -5.985   3.608  0.00  0.00    +0.024 C 
ATOM      6  C   UNL     1       0.997  -6.959   2.472  0.00  0.00    +0.038 C 
ATOM      7  C   UNL     1       0.681  -6.207   1.206  0.00  0.00    -0.025 A 
ATOM      8  C   UNL     1       0.278  -4.876   1.232  0.00  0.00    +0.040 A 
ATOM      9  C   UNL     1      -0.017  -4.207   0.046  0.00  0.00    +0.024 A 
ATOM     10  C   UNL     1       0.084  -4.860  -1.161  0.00  0.00    +0.015 A 
ATOM     11  C   UNL     1       0.486  -6.198  -1.195  0.00  0.00    +0.037 A 
ATOM     12  C   UNL     1       0.791  -6.864  -0.003  0.00  0.00    +0.018 A 
ENDROOT
BRANCH   1  18
ATOM     13  C   UNL     1       1.416   0.987   5.346  0.00  0.00    +0.044 C 
ATOM     14  C   UNL     1       0.630  -0.282   5.140  0.00  0.00    -0.050 A 
ATOM     15  C   UNL     1      -0.164  -0.775   6.160  0.00  0.00    +0.003 A 
ATOM     16  C   UNL     1      -0.889  -1.940   5.979  0.00  0.00    +0.001 A 
ATOM     17  C   UNL     1      -0.824  -2.617   4.778  0.00  0.00    +0.013 A 
ATOM     18  C   UNL     1      -0.024  -2.125   3.745  0.00  0.00    +0.037 A 
ATOM     19  C   UNL     1       0.700  -0.946   3.933  0.00  0.00    +0.016 A 
ENDBRANCH   1  18
BRANCH  11  20
ATOM     20  C   UNL     1       0.598  -6.904  -2.486  0.00  0.00    +0.244 C 
ATOM     21  O   UNL     1       0.948  -8.068  -2.514  0.00  0.00    -0.270 OA
ATOM     22  N   UNL     1       0.314  -6.258  -3.635  0.00  0.00    -0.311 N 
ATOM     23  H   UNL     1       0.035  -5.329  -3.612  0.00  0.00    +0.149 HD
BRANCH  22  24
ATOM     24  C   UNL     1       0.425  -6.959  -4.916  0.00  0.00    +0.109 C 
BRANCH  24  25
ATOM     25  C   UNL     1       0.049  -6.006  -6.053  0.00  0.00    +0.049 C 
BRANCH  25  26
ATOM     26  C   UNL     1       0.164  -6.727  -7.371  0.00  0.00    -0.072 C 
ATOM     27  C   UNL     1      -0.907  -7.259  -7.868  0.00  0.00    -0.028 C 
ATOM     28  C   UNL     1      -0.947  -8.016  -9.163  0.00  0.00    +0.027 C 
ATOM     29  C   UNL     1       0.302  -7.709  -9.992  0.00  0.00    +0.004 C 
ATOM     30  C   UNL     1       1.534  -7.881  -9.094  0.00  0.00    +0.005 C 
ATOM     31  C   UNL     1       1.511  -6.779  -8.030  0.00  0.00    +0.030 C 
ENDBRANCH  25  26
ENDBRANCH  24  25
ENDBRANCH  22  24
ENDBRANCH  11  20
TORSDOF 5
