REMARK  Name = ZINC19948611
REMARK  10 active torsions:
REMARK  status: ('A' for Active; 'I' for Inactive)
REMARK    1  A    between atoms: C_1  and  C_2
REMARK    2  A    between atoms: C_2  and  C_3
REMARK    3  A    between atoms: C_2  and  C_4
REMARK    4  A    between atoms: C_7  and  N_10
REMARK    5  A    between atoms: N_10  and  C_11
REMARK    6  A    between atoms: N_10  and  S_24
REMARK    7  A    between atoms: C_11  and  C_12
REMARK    8  A    between atoms: N_14  and  N_15
REMARK    9  A    between atoms: C_16  and  C_17
REMARK   10  A    between atoms: S_24  and  C_27
REMARK                            x       y       z     vdW  Elec       q    Type
REMARK                         _______ _______ _______ _____ _____    ______ ____
ROOT
ATOM      1  N   UNL     1       2.656  -1.833  -4.664  0.00  0.00    -0.194 N 
ENDROOT
BRANCH   1   5
ATOM      2  C   UNL     1       0.136  -0.953  -1.468  0.00  0.00    -0.045 A 
ATOM      3  C   UNL     1      -0.400  -1.242  -2.710  0.00  0.00    +0.006 A 
ATOM      4  C   UNL     1       0.433  -1.534  -3.772  0.00  0.00    +0.025 A 
ATOM      5  C   UNL     1       1.811  -1.538  -3.592  0.00  0.00    +0.052 A 
ATOM      6  C   UNL     1       2.345  -1.246  -2.343  0.00  0.00    +0.025 A 
ATOM      7  C   UNL     1       1.507  -0.949  -1.287  0.00  0.00    +0.006 A 
BRANCH   2   9
ATOM      8  C   UNL     1      -1.621   0.595  -0.652  0.00  0.00    +0.012 C 
ATOM      9  C   UNL     1      -0.776  -0.634  -0.312  0.00  0.00    +0.013 C 
ATOM     10  C   UNL     1      -1.696  -1.827  -0.044  0.00  0.00    +0.012 C 
ENDBRANCH   2   9
ENDBRANCH   1   5
BRANCH   1  11
ATOM     11  S   UNL     1       3.675  -3.136  -4.580  0.00  0.00    +0.075 S 
ATOM     12  O   UNL     1       4.730  -2.886  -5.498  0.00  0.00    -0.150 OA
ATOM     13  O   UNL     1       3.909  -3.380  -3.199  0.00  0.00    -0.150 OA
BRANCH  11  14
ATOM     14  C   UNL     1       2.790  -4.530  -5.195  0.00  0.00    +0.109 A 
ATOM     15  C   UNL     1       2.044  -5.311  -4.332  0.00  0.00    +0.029 A 
ATOM     16  C   UNL     1       1.350  -6.404  -4.814  0.00  0.00    +0.002 A 
ATOM     17  C   UNL     1       1.402  -6.717  -6.160  0.00  0.00    +0.000 A 
ATOM     18  C   UNL     1       2.147  -5.936  -7.023  0.00  0.00    +0.002 A 
ATOM     19  C   UNL     1       2.838  -4.840  -6.541  0.00  0.00    +0.029 A 
ENDBRANCH  11  14
ENDBRANCH   1  11
BRANCH   1  20
ATOM     20  C   UNL     1       2.641  -0.991  -5.862  0.00  0.00    +0.228 C 
BRANCH  20  21
ATOM     21  C   UNL     1       3.553   0.191  -5.657  0.00  0.00    +0.251 C 
ATOM     22  O   UNL     1       4.156   0.318  -4.612  0.00  0.00    -0.272 OA
ATOM     23  N   UNL     1       3.699   1.108  -6.634  0.00  0.00    -0.206 N 
ATOM     24  H   UNL     1       3.217   1.007  -7.470  0.00  0.00    +0.177 HD
BRANCH  23  25
ATOM     25  N   UNL     1       4.546   2.207  -6.443  0.00  0.00    -0.188 NA
ATOM     26  C   UNL     1       4.687   3.089  -7.384  0.00  0.00    +0.138 C 
BRANCH  26  27
ATOM     27  C   UNL     1       5.579   4.246  -7.183  0.00  0.00    -0.005 A 
ATOM     28  C   UNL     1       6.279   4.392  -5.983  0.00  0.00    +0.010 A 
ATOM     29  C   UNL     1       7.112   5.476  -5.802  0.00  0.00    +0.016 A 
ATOM     30  C   UNL     1       7.256   6.418  -6.806  0.00  0.00    +0.018 A 
ATOM     31  C   UNL     1       6.564   6.280  -7.997  0.00  0.00    +0.016 A 
ATOM     32  C   UNL     1       5.732   5.198  -8.194  0.00  0.00    +0.010 A 
ATOM     33 BR   UNL     1       8.400   7.902  -6.548  0.00  0.00    -0.050 Br
ENDBRANCH  26  27
ENDBRANCH  23  25
ENDBRANCH  20  21
ENDBRANCH   1  20
TORSDOF 8
