REMARK  Name = ZINC67080501
REMARK  5 active torsions:
REMARK  status: ('A' for Active; 'I' for Inactive)
REMARK    1  A    between atoms: C_8  and  C_11
REMARK    2  A    between atoms: N_13  and  N_14
REMARK    3  A    between atoms: N_17  and  C_18
REMARK    4  A    between atoms: C_18  and  C_19
REMARK    5  A    between atoms: C_19  and  C_22
REMARK                            x       y       z     vdW  Elec       q    Type
REMARK                         _______ _______ _______ _____ _____    ______ ____
ROOT
ATOM      1  N   UNL     1       2.924  -3.512  -3.928  0.00  0.00    -0.218 N 
ATOM      2  C   UNL     1       2.631  -4.675  -4.542  0.00  0.00    +0.316 C 
ATOM      3  O   UNL     1       2.825  -4.798  -5.736  0.00  0.00    -0.251 OA
ATOM      4  N   UNL     1       2.121  -5.702  -3.833  0.00  0.00    -0.297 N 
ATOM      5  H   UNL     1       3.220  -2.749  -4.449  0.00  0.00    +0.174 HD
ATOM      6  H   UNL     1       1.895  -5.581  -2.898  0.00  0.00    +0.150 HD
ENDROOT
BRANCH   1   9
ATOM      7  C   UNL     1       3.192  -2.276  -1.911  0.00  0.00    +0.270 C 
ATOM      8  O   UNL     1       3.647  -1.353  -2.553  0.00  0.00    -0.270 OA
ATOM      9  N   UNL     1       2.803  -3.405  -2.536  0.00  0.00    -0.230 N 
ATOM     10  H   UNL     1       2.439  -4.143  -2.023  0.00  0.00    +0.173 HD
BRANCH   7  18
ATOM     11  C   UNL     1       0.015   1.344   0.110  0.00  0.00    +0.000 A 
ATOM     12  C   UNL     1       1.206   2.047   0.101  0.00  0.00    +0.004 A 
ATOM     13  C   UNL     1       2.410   1.376   0.075  0.00  0.00    +0.046 A 
ATOM     14  C   UNL     1       2.438  -0.017   0.056  0.00  0.00    +0.125 A 
ATOM     15  C   UNL     1       1.235  -0.711   0.058  0.00  0.00    -0.002 A 
ATOM     16  C   UNL     1       0.033  -0.039   0.089  0.00  0.00    +0.007 A 
ATOM     17  C   UNL     1       1.575  -2.188   0.010  0.00  0.00    +0.093 C 
ATOM     18  C   UNL     1       3.062  -2.161  -0.414  0.00  0.00    +0.264 C 
ATOM     19  O   UNL     1       3.499  -0.869   0.041  0.00  0.00    -0.479 OA
ENDBRANCH   7  18
ENDBRANCH   1   9
BRANCH   4  20
ATOM     20  C   UNL     1       1.908  -7.001  -4.476  0.00  0.00    +0.117 C 
BRANCH  20  21
ATOM     21  C   UNL     1       1.443  -8.017  -3.430  0.00  0.00    +0.011 C 
ATOM     22  C   UNL     1       0.255  -8.911  -3.793  0.00  0.00    +0.014 C 
ATOM     23  C   UNL     1       0.081  -7.782  -2.774  0.00  0.00    +0.014 C 
BRANCH  21  24
ATOM     24  C   UNL     1       2.531  -8.617  -2.578  0.00  0.00    -0.040 A 
ATOM     25  C   UNL     1       2.252  -9.024  -1.287  0.00  0.00    +0.005 A 
ATOM     26  C   UNL     1       3.250  -9.575  -0.505  0.00  0.00    +0.020 A 
ATOM     27  C   UNL     1       4.528  -9.719  -1.014  0.00  0.00    +0.041 A 
ATOM     28  C   UNL     1       4.807  -9.312  -2.307  0.00  0.00    +0.020 A 
ATOM     29  C   UNL     1       3.807  -8.766  -3.090  0.00  0.00    +0.005 A 
ATOM     30 CL   UNL     1       5.782 -10.410  -0.033  0.00  0.00    -0.084 Cl
ENDBRANCH  21  24
ENDBRANCH  20  21
ENDBRANCH   4  20
TORSDOF 5
