REMARK  Name = ZINC35520644
REMARK  6 active torsions:
REMARK  status: ('A' for Active; 'I' for Inactive)
REMARK    1  A    between atoms: C_1  and  C_2
REMARK    2  A    between atoms: C_2  and  C_3
REMARK    3  A    between atoms: C_3  and  O_4
REMARK    4  A    between atoms: O_4  and  C_5
REMARK    5  A    between atoms: C_10  and  C_16
REMARK    6  A    between atoms: N_18  and  C_19
REMARK                            x       y       z     vdW  Elec       q    Type
REMARK                         _______ _______ _______ _____ _____    ______ ____
ROOT
ATOM      1  C   UNL     1       1.293  -2.521  -2.350  0.00  0.00    +0.124 A 
ATOM      2  C   UNL     1       1.869  -1.744  -3.356  0.00  0.00    +0.046 A 
ATOM      3  C   UNL     1       2.478  -2.335  -4.423  0.00  0.00    +0.015 A 
ATOM      4  C   UNL     1       2.518  -3.735  -4.518  0.00  0.00    +0.019 A 
ATOM      5  C   UNL     1       3.115  -4.362  -5.638  0.00  0.00    +0.031 A 
ATOM      6  C   UNL     1       2.954  -5.735  -5.784  0.00  0.00    +0.122 A 
ATOM      7  C   UNL     1       2.140  -6.432  -4.773  0.00  0.00    +0.350 A 
ATOM      8  O   UNL     1       1.569  -7.474  -5.033  0.00  0.00    -0.244 OA
ATOM      9  O   UNL     1       2.050  -5.873  -3.543  0.00  0.00    -0.422 OA
ATOM     10  C   UNL     1       1.963  -4.522  -3.489  0.00  0.00    +0.143 A 
ATOM     11  C   UNL     1       1.347  -3.904  -2.412  0.00  0.00    +0.092 A 
ENDROOT
BRANCH   6  12
ATOM     12  C   UNL     1       3.570  -6.463  -6.905  0.00  0.00    +0.255 C 
ATOM     13  O   UNL     1       4.237  -5.863  -7.727  0.00  0.00    -0.270 OA
ATOM     14  N   UNL     1       3.395  -7.794  -7.021  0.00  0.00    -0.280 N 
ATOM     15  H   UNL     1       2.933  -8.285  -6.324  0.00  0.00    +0.155 HD
BRANCH  14  16
ATOM     16  C   UNL     1       3.882  -8.468  -8.146  0.00  0.00    +0.054 A 
ATOM     17  C   UNL     1       4.066  -7.785  -9.341  0.00  0.00    +0.046 A 
ATOM     18  C   UNL     1       4.546  -8.453 -10.451  0.00  0.00    +0.061 A 
ATOM     19  C   UNL     1       4.844  -9.803 -10.373  0.00  0.00    +0.061 A 
ATOM     20  C   UNL     1       4.661 -10.487  -9.185  0.00  0.00    +0.043 A 
ATOM     21  C   UNL     1       4.187  -9.822  -8.069  0.00  0.00    +0.064 A 
ATOM     22 CL   UNL     1       3.965 -10.679  -6.576  0.00  0.00    -0.082 Cl
ATOM     23 CL   UNL     1       5.446 -10.640 -11.770  0.00  0.00    -0.082 Cl
ATOM     24 CL   UNL     1       4.777  -7.599 -11.945  0.00  0.00    -0.082 Cl
ENDBRANCH  14  16
ENDBRANCH   6  12
BRANCH   1  25
ATOM     25  O   UNL     1       0.681  -1.917  -1.301  0.00  0.00    -0.492 OA
BRANCH  25  26
ATOM     26  C   UNL     1       0.659  -0.488  -1.296  0.00  0.00    +0.229 C 
BRANCH  26  28
ATOM     27  C   UNL     1      -0.091   1.537  -0.040  0.00  0.00    +0.007 C 
ATOM     28  C   UNL     1      -0.068   0.007  -0.045  0.00  0.00    +0.038 C 
ENDBRANCH  26  28
ENDBRANCH  25  26
ENDBRANCH   1  25
TORSDOF 5
