REMARK  Name = ZINC01868311
REMARK  7 active torsions:
REMARK  status: ('A' for Active; 'I' for Inactive)
REMARK    1  A    between atoms: C_1  and  N_2
REMARK    2  A    between atoms: N_2  and  C_3
REMARK    3  A    between atoms: N_2  and  S_4
REMARK    4  A    between atoms: S_4  and  C_7
REMARK    5  A    between atoms: C_10  and  C_13
REMARK    6  A    between atoms: C_14  and  C_15
REMARK    7  A    between atoms: C_14  and  C_21
REMARK                            x       y       z     vdW  Elec       q    Type
REMARK                         _______ _______ _______ _____ _____    ______ ____
ROOT
ATOM      1  C   UNL     1       3.945  -1.341  -1.271  0.00  0.00    +0.017 C 
ATOM      2  C   UNL     1       3.760  -0.665  -0.110  0.00  0.00    -0.010 C 
ENDROOT
BRANCH   1   6
ATOM      3  C   UNL     1       7.736  -3.018  -2.167  0.00  0.00    +0.105 A 
ATOM      4  C   UNL     1       7.253  -3.061  -0.871  0.00  0.00    +0.029 A 
ATOM      5  C   UNL     1       6.021  -2.518  -0.571  0.00  0.00    +0.010 A 
ATOM      6  C   UNL     1       5.260  -1.922  -1.581  0.00  0.00    -0.024 A 
ATOM      7  C   UNL     1       5.752  -1.887  -2.890  0.00  0.00    +0.010 A 
ATOM      8  C   UNL     1       6.988  -2.429  -3.172  0.00  0.00    +0.029 A 
BRANCH   3   9
ATOM      9  S   UNL     1       9.311  -3.715  -2.539  0.00  0.00    +0.060 S 
ATOM     10  O   UNL     1       9.776  -3.063  -3.713  0.00  0.00    -0.153 OA
ATOM     11  O   UNL     1      10.050  -3.718  -1.326  0.00  0.00    -0.153 OA
BRANCH   9  13
ATOM     12  C   UNL     1       8.810  -5.668  -4.341  0.00  0.00    +0.131 C 
ATOM     13  N   UNL     1       9.061  -5.301  -2.946  0.00  0.00    -0.183 NA
ATOM     14  C   UNL     1       9.090  -6.336  -1.909  0.00  0.00    +0.131 C 
ENDBRANCH   9  13
ENDBRANCH   3   9
ENDBRANCH   1   6
BRANCH   2  15
ATOM     15  C   UNL     1       2.404  -0.217   0.277  0.00  0.00    -0.017 A 
ATOM     16  C   UNL     1       1.410  -1.155   0.558  0.00  0.00    +0.008 A 
ATOM     17  C   UNL     1       0.147  -0.731   0.918  0.00  0.00    +0.001 A 
ATOM     18  C   UNL     1      -0.134   0.622   1.000  0.00  0.00    +0.000 A 
ATOM     19  C   UNL     1       0.848   1.557   0.723  0.00  0.00    +0.001 A 
ATOM     20  C   UNL     1       2.114   1.145   0.362  0.00  0.00    +0.008 A 
ENDBRANCH   2  15
BRANCH   2  21
ATOM     21  C   UNL     1       4.915  -0.376   0.769  0.00  0.00    -0.017 A 
ATOM     22  C   UNL     1       4.958  -0.898   2.062  0.00  0.00    +0.008 A 
ATOM     23  C   UNL     1       6.040  -0.629   2.876  0.00  0.00    +0.001 A 
ATOM     24  C   UNL     1       7.074   0.167   2.416  0.00  0.00    +0.000 A 
ATOM     25  C   UNL     1       7.034   0.693   1.136  0.00  0.00    +0.001 A 
ATOM     26  C   UNL     1       5.961   0.426   0.311  0.00  0.00    +0.008 A 
ENDBRANCH   2  21
TORSDOF 5
