REMARK  Name = ZINC66200377
REMARK  15 active torsions:
REMARK  status: ('A' for Active; 'I' for Inactive)
REMARK    1  A    between atoms: C_1  and  C_2
REMARK    2  A    between atoms: C_2  and  C_3
REMARK    3  A    between atoms: C_3  and  C_5
REMARK    4  A    between atoms: C_3  and  C_6
REMARK    5  A    between atoms: C_11  and  O_12
REMARK    6  A    between atoms: O_12  and  C_13
REMARK    7  A    between atoms: C_13  and  C_15
REMARK    8  A    between atoms: C_13  and  C_17
REMARK    9  A    between atoms: C_15  and  C_16
REMARK   10  A    between atoms: N_19  and  C_20
REMARK   11  A    between atoms: C_23  and  S_26
REMARK   12  A    between atoms: S_26  and  N_29
REMARK   13  A    between atoms: N_29  and  C_30
REMARK   14  A    between atoms: C_31  and  O_36
REMARK   15  A    between atoms: O_36  and  C_37
REMARK                            x       y       z     vdW  Elec       q    Type
REMARK                         _______ _______ _______ _____ _____    ______ ____
ROOT
ATOM      1  C   UNL     1       5.567  -1.673   0.620  0.00  0.00    +0.258 C 
ATOM      2  O   UNL     1       5.303  -0.596   0.129  0.00  0.00    -0.271 OA
ATOM      3  N   UNL     1       6.846  -2.095   0.671  0.00  0.00    -0.282 N 
ATOM      4  H   UNL     1       7.051  -2.986   0.993  0.00  0.00    +0.155 HD
ENDROOT
BRANCH   3   5
ATOM      5  C   UNL     1       7.880  -1.246   0.259  0.00  0.00    +0.034 A 
ATOM      6  C   UNL     1       9.014  -1.772  -0.344  0.00  0.00    +0.025 A 
ATOM      7  C   UNL     1      10.033  -0.932  -0.749  0.00  0.00    +0.031 A 
ATOM      8  C   UNL     1       9.923   0.433  -0.555  0.00  0.00    +0.111 A 
ATOM      9  C   UNL     1       8.795   0.960   0.046  0.00  0.00    +0.031 A 
ATOM     10  C   UNL     1       7.771   0.126   0.448  0.00  0.00    +0.025 A 
BRANCH   8  11
ATOM     11  S   UNL     1      11.225   1.502  -1.073  0.00  0.00    +0.093 S 
ATOM     12  O   UNL     1      11.120   2.680  -0.286  0.00  0.00    -0.148 OA
ATOM     13  O   UNL     1      12.407   0.714  -1.111  0.00  0.00    -0.148 OA
BRANCH  11  14
ATOM     14  N   UNL     1      10.901   1.946  -2.635  0.00  0.00    -0.072 NA
BRANCH  14  15
ATOM     15  C   UNL     1      11.770   2.798  -3.311  0.00  0.00    +0.225 A 
ATOM     16  C   UNL     1      11.495   3.180  -4.629  0.00  0.00    +0.259 A 
ATOM     17  N   UNL     1      12.326   3.989  -5.264  0.00  0.00    -0.217 NA
ATOM     18  C   UNL     1      13.412   4.436  -4.653  0.00  0.00    +0.134 A 
ATOM     19  C   UNL     1      13.684   4.061  -3.354  0.00  0.00    +0.133 A 
ATOM     20  N   UNL     1      12.856   3.255  -2.707  0.00  0.00    -0.231 NA
BRANCH  16  21
ATOM     21  O   UNL     1      10.381   2.720  -5.254  0.00  0.00    -0.477 OA
ATOM     22  C   UNL     1      10.167   3.152  -6.599  0.00  0.00    +0.279 C 
ENDBRANCH  16  21
ENDBRANCH  14  15
ENDBRANCH  11  14
ENDBRANCH   8  11
ENDBRANCH   3   5
BRANCH   1  23
ATOM     23  C   UNL     1       4.466  -2.539   1.174  0.00  0.00    +0.259 C 
BRANCH  23  24
ATOM     24  C   UNL     1       4.644  -2.688   2.686  0.00  0.00    +0.051 C 
ATOM     25  C   UNL     1       3.602  -3.666   3.229  0.00  0.00    +0.008 C 
ENDBRANCH  23  24
BRANCH  23  26
ATOM     26  O   UNL     1       3.200  -1.933   0.901  0.00  0.00    -0.479 OA
BRANCH  26  32
ATOM     27  C   UNL     1       0.876  -2.251   0.504  0.00  0.00    -0.003 A 
ATOM     28  C   UNL     1      -0.189  -3.101   0.278  0.00  0.00    +0.007 A 
ATOM     29  C   UNL     1       0.014  -4.468   0.236  0.00  0.00    +0.001 A 
ATOM     30  C   UNL     1       1.282  -4.987   0.421  0.00  0.00    +0.004 A 
ATOM     31  C   UNL     1       2.350  -4.141   0.647  0.00  0.00    +0.046 A 
ATOM     32  C   UNL     1       2.151  -2.768   0.684  0.00  0.00    +0.125 A 
BRANCH  27  33
ATOM     33  C   UNL     1       0.655  -0.761   0.550  0.00  0.00    +0.019 C 
ATOM     34  C   UNL     1      -0.325  -0.425   1.676  0.00  0.00    +0.012 C 
BRANCH  33  36
ATOM     35  C   UNL     1      -0.032   1.236  -0.786  0.00  0.00    +0.004 C 
ATOM     36  C   UNL     1       0.077  -0.290  -0.786  0.00  0.00    +0.004 C 
ENDBRANCH  33  36
ENDBRANCH  27  33
ENDBRANCH  26  32
ENDBRANCH  23  26
ENDBRANCH   1  23
TORSDOF 11
