REMARK  Name = ZINC01190646
REMARK  8 active torsions:
REMARK  status: ('A' for Active; 'I' for Inactive)
REMARK    1  A    between atoms: C_4  and  C_7
REMARK    2  A    between atoms: C_10  and  C_13
REMARK    3  A    between atoms: C_16  and  C_18
REMARK    4  A    between atoms: C_18  and  C_31
REMARK    5  A    between atoms: C_19  and  N_20
REMARK    6  A    between atoms: N_20  and  C_21
REMARK    7  A    between atoms: C_24  and  S_27
REMARK    8  A    between atoms: S_27  and  N_30
REMARK                            x       y       z     vdW  Elec       q    Type
REMARK                         _______ _______ _______ _____ _____    ______ ____
ROOT
ATOM      1  C   UNL     1      11.084  -2.143  -0.103  0.00  0.00    +0.098 C 
ATOM      2  C   UNL     1      12.166  -2.971  -0.121  0.00  0.00    +0.093 C 
ENDROOT
BRANCH   1   6
ATOM      3  C   UNL     1       7.416  -2.757  -0.088  0.00  0.00    +0.079 A 
ATOM      4  C   UNL     1       7.444  -4.126  -0.106  0.00  0.00    +0.075 A 
ATOM      5  S   UNL     1       9.208  -4.421  -0.121  0.00  0.00    -0.074 S 
ATOM      6  C   UNL     1       9.721  -2.709  -0.102  0.00  0.00    +0.120 A 
ATOM      7  N   UNL     1       8.554  -2.084  -0.092  0.00  0.00    -0.238 NA
BRANCH   3  11
ATOM      8  C   UNL     1       3.698  -0.688  -0.038  0.00  0.00    -0.018 A 
ATOM      9  C   UNL     1       4.895   0.028  -0.041  0.00  0.00    +0.009 A 
ATOM     10  C   UNL     1       6.098  -0.641  -0.057  0.00  0.00    +0.010 A 
ATOM     11  C   UNL     1       6.120  -2.036  -0.070  0.00  0.00    +0.001 A 
ATOM     12  C   UNL     1       4.923  -2.752  -0.068  0.00  0.00    +0.010 A 
ATOM     13  C   UNL     1       3.720  -2.083  -0.046  0.00  0.00    +0.009 A 
BRANCH   8  17
ATOM     14  C   UNL     1      -0.017   1.379   0.010  0.00  0.00    +0.000 A 
ATOM     15  C   UNL     1       1.169   2.092   0.002  0.00  0.00    +0.001 A 
ATOM     16  C   UNL     1       2.377   1.427  -0.013  0.00  0.00    +0.008 A 
ATOM     17  C   UNL     1       2.402   0.033  -0.021  0.00  0.00    -0.018 A 
ATOM     18  C   UNL     1       1.205  -0.680  -0.013  0.00  0.00    +0.008 A 
ATOM     19  C   UNL     1       0.002  -0.004   0.002  0.00  0.00    +0.001 A 
ENDBRANCH   8  17
ENDBRANCH   3  11
ENDBRANCH   1   6
BRANCH   2  20
ATOM     20  N   UNL     1      13.428  -2.447  -0.122  0.00  0.00    -0.319 N 
ATOM     21  H   UNL     1      13.553  -1.486  -0.109  0.00  0.00    +0.152 HD
BRANCH  20  22
ATOM     22  C   UNL     1      14.537  -3.296  -0.140  0.00  0.00    +0.031 A 
ATOM     23  C   UNL     1      14.359  -4.674  -0.164  0.00  0.00    +0.025 A 
ATOM     24  C   UNL     1      15.458  -5.511  -0.183  0.00  0.00    +0.030 A 
ATOM     25  C   UNL     1      16.734  -4.978  -0.178  0.00  0.00    +0.105 A 
ATOM     26  C   UNL     1      16.915  -3.608  -0.154  0.00  0.00    +0.030 A 
ATOM     27  C   UNL     1      15.821  -2.765  -0.141  0.00  0.00    +0.025 A 
BRANCH  25  28
ATOM     28  S   UNL     1      18.133  -6.049  -0.203  0.00  0.00    +0.056 S 
ATOM     29  O   UNL     1      19.215  -5.317   0.357  0.00  0.00    -0.153 OA
ATOM     30  O   UNL     1      17.701  -7.295   0.328  0.00  0.00    -0.153 OA
BRANCH  28  31
ATOM     31  N   UNL     1      18.516  -6.319  -1.791  0.00  0.00    -0.204 NA
ATOM     32  H   UNL     1      17.990  -5.906  -2.494  0.00  0.00    +0.144 HD
ATOM     33  H   UNL     1      19.266  -6.890  -2.019  0.00  0.00    +0.144 HD
ENDBRANCH  28  31
ENDBRANCH  25  28
ENDBRANCH  20  22
ENDBRANCH   2  20
BRANCH   1  34
ATOM     34  C   UNL     1      11.270  -0.723  -0.084  0.00  0.00    +0.103 C 
ATOM     35  N   UNL     1      11.417   0.403  -0.070  0.00  0.00    -0.191 NA
ENDBRANCH   1  34
TORSDOF 8
