REMARK  Name = ZINC38779330
REMARK  7 active torsions:
REMARK  status: ('A' for Active; 'I' for Inactive)
REMARK    1  A    between atoms: C_1  and  O_2
REMARK    2  A    between atoms: O_2  and  C_3
REMARK    3  A    between atoms: C_6  and  C_11
REMARK    4  A    between atoms: C_8  and  O_9
REMARK    5  A    between atoms: O_9  and  C_10
REMARK    6  A    between atoms: N_15  and  N_16
REMARK    7  A    between atoms: N_16  and  C_17
REMARK                            x       y       z     vdW  Elec       q    Type
REMARK                         _______ _______ _______ _____ _____    ______ ____
ROOT
ATOM      1  C   UNL     1       2.604  -1.957   4.733  0.00  0.00    +0.210 C 
ATOM      2  C   UNL     1       1.650  -2.304   5.886  0.00  0.00    +0.107 C 
ATOM      3  C   UNL     1       2.400  -3.236   6.822  0.00  0.00    +0.073 C 
ATOM      4  N   UNL     1       1.820  -4.253   7.380  0.00  0.00    -0.188 NA
ATOM      5  C   UNL     1       3.826  -2.923   7.062  0.00  0.00    +0.040 A 
ATOM      6  C   UNL     1       4.532  -3.558   8.081  0.00  0.00    +0.013 A 
ATOM      7  C   UNL     1       5.863  -3.252   8.283  0.00  0.00    +0.001 A 
ATOM      8  C   UNL     1       6.491  -2.319   7.475  0.00  0.00    +0.004 A 
ATOM      9  C   UNL     1       5.798  -1.683   6.463  0.00  0.00    +0.046 A 
ATOM     10  C   UNL     1       4.460  -1.976   6.247  0.00  0.00    +0.130 A 
ATOM     11  O   UNL     1       3.780  -1.343   5.259  0.00  0.00    -0.483 OA
ENDROOT
BRANCH   1  15
ATOM     12  C   UNL     1       0.668   0.748   2.045  0.00  0.00    +0.162 A 
ATOM     13  C   UNL     1       1.318   1.231   3.170  0.00  0.00    +0.050 A 
ATOM     14  C   UNL     1       1.942   0.354   4.037  0.00  0.00    +0.011 A 
ATOM     15  C   UNL     1       1.921  -1.005   3.785  0.00  0.00    -0.003 A 
ATOM     16  C   UNL     1       1.275  -1.493   2.664  0.00  0.00    +0.056 A 
ATOM     17  C   UNL     1       0.641  -0.620   1.794  0.00  0.00    +0.162 A 
BRANCH  12  19
ATOM     18  C   UNL     1       0.121   3.001   1.512  0.00  0.00    +0.277 C 
ATOM     19  O   UNL     1       0.053   1.610   1.191  0.00  0.00    -0.491 OA
ENDBRANCH  12  19
BRANCH  17  20
ATOM     20  O   UNL     1       0.000  -1.099   0.695  0.00  0.00    -0.491 OA
ATOM     21  C   UNL     1       0.014  -2.515   0.501  0.00  0.00    +0.277 C 
ENDBRANCH  17  20
ENDBRANCH   1  15
BRANCH   4  22
ATOM     22  N   UNL     1       2.591  -5.315   7.872  0.00  0.00    -0.229 N 
ATOM     23  H   UNL     1       3.547  -5.336   7.711  0.00  0.00    +0.172 HD
BRANCH  22  24
ATOM     24  C   UNL     1       1.952  -6.394   8.630  0.00  0.00    +0.283 C 
ATOM     25  N   UNL     1       2.009  -6.103  10.068  0.00  0.00    -0.347 N 
ATOM     26  C   UNL     1       2.685  -7.060  10.634  0.00  0.00    +0.061 A 
ATOM     27  C   UNL     1       3.071  -7.322  12.027  0.00  0.00    +0.027 A 
ATOM     28  C   UNL     1       3.791  -8.423  12.323  0.00  0.00    +0.002 A 
ATOM     29  C   UNL     1       4.195  -9.349  11.345  0.00  0.00    +0.002 A 
ATOM     30  C   UNL     1       3.895  -9.204  10.038  0.00  0.00    +0.027 A 
ATOM     31  C   UNL     1       3.113  -8.041   9.599  0.00  0.00    +0.061 A 
ATOM     32  N   UNL     1       2.685  -7.651   8.433  0.00  0.00    -0.347 N 
ATOM     33  H   UNL     1       1.616  -5.337  10.514  0.00  0.00    +0.163 HD
ATOM     34  H   UNL     1       2.825  -8.107   7.588  0.00  0.00    +0.163 HD
ENDBRANCH  22  24
ENDBRANCH   4  22
TORSDOF 5
