REMARK  Name = ZINC21995542
REMARK  4 active torsions:
REMARK  status: ('A' for Active; 'I' for Inactive)
REMARK    1  A    between atoms: C_1  and  C_2
REMARK    2  A    between atoms: C_3  and  O_10
REMARK    3  A    between atoms: C_7  and  C_8
REMARK    4  A    between atoms: C_7  and  C_9
REMARK                            x       y       z     vdW  Elec       q    Type
REMARK                         _______ _______ _______ _____ _____    ______ ____
ROOT
ATOM      1  C   UNL     1      -3.014   3.107  -1.421  0.00  0.00    +0.043 C 
ATOM      2  C   UNL     1      -1.960   2.397  -0.613  0.00  0.00    -0.022 C 
ATOM      3  C   UNL     1      -1.915   2.367   0.715  0.00  0.00    +0.159 C 
ATOM      4  C   UNL     1      -0.771   1.599   1.214  0.00  0.00    +0.198 C 
ATOM      5  O   UNL     1      -0.484   1.407   2.377  0.00  0.00    -0.289 OA
ATOM      6  C   UNL     1      -0.013   1.086   0.008  0.00  0.00    +0.093 C 
ATOM      7  C   UNL     1      -0.807   1.620  -1.197  0.00  0.00    -0.003 C 
ATOM      8  C   UNL     1       0.074   2.540  -2.045  0.00  0.00    +0.016 C 
ATOM      9  C   UNL     1      -1.326   0.458  -2.045  0.00  0.00    +0.016 C 
ENDROOT
BRANCH   3  10
ATOM     10  O   UNL     1      -2.826   2.980   1.519  0.00  0.00    -0.503 OA
ATOM     11  H   UNL     1      -2.727   2.913   2.612  0.00  0.00    +0.292 HD
ENDBRANCH   3  10
TORSDOF 1
