REMARK  Name = ZINC42196239
REMARK  3 active torsions:
REMARK  status: ('A' for Active; 'I' for Inactive)
REMARK    1  A    between atoms: C_6  and  C_7
REMARK    2  A    between atoms: N_9  and  N_10
REMARK    3  A    between atoms: N_10  and  C_11
REMARK                            x       y       z     vdW  Elec       q    Type
REMARK                         _______ _______ _______ _____ _____    ______ ____
ROOT
ATOM      1  N   UNL     1      -2.116  -3.085   0.006  0.00  0.00    -0.261 N 
ATOM      2  H   UNL     1      -3.010  -2.708   0.028  0.00  0.00    +0.170 HD
ENDROOT
BRANCH   1   3
ATOM      3  C   UNL     1      -1.942  -4.468  -0.108  0.00  0.00    +0.081 A 
ATOM      4  C   UNL     1      -2.813  -5.217  -0.891  0.00  0.00    +0.066 A 
ATOM      5  C   UNL     1      -2.639  -6.583  -1.002  0.00  0.00    +0.042 A 
ATOM      6  C   UNL     1      -1.599  -7.206  -0.335  0.00  0.00    +0.044 A 
ATOM      7  C   UNL     1      -0.730  -6.464   0.445  0.00  0.00    +0.042 A 
ATOM      8  C   UNL     1      -0.895  -5.096   0.555  0.00  0.00    +0.066 A 
ATOM      9 CL   UNL     1       0.200  -4.164   1.528  0.00  0.00    -0.081 Cl
ATOM     10 CL   UNL     1      -1.383  -8.923  -0.478  0.00  0.00    -0.083 Cl
ATOM     11 CL   UNL     1      -4.119  -4.436  -1.727  0.00  0.00    -0.081 Cl
ENDBRANCH   1   3
BRANCH   1  14
ATOM     12  C   UNL     1      -1.165  -0.925   0.316  0.00  0.00    +0.280 C 
ATOM     13  O   UNL     1      -2.283  -0.466   0.445  0.00  0.00    -0.267 OA
ATOM     14  N   UNL     1      -1.000  -2.243   0.091  0.00  0.00    -0.231 N 
ATOM     15  H   UNL     1      -0.107  -2.609  -0.013  0.00  0.00    +0.173 HD
BRANCH  12  21
ATOM     16  C   UNL     1      -0.001   1.359   0.634  0.00  0.00    +0.054 A 
ATOM     17  C   UNL     1       1.299   1.738   0.634  0.00  0.00    +0.105 A 
ATOM     18  N   UNL     1       2.039   0.630   0.416  0.00  0.00    -0.284 N 
ATOM     19  H   UNL     1       3.007   0.610   0.367  0.00  0.00    +0.188 HD
ATOM     20  N   UNL     1       1.276  -0.395   0.284  0.00  0.00    -0.169 NA
ATOM     21  C   UNL     1       0.013  -0.037   0.404  0.00  0.00    +0.148 A 
ENDBRANCH  12  21
ENDBRANCH   1  14
TORSDOF 3
