REMARK  Name = ZINC19803537
REMARK  5 active torsions:
REMARK  status: ('A' for Active; 'I' for Inactive)
REMARK    1  A    between atoms: C_4  and  N_7
REMARK    2  A    between atoms: N_10  and  C_13
REMARK    3  A    between atoms: C_13  and  C_15
REMARK    4  A    between atoms: C_13  and  C_17
REMARK    5  A    between atoms: C_15  and  N_16
REMARK                            x       y       z     vdW  Elec       q    Type
REMARK                         _______ _______ _______ _____ _____    ______ ____
ROOT
ATOM      1  N   UNL     1       1.735  -0.557   1.105  0.00  0.00    -0.327 N 
ATOM      2  C   UNL     1       0.356  -1.002   0.860  0.00  0.00    +0.120 C 
ATOM      3  C   UNL     1      -0.224  -0.227  -0.325  0.00  0.00    +0.104 C 
ATOM      4  N   UNL     1      -0.182   1.213  -0.034  0.00  0.00    -0.291 NA
ATOM      5  C   UNL     1       1.197   1.657   0.211  0.00  0.00    +0.104 C 
ATOM      6  C   UNL     1       1.777   0.883   1.397  0.00  0.00    +0.120 C 
ENDROOT
BRANCH   1  10
ATOM      7  C   UNL     1       3.486  -2.752   4.180  0.00  0.00    +0.000 A 
ATOM      8  C   UNL     1       4.207  -1.758   3.545  0.00  0.00    +0.002 A 
ATOM      9  C   UNL     1       3.630  -1.028   2.525  0.00  0.00    +0.023 A 
ATOM     10  C   UNL     1       2.323  -1.294   2.136  0.00  0.00    +0.030 A 
ATOM     11  C   UNL     1       1.599  -2.290   2.780  0.00  0.00    +0.023 A 
ATOM     12  C   UNL     1       2.185  -3.020   3.796  0.00  0.00    +0.002 A 
ENDBRANCH   1  10
BRANCH   4  13
ATOM     13  C   UNL     1      -0.800   1.987  -1.118  0.00  0.00    +0.105 C 
BRANCH  13  14
ATOM     14  C   UNL     1      -0.058   1.731  -2.405  0.00  0.00    +0.122 A 
ATOM     15  C   UNL     1      -0.620   1.430  -3.590  0.00  0.00    +0.047 A 
ATOM     16  C   UNL     1       0.437   1.276  -4.516  0.00  0.00    +0.057 A 
ATOM     17  C   UNL     1       1.582   1.483  -3.840  0.00  0.00    +0.170 A 
ATOM     18  O   UNL     1       1.276   1.758  -2.562  0.00  0.00    -0.452 OA
ATOM     19 BR   UNL     1       3.326   1.401  -4.566  0.00  0.00    -0.008 Br
ENDBRANCH  13  14
BRANCH  13  20
ATOM     20  C   UNL     1      -0.735   3.478  -0.781  0.00  0.00    -0.059 C 
BRANCH  20  21
ATOM     21  N   UNL     1      -1.354   3.711   0.531  0.00  0.00    +0.379 N 
ATOM     22  H   UNL     1      -1.307   4.783   0.774  0.00  0.00    -0.090 HD
ATOM     23  H   UNL     1      -0.812   3.137   1.298  0.00  0.00    -0.090 HD
ATOM     24  H   UNL     1      -2.404   3.386   0.504  0.00  0.00    -0.090 HD
ENDBRANCH  20  21
ENDBRANCH  13  20
ENDBRANCH   4  13
TORSDOF 5
