REMARK  Name = ZINC17315967
REMARK  9 active torsions:
REMARK  status: ('A' for Active; 'I' for Inactive)
REMARK    1  A    between atoms: C_1  and  C_2
REMARK    2  A    between atoms: C_2  and  O_3
REMARK    3  A    between atoms: O_3  and  C_4
REMARK    4  A    between atoms: C_9  and  N_10
REMARK    5  A    between atoms: C_11  and  C_13
REMARK    6  A    between atoms: C_13  and  S_14
REMARK    7  A    between atoms: S_14  and  C_15
REMARK    8  A    between atoms: N_23  and  C_27
REMARK    9  A    between atoms: C_32  and  C_33
REMARK                            x       y       z     vdW  Elec       q    Type
REMARK                         _______ _______ _______ _____ _____    ______ ____
ROOT
ATOM      1  C   UNL     1      -0.987   3.488   0.064  0.00  0.00    +0.172 A 
ATOM      2  N   UNL     1       0.219   4.124   0.061  0.00  0.00    -0.301 N 
ATOM      3  H   UNL     1       0.265   5.093   0.063  0.00  0.00    +0.171 HD
ATOM      4  C   UNL     1       1.351   3.380   0.057  0.00  0.00    +0.268 A 
ATOM      5  O   UNL     1       2.450   3.912   0.055  0.00  0.00    -0.267 OA
ATOM      6  C   UNL     1       1.229   1.997   0.056  0.00  0.00    +0.122 A 
ATOM      7  C   UNL     1      -0.017   1.367   0.059  0.00  0.00    +0.161 A 
ATOM      8  N   UNL     1      -1.099   2.184   0.068  0.00  0.00    -0.204 NA
ATOM      9  N   UNL     1       0.002  -0.006   0.057  0.00  0.00    -0.281 N 
ATOM     10  C   UNL     1       1.169  -0.682   0.054  0.00  0.00    +0.132 A 
ATOM     11  S   UNL     1       1.430  -2.374   0.053  0.00  0.00    -0.024 S 
ATOM     12  S   UNL     1       2.371   0.639   0.052  0.00  0.00    -0.055 S 
ENDROOT
BRANCH   9  13
ATOM     13  C   UNL     1      -1.208  -0.713   0.060  0.00  0.00    +0.052 A 
ATOM     14  C   UNL     1      -1.811  -1.064  -1.141  0.00  0.00    +0.026 A 
ATOM     15  C   UNL     1      -3.003  -1.762  -1.135  0.00  0.00    +0.002 A 
ATOM     16  C   UNL     1      -3.595  -2.111   0.065  0.00  0.00    +0.000 A 
ATOM     17  C   UNL     1      -2.996  -1.765   1.262  0.00  0.00    +0.005 A 
ATOM     18  C   UNL     1      -1.802  -1.071   1.263  0.00  0.00    -0.027 A 
ATOM     19  C   UNL     1      -1.147  -0.698   2.568  0.00  0.00    +0.046 C 
ENDBRANCH   9  13
BRANCH   1  20
ATOM     20  S   UNL     1      -2.455   4.462   0.070  0.00  0.00    -0.078 S 
BRANCH  20  21
ATOM     21  C   UNL     1      -3.703   3.150   0.071  0.00  0.00    +0.173 C 
BRANCH  21  23
ATOM     22  N   UNL     1      -6.170   2.974   0.078  0.00  0.00    -0.282 N 
ATOM     23  C   UNL     1      -5.078   3.765   0.076  0.00  0.00    +0.228 C 
ATOM     24  O   UNL     1      -5.203   4.971   0.078  0.00  0.00    -0.275 OA
ATOM     25  H   UNL     1      -6.072   2.013  -0.004  0.00  0.00    +0.155 HD
BRANCH  22  31
ATOM     26  C   UNL     1      -8.560   2.865  -0.291  0.00  0.00    +0.142 A 
ATOM     27  C   UNL     1      -9.819   3.430  -0.168  0.00  0.00    +0.047 A 
ATOM     28  C   UNL     1      -9.967   4.663   0.440  0.00  0.00    +0.004 A 
ATOM     29  C   UNL     1      -8.861   5.335   0.928  0.00  0.00    +0.002 A 
ATOM     30  C   UNL     1      -7.603   4.776   0.814  0.00  0.00    +0.027 A 
ATOM     31  C   UNL     1      -7.446   3.541   0.200  0.00  0.00    +0.076 A 
BRANCH  26  32
ATOM     32  O   UNL     1      -8.413   1.652  -0.888  0.00  0.00    -0.490 OA
BRANCH  32  34
ATOM     33  C   UNL     1      -9.238  -0.327  -2.002  0.00  0.00    +0.048 C 
ATOM     34  C   UNL     1      -9.600   1.016  -1.367  0.00  0.00    +0.226 C 
ENDBRANCH  32  34
ENDBRANCH  26  32
ENDBRANCH  22  31
ENDBRANCH  21  23
ENDBRANCH  20  21
ENDBRANCH   1  20
TORSDOF 7
