REMARK  Name = ZINC64773717
REMARK  8 active torsions:
REMARK  status: ('A' for Active; 'I' for Inactive)
REMARK    1  A    between atoms: C_1  and  C_2
REMARK    2  A    between atoms: C_7  and  C_8
REMARK    3  A    between atoms: C_8  and  S_9
REMARK    4  A    between atoms: S_9  and  C_10
REMARK    5  A    between atoms: C_16  and  C_24
REMARK    6  A    between atoms: C_27  and  O_30
REMARK    7  A    between atoms: O_30  and  C_31
REMARK    8  A    between atoms: C_31  and  C_32
REMARK                            x       y       z     vdW  Elec       q    Type
REMARK                         _______ _______ _______ _____ _____    ______ ____
ROOT
ATOM      1  C   UNL     1      -2.731   1.328   4.855  0.00  0.00    +0.182 C 
ATOM      2  N   UNL     1      -1.432   1.573   4.852  0.00  0.00    -0.154 NA
ATOM      3  C   UNL     1      -0.834   2.243   5.840  0.00  0.00    +0.249 C 
ATOM      4  O   UNL     1       0.366   2.441   5.841  0.00  0.00    -0.273 OA
ATOM      5  C   UNL     1      -1.724   2.744   6.958  0.00  0.00    +0.148 C 
ATOM      6  C   UNL     1      -1.174   2.212   8.283  0.00  0.00    +0.047 C 
ATOM      7  C   UNL     1      -1.960   2.851   9.431  0.00  0.00    +0.105 C 
ATOM      8  C   UNL     1      -3.439   2.745   9.194  0.00  0.00    +0.219 C 
ATOM      9  O   UNL     1      -4.187   2.878  10.139  0.00  0.00    -0.275 OA
ATOM     10  N   UNL     1      -3.970   2.510   7.983  0.00  0.00    -0.273 N 
ATOM     11  C   UNL     1      -3.175   2.307   6.896  0.00  0.00    +0.117 C 
ATOM     12  N   UNL     1      -3.575   1.655   5.841  0.00  0.00    -0.212 NA
ATOM     13  H   UNL     1      -4.934   2.498   7.875  0.00  0.00    +0.156 HD
ENDROOT
BRANCH   6  14
ATOM     14  C   UNL     1      -1.330   0.714   8.331  0.00  0.00    -0.042 A 
ATOM     15  C   UNL     1      -0.229  -0.101   8.142  0.00  0.00    +0.007 A 
ATOM     16  C   UNL     1      -0.370  -1.474   8.184  0.00  0.00    +0.046 A 
ATOM     17  C   UNL     1      -1.617  -2.036   8.417  0.00  0.00    +0.121 A 
ATOM     18  C   UNL     1      -2.720  -1.216   8.607  0.00  0.00    +0.046 A 
ATOM     19  C   UNL     1      -2.573   0.157   8.568  0.00  0.00    +0.007 A 
BRANCH  17  20
ATOM     20  O   UNL     1      -1.758  -3.387   8.459  0.00  0.00    -0.483 OA
BRANCH  20  21
ATOM     21  C   UNL     1      -3.071  -3.895   8.703  0.00  0.00    +0.324 C 
BRANCH  21  22
ATOM     22  C   UNL     1      -3.033  -5.401   8.714  0.00  0.00    +0.248 C 
ATOM     23  O   UNL     1      -1.984  -5.983   8.531  0.00  0.00    -0.272 OA
ATOM     24  N   UNL     1      -4.164  -6.103   8.928  0.00  0.00    -0.327 N 
ATOM     25  H   UNL     1      -5.002  -5.638   9.074  0.00  0.00    +0.145 HD
ATOM     26  H   UNL     1      -4.139  -7.072   8.935  0.00  0.00    +0.145 HD
ENDBRANCH  21  22
ENDBRANCH  20  21
ENDBRANCH  17  20
ENDBRANCH   6  14
BRANCH   1  27
ATOM     27  S   UNL     1      -3.406   0.513   3.446  0.00  0.00    -0.084 S 
BRANCH  27  28
ATOM     28  C   UNL     1      -1.975   0.249   2.364  0.00  0.00    +0.112 C 
BRANCH  28  35
ATOM     29  C   UNL     1      -2.812   1.796   0.072  0.00  0.00    +0.044 C 
ATOM     30  C   UNL     1      -2.819   0.290   0.009  0.00  0.00    -0.046 A 
ATOM     31  C   UNL     1      -3.221  -0.351  -1.149  0.00  0.00    +0.003 A 
ATOM     32  C   UNL     1      -3.229  -1.732  -1.207  0.00  0.00    +0.000 A 
ATOM     33  C   UNL     1      -2.833  -2.472  -0.108  0.00  0.00    +0.000 A 
ATOM     34  C   UNL     1      -2.430  -1.831   1.048  0.00  0.00    +0.005 A 
ATOM     35  C   UNL     1      -2.419  -0.450   1.105  0.00  0.00    -0.034 A 
ENDBRANCH  28  35
ENDBRANCH  27  28
ENDBRANCH   1  27
TORSDOF 7
