REMARK  Name = ZINC62231305
REMARK  8 active torsions:
REMARK  status: ('A' for Active; 'I' for Inactive)
REMARK    1  A    between atoms: C_4  and  C_7
REMARK    2  A    between atoms: C_7  and  C_8
REMARK    3  A    between atoms: C_8  and  C_9
REMARK    4  A    between atoms: C_8  and  N_26
REMARK    5  A    between atoms: N_11  and  C_12
REMARK    6  A    between atoms: C_12  and  C_13
REMARK    7  A    between atoms: N_17  and  C_19
REMARK    8  A    between atoms: C_19  and  C_20
REMARK                            x       y       z     vdW  Elec       q    Type
REMARK                         _______ _______ _______ _____ _____    ______ ____
ROOT
ATOM      1  C   UNL     1       5.543  -1.588   1.383  0.00  0.00    +0.234 C 
ATOM      2  O   UNL     1       5.665  -2.786   1.529  0.00  0.00    -0.274 OA
ATOM      3  N   UNL     1       6.633  -0.816   1.207  0.00  0.00    -0.314 N 
ATOM      4  H   UNL     1       6.535   0.142   1.091  0.00  0.00    +0.149 HD
ENDROOT
BRANCH   1   5
ATOM      5  C   UNL     1       4.171  -0.963   1.399  0.00  0.00    +0.165 C 
BRANCH   5   6
ATOM      6  N   UNL     1       3.229  -1.870   2.059  0.00  0.00    -0.288 N 
ATOM      7  C   UNL     1       3.018  -3.104   1.560  0.00  0.00    +0.298 C 
ATOM      8  O   UNL     1       3.611  -3.465   0.561  0.00  0.00    -0.253 OA
ATOM      9  N   UNL     1       2.151  -3.938   2.167  0.00  0.00    -0.313 N 
ATOM     10  H   UNL     1       2.756  -1.582   2.856  0.00  0.00    +0.151 HD
ATOM     11  H   UNL     1       1.679  -3.650   2.964  0.00  0.00    +0.146 HD
ATOM     12  H   UNL     1       2.000  -4.826   1.808  0.00  0.00    +0.146 HD
ENDBRANCH   5   6
BRANCH   5  13
ATOM     13  C   UNL     1       3.711  -0.707  -0.038  0.00  0.00    +0.067 C 
BRANCH  13  17
ATOM     14  C   UNL     1      -0.017   1.378   0.010  0.00  0.00    +0.000 A 
ATOM     15  C   UNL     1       1.171   2.086   0.002  0.00  0.00    +0.000 A 
ATOM     16  C   UNL     1       2.377   1.411  -0.013  0.00  0.00    +0.004 A 
ATOM     17  C   UNL     1       2.396   0.029  -0.020  0.00  0.00    -0.045 A 
ATOM     18  C   UNL     1       1.208  -0.679  -0.012  0.00  0.00    +0.004 A 
ATOM     19  C   UNL     1       0.002  -0.004   0.002  0.00  0.00    +0.000 A 
ENDBRANCH  13  17
ENDBRANCH   5  13
ENDBRANCH   1   5
BRANCH   3  20
ATOM     20  C   UNL     1       7.966  -1.424   1.192  0.00  0.00    +0.106 C 
BRANCH  20  21
ATOM     21  C   UNL     1       9.020  -0.336   0.978  0.00  0.00    -0.011 C 
ATOM     22  C   UNL     1       9.027   0.613   2.180  0.00  0.00    +0.001 C 
ATOM     23  C   UNL     1      10.137   1.651   1.992  0.00  0.00    -0.018 C 
ATOM     24  C   UNL     1      11.476   0.931   1.814  0.00  0.00    -0.078 C 
ATOM     25  N   UNL     1      11.414   0.060   0.634  0.00  0.00    +0.383 N 
ATOM     26  C   UNL     1      10.400  -0.982   0.837  0.00  0.00    -0.073 C 
ATOM     27  H   UNL     1      11.172   0.610  -0.177  0.00  0.00    -0.081 HD
BRANCH  25  28
ATOM     28  C   UNL     1      12.724  -0.569   0.422  0.00  0.00    -0.043 C 
BRANCH  28  29
ATOM     29  C   UNL     1      13.741   0.491   0.083  0.00  0.00    -0.064 A 
ATOM     30  C   UNL     1      13.952   0.850  -1.235  0.00  0.00    +0.002 A 
ATOM     31  C   UNL     1      14.884   1.822  -1.547  0.00  0.00    +0.000 A 
ATOM     32  C   UNL     1      15.605   2.435  -0.539  0.00  0.00    +0.000 A 
ATOM     33  C   UNL     1      15.394   2.077   0.779  0.00  0.00    +0.000 A 
ATOM     34  C   UNL     1      14.458   1.108   1.090  0.00  0.00    +0.002 A 
ENDBRANCH  28  29
ENDBRANCH  25  28
ENDBRANCH  20  21
ENDBRANCH   3  20
TORSDOF 8
