REMARK  Name = ZINC40178739
REMARK  6 active torsions:
REMARK  status: ('A' for Active; 'I' for Inactive)
REMARK    1  A    between atoms: C_1  and  C_2
REMARK    2  A    between atoms: C_5  and  C_8
REMARK    3  A    between atoms: C_10  and  C_14
REMARK    4  A    between atoms: C_11  and  C_13
REMARK    5  A    between atoms: N_16  and  C_17
REMARK    6  A    between atoms: C_18  and  C_26
REMARK                            x       y       z     vdW  Elec       q    Type
REMARK                         _______ _______ _______ _____ _____    ______ ____
ROOT
ATOM      1  C   UNL     1       0.103  -7.662   1.374  0.00  0.00    +0.252 C 
ATOM      2  O   UNL     1       0.117  -8.745   0.819  0.00  0.00    -0.270 OA
ATOM      3  N   UNL     1       0.102  -7.596   2.720  0.00  0.00    -0.275 N 
ATOM      4  H   UNL     1       0.091  -6.733   3.163  0.00  0.00    +0.156 HD
ENDROOT
BRANCH   3   5
ATOM      5  C   UNL     1       0.118  -8.761   3.472  0.00  0.00    +0.090 A 
ATOM      6  C   UNL     1       0.114  -8.884   4.852  0.00  0.00    +0.084 A 
ATOM      7  C   UNL     1       0.134 -10.229   5.399  0.00  0.00    -0.018 A 
ATOM      8  C   UNL     1       0.154 -11.205   4.466  0.00  0.00    -0.004 A 
ATOM      9  S   UNL     1       0.138 -10.346   2.919  0.00  0.00    -0.077 S 
ATOM     10  C   UNL     1       0.179 -12.682   4.709  0.00  0.00    +0.043 C 
ATOM     11  C   UNL     1       0.558 -12.922   6.178  0.00  0.00    +0.005 C 
ATOM     12  C   UNL     1      -0.297 -12.014   7.066  0.00  0.00    +0.005 C 
ATOM     13  C   UNL     1       0.131 -10.556   6.885  0.00  0.00    +0.037 C 
BRANCH   6  14
ATOM     14  C   UNL     1       0.092  -7.732   5.703  0.00  0.00    +0.102 C 
ATOM     15  N   UNL     1       0.075  -6.819   6.379  0.00  0.00    -0.191 NA
ENDBRANCH   6  14
ENDBRANCH   3   5
BRANCH   1  18
ATOM     16  C   UNL     1       0.058  -4.251  -0.021  0.00  0.00    +0.136 A 
ATOM     17  C   UNL     1       0.069  -5.046   1.077  0.00  0.00    +0.063 A 
ATOM     18  C   UNL     1       0.086  -6.424   0.574  0.00  0.00    +0.078 A 
ATOM     19  C   UNL     1       0.085  -6.323  -0.788  0.00  0.00    +0.115 A 
ATOM     20  O   UNL     1       0.062  -5.028  -1.120  0.00  0.00    -0.459 OA
ATOM     21  C   UNL     1       0.100  -7.478  -1.755  0.00  0.00    +0.087 C 
BRANCH  16  26
ATOM     22  C   UNL     1      -0.018   1.503   0.010  0.00  0.00    +0.044 C 
ATOM     23  C   UNL     1       0.002  -0.004   0.002  0.00  0.00    -0.050 A 
ATOM     24  C   UNL     1       0.006  -0.686  -1.202  0.00  0.00    +0.004 A 
ATOM     25  C   UNL     1       0.024  -2.066  -1.216  0.00  0.00    +0.012 A 
ATOM     26  C   UNL     1       0.039  -2.773  -0.013  0.00  0.00    +0.017 A 
ATOM     27  C   UNL     1       0.036  -2.079   1.198  0.00  0.00    +0.012 A 
ATOM     28  C   UNL     1       0.023  -0.699   1.198  0.00  0.00    +0.004 A 
ENDBRANCH  16  26
ENDBRANCH   1  18
TORSDOF 4
