REMARK  Name = ZINC04667021
REMARK  9 active torsions:
REMARK  status: ('A' for Active; 'I' for Inactive)
REMARK    1  A    between atoms: C_1  and  C_2
REMARK    2  A    between atoms: C_4  and  C_23
REMARK    3  A    between atoms: C_7  and  S_8
REMARK    4  A    between atoms: S_8  and  N_11
REMARK    5  A    between atoms: N_11  and  C_12
REMARK    6  A    between atoms: C_14  and  C_20
REMARK    7  A    between atoms: C_14  and  C_21
REMARK    8  A    between atoms: C_16  and  C_18
REMARK    9  A    between atoms: C_16  and  C_19
REMARK                            x       y       z     vdW  Elec       q    Type
REMARK                         _______ _______ _______ _____ _____    ______ ____
ROOT
ATOM      1  N   UNL     1       1.077   1.543   2.995  0.00  0.00    -0.187 NA
ATOM      2  H   UNL     1       1.749   1.438   3.686  0.00  0.00    +0.148 HD
ENDROOT
BRANCH   1   3
ATOM      3  C   UNL     1       1.228   2.591   1.977  0.00  0.00    +0.074 C 
ATOM      4  C   UNL     1       2.155   2.085   0.870  0.00  0.00    +0.007 C 
ATOM      5  C   UNL     1       2.332   3.170  -0.192  0.00  0.00    -0.072 C 
ATOM      6  N   UNL     1       2.784   4.429   0.381  0.00  0.00    +0.386 N 
ATOM      7  C   UNL     1       2.104   4.912   1.572  0.00  0.00    -0.072 C 
ATOM      8  C   UNL     1       1.871   3.823   2.614  0.00  0.00    +0.007 C 
ATOM      9  C   UNL     1       3.011   5.983   2.223  0.00  0.00    -0.010 C 
ATOM     10  C   UNL     1       0.779   5.598   1.229  0.00  0.00    -0.010 C 
ATOM     11  C   UNL     1       1.046   3.333  -1.001  0.00  0.00    -0.010 C 
ATOM     12  C   UNL     1       3.428   2.681  -1.167  0.00  0.00    -0.010 C 
ATOM     13  H   UNL     1       3.782   4.346   0.591  0.00  0.00    -0.084 HD
ATOM     14  H   UNL     1       2.721   5.151  -0.341  0.00  0.00    -0.084 HD
ENDBRANCH   1   3
BRANCH   1  15
ATOM     15  S   UNL     1      -0.242   0.542   2.963  0.00  0.00    +0.059 S 
ATOM     16  O   UNL     1      -1.384   1.379   2.836  0.00  0.00    -0.153 OA
ATOM     17  O   UNL     1      -0.084  -0.373   4.038  0.00  0.00    -0.153 OA
BRANCH  15  24
ATOM     18  C   UNL     1       1.944  -1.460   2.366  0.00  0.00    +0.046 C 
ATOM     19  C   UNL     1       0.896  -1.295   1.296  0.00  0.00    -0.024 A 
ATOM     20  C   UNL     1       0.972  -2.041   0.134  0.00  0.00    +0.009 A 
ATOM     21  C   UNL     1       0.010  -1.890  -0.847  0.00  0.00    -0.036 A 
ATOM     22  C   UNL     1      -1.027  -0.993  -0.667  0.00  0.00    +0.023 A 
ATOM     23  C   UNL     1      -1.102  -0.247   0.495  0.00  0.00    +0.044 A 
ATOM     24  C   UNL     1      -0.143  -0.402   1.479  0.00  0.00    +0.109 A 
ATOM     25 BR   UNL     1      -2.342  -0.785  -2.010  0.00  0.00    -0.050 Br
ATOM     26  C   UNL     1       0.093  -2.703  -2.114  0.00  0.00    +0.045 C 
ENDBRANCH  15  24
ENDBRANCH   1  15
TORSDOF 3
