REMARK  Name = ZINC02746978
REMARK  11 active torsions:
REMARK  status: ('A' for Active; 'I' for Inactive)
REMARK    1  A    between atoms: C_2  and  C_3
REMARK    2  A    between atoms: C_3  and  N_4
REMARK    3  A    between atoms: C_5  and  C_24
REMARK    4  A    between atoms: C_8  and  S_9
REMARK    5  A    between atoms: S_9  and  C_10
REMARK    6  A    between atoms: C_10  and  C_11
REMARK    7  A    between atoms: N_13  and  N_14
REMARK    8  A    between atoms: C_15  and  C_16
REMARK    9  A    between atoms: C_21  and  O_22
REMARK   10  A    between atoms: C_24  and  N_25
REMARK   11  A    between atoms: N_25  and  C_26
REMARK                            x       y       z     vdW  Elec       q    Type
REMARK                         _______ _______ _______ _____ _____    ______ ____
ROOT
ATOM      1  N   UNL     1      -1.085  -0.831   0.008  0.00  0.00    -0.301 N 
ATOM      2  C   UNL     1      -0.582  -2.103  -0.004  0.00  0.00    +0.152 A 
ATOM      3  N   UNL     1       0.717  -2.007  -0.017  0.00  0.00    -0.132 NA
ATOM      4  N   UNL     1       1.068  -0.770  -0.018  0.00  0.00    -0.122 NA
ATOM      5  C   UNL     1       0.002  -0.004   0.002  0.00  0.00    +0.192 A 
ENDROOT
BRANCH   1   6
ATOM      6  C   UNL     1      -2.495  -0.437   0.024  0.00  0.00    +0.152 C 
BRANCH   6   8
ATOM      7  C   UNL     1      -4.048  -0.962  -1.785  0.00  0.00    +0.005 C 
ATOM      8  C   UNL     1      -2.993  -0.293  -1.391  0.00  0.00    -0.013 C 
ENDBRANCH   6   8
ENDBRANCH   1   6
BRANCH   5   9
ATOM      9  S   UNL     1      -0.022   1.758   0.012  0.00  0.00    -0.077 S 
BRANCH   9  10
ATOM     10  C   UNL     1       1.756   2.096  -0.004  0.00  0.00    +0.174 C 
BRANCH  10  11
ATOM     11  C   UNL     1       1.984   3.586   0.002  0.00  0.00    +0.242 C 
ATOM     12  O   UNL     1       1.037   4.344   0.015  0.00  0.00    -0.273 OA
ATOM     13  N   UNL     1       3.240   4.076  -0.007  0.00  0.00    -0.206 N 
ATOM     14  H   UNL     1       3.997   3.469  -0.018  0.00  0.00    +0.177 HD
BRANCH  13  15
ATOM     15  N   UNL     1       3.451   5.461  -0.002  0.00  0.00    -0.188 NA
ATOM     16  C   UNL     1       4.660   5.932  -0.011  0.00  0.00    +0.142 C 
BRANCH  16  17
ATOM     17  C   UNL     1       4.883   7.389  -0.005  0.00  0.00    +0.037 A 
ATOM     18  C   UNL     1       6.183   7.901  -0.015  0.00  0.00    +0.028 A 
ATOM     19  C   UNL     1       6.384   9.266  -0.009  0.00  0.00    +0.019 A 
ATOM     20  C   UNL     1       5.303  10.131   0.006  0.00  0.00    +0.019 A 
ATOM     21  C   UNL     1       4.012   9.636   0.016  0.00  0.00    +0.047 A 
ATOM     22  C   UNL     1       3.792   8.269   0.004  0.00  0.00    +0.126 A 
ATOM     23 BR   UNL     1       8.144   9.958  -0.021  0.00  0.00    -0.050 Br
BRANCH  22  24
ATOM     24  O   UNL     1       2.524   7.782   0.008  0.00  0.00    -0.506 OA
ATOM     25  H   UNL     1       2.161   7.637   0.893  0.00  0.00    +0.292 HD
ENDBRANCH  22  24
ENDBRANCH  16  17
ENDBRANCH  13  15
ENDBRANCH  10  11
ENDBRANCH   9  10
ENDBRANCH   5   9
BRANCH   2  26
ATOM     26  C   UNL     1      -1.383  -3.379  -0.004  0.00  0.00    +0.178 C 
BRANCH  26  27
ATOM     27  N   UNL     1      -1.657  -3.785  -1.385  0.00  0.00    -0.337 N 
ATOM     28  H   UNL     1      -1.329  -3.247  -2.122  0.00  0.00    +0.147 HD
BRANCH  27  29
ATOM     29  C   UNL     1      -2.389  -4.946  -1.640  0.00  0.00    +0.027 A 
ATOM     30  C   UNL     1      -2.854  -5.721  -0.585  0.00  0.00    +0.023 A 
ATOM     31  C   UNL     1      -3.582  -6.867  -0.841  0.00  0.00    +0.002 A 
ATOM     32  C   UNL     1      -3.839  -7.248  -2.145  0.00  0.00    +0.000 A 
ATOM     33  C   UNL     1      -3.373  -6.482  -3.197  0.00  0.00    +0.002 A 
ATOM     34  C   UNL     1      -2.649  -5.332  -2.949  0.00  0.00    +0.023 A 
ENDBRANCH  27  29
ENDBRANCH  26  27
ENDBRANCH   2  26
TORSDOF 11
