REMARK  Name = ZINC03999986
REMARK  5 active torsions:
REMARK  status: ('A' for Active; 'I' for Inactive)
REMARK    1  A    between atoms: C_1  and  C_2
REMARK    2  A    between atoms: C_7  and  C_12
REMARK    3  A    between atoms: C_13  and  C_14
REMARK    4  A    between atoms: C_15  and  C_27
REMARK    5  A    between atoms: C_15  and  C_28
REMARK                            x       y       z     vdW  Elec       q    Type
REMARK                         _______ _______ _______ _____ _____    ______ ____
ROOT
ATOM      1  C   UNL     1      -0.524  -2.232   0.439  0.00  0.00    +0.131 C 
ATOM      2  C   UNL     1       0.954  -2.154  -0.004  0.00  0.00    +0.034 C 
ATOM      3  C   UNL     1       1.226  -0.662  -0.011  0.00  0.00    -0.017 A 
ATOM      4  C   UNL     1       2.405   0.052  -0.022  0.00  0.00    +0.006 A 
ATOM      5  C   UNL     1       2.378   1.435  -0.015  0.00  0.00    +0.000 A 
ATOM      6  C   UNL     1       1.165   2.100   0.002  0.00  0.00    +0.002 A 
ATOM      7  C   UNL     1      -0.017   1.390   0.010  0.00  0.00    +0.023 A 
ATOM      8  C   UNL     1       0.002  -0.004   0.002  0.00  0.00    +0.036 A 
ATOM      9  N   UNL     1      -1.060  -0.916  -0.002  0.00  0.00    -0.296 N 
ATOM     10  C   UNL     1      -1.495  -1.180  -1.393  0.00  0.00    +0.203 C 
ATOM     11  C   UNL     1      -1.791  -2.663  -1.436  0.00  0.00    +0.232 C 
ATOM     12  O   UNL     1      -2.434  -3.232  -2.292  0.00  0.00    -0.274 OA
ATOM     13  N   UNL     1      -1.219  -3.245  -0.363  0.00  0.00    -0.289 N 
ATOM     14  C   UNL     1       1.133  -2.743  -1.404  0.00  0.00    +0.020 C 
ATOM     15  C   UNL     1       1.860  -2.864   1.004  0.00  0.00    +0.020 C 
ATOM     16  H   UNL     1      -1.261  -4.191  -0.153  0.00  0.00    +0.151 HD
ENDROOT
BRANCH   1  18
ATOM     17  C   UNL     1      -1.252  -1.530   2.676  0.00  0.00    +0.007 C 
ATOM     18  C   UNL     1      -0.672  -2.454   1.922  0.00  0.00    +0.020 C 
BRANCH  17  24
ATOM     19  C   UNL     1      -0.852  -0.164   9.095  0.00  0.00    +0.052 C 
ATOM     20  C   UNL     1      -2.161  -0.824   8.655  0.00  0.00    +0.175 C 
ATOM     21  C   UNL     1      -2.724  -0.135   7.390  0.00  0.00    +0.083 C 
ATOM     22  C   UNL     1      -2.138  -0.988   6.281  0.00  0.00    -0.002 A 
ATOM     23  C   UNL     1      -2.002  -0.775   4.930  0.00  0.00    +0.015 A 
ATOM     24  C   UNL     1      -1.398  -1.747   4.130  0.00  0.00    -0.025 A 
ATOM     25  C   UNL     1      -0.927  -2.924   4.716  0.00  0.00    +0.011 A 
ATOM     26  C   UNL     1      -1.066  -3.126   6.070  0.00  0.00    +0.046 A 
ATOM     27  C   UNL     1      -1.678  -2.161   6.870  0.00  0.00    +0.124 A 
ATOM     28  O   UNL     1      -1.928  -2.170   8.208  0.00  0.00    -0.488 OA
ENDBRANCH  17  24
ENDBRANCH   1  18
TORSDOF 2
