REMARK  Name = ZINC13412539
REMARK  11 active torsions:
REMARK  status: ('A' for Active; 'I' for Inactive)
REMARK    1  A    between atoms: C_1  and  C_2
REMARK    2  A    between atoms: C_2  and  C_3
REMARK    3  A    between atoms: C_2  and  C_4
REMARK    4  A    between atoms: C_7  and  N_10
REMARK    5  A    between atoms: C_14  and  S_16
REMARK    6  A    between atoms: S_16  and  C_17
REMARK    7  A    between atoms: C_17  and  C_18
REMARK    8  A    between atoms: N_20  and  CA_21
REMARK    9  A    between atoms: CA_21  and  CB_23
REMARK   10  A    between atoms: CA_21  and  C_34
REMARK   11  A    between atoms: CB_23  and  CG_24
REMARK                            x       y       z     vdW  Elec       q    Type
REMARK                         _______ _______ _______ _____ _____    ______ ____
ROOT
ATOM      1  C   UNK A   0      -8.023  -6.176  -6.407  0.00  0.00    +0.224 C 
ATOM      2  O   UNK A   0      -9.198  -6.380  -6.189  0.00  0.00    -0.275 OA
ATOM      3  N   TRP A   1      -7.459  -6.632  -7.543  0.00  0.00    -0.301 N 
ATOM      4  H   TRP A   1      -6.519  -6.468  -7.718  0.00  0.00    +0.150 HD
ENDROOT
BRANCH   1   5
ATOM      5  C   UNK A   0      -7.193  -5.411  -5.408  0.00  0.00    +0.172 C 
BRANCH   5   6
ATOM      6  S   UNK A   0      -8.230  -4.937  -3.997  0.00  0.00    -0.088 S 
BRANCH   6  11
ATOM      7  N   UNK A   0      -5.318  -1.968   0.043  0.00  0.00    -0.292 N 
ATOM      8  C   UNK A   0      -5.803  -2.685  -1.045  0.00  0.00    +0.187 A 
ATOM      9  N   UNK A   0      -5.168  -3.093  -2.127  0.00  0.00    -0.125 NA
ATOM     10  N   UNK A   0      -5.847  -3.798  -3.094  0.00  0.00    -0.133 NA
ATOM     11  C   UNK A   0      -7.129  -4.064  -2.934  0.00  0.00    +0.160 A 
ATOM     12  S   UNK A   0      -7.450  -3.308  -1.348  0.00  0.00    -0.024 S 
ATOM     13  H   UNK A   0      -5.887  -1.810   0.812  0.00  0.00    +0.154 HD
BRANCH   7  17
ATOM     14  C   UNK A   0      -1.423  -0.496  -0.001  0.00  0.00    -0.045 A 
ATOM     15  C   UNK A   0      -2.083  -0.737  -1.192  0.00  0.00    +0.006 A 
ATOM     16  C   UNK A   0      -3.375  -1.225  -1.181  0.00  0.00    +0.023 A 
ATOM     17  C   UNK A   0      -4.011  -1.475   0.028  0.00  0.00    +0.033 A 
ATOM     18  C   UNK A   0      -3.345  -1.232   1.223  0.00  0.00    +0.023 A 
ATOM     19  C   UNK A   0      -2.051  -0.749   1.205  0.00  0.00    +0.006 A 
BRANCH  14  21
ATOM     20  C   UNK A   0       0.895  -0.946  -0.758  0.00  0.00    +0.012 C 
ATOM     21  C   UNK A   0      -0.013   0.037  -0.017  0.00  0.00    +0.013 C 
ATOM     22  C   UNK A   0       0.012   1.391  -0.729  0.00  0.00    +0.012 C 
ENDBRANCH  14  21
ENDBRANCH   7  17
ENDBRANCH   6  11
ENDBRANCH   5   6
ENDBRANCH   1   5
BRANCH   3  23
ATOM     23  CA  TRP A   1      -8.266  -7.375  -8.514  0.00  0.00    +0.191 C 
BRANCH  23  24
ATOM     24  C   TRP A   1      -8.310  -8.830  -8.122  0.00  0.00    +0.376 C 
ATOM     25  O   TRP A   1      -9.284  -9.507  -8.402  0.00  0.00    -0.244 OA
ATOM     26  OXT TRP A   1      -7.371  -9.329  -7.526  0.00  0.00    -0.244 OA
ENDBRANCH  23  24
BRANCH  23  27
ATOM     27  CB  TRP A   1      -7.642  -7.240  -9.905  0.00  0.00    +0.071 C 
BRANCH  27  28
ATOM     28  CG  TRP A   1      -7.710  -5.801 -10.348  0.00  0.00    -0.020 A 
ATOM     29  CD1 TRP A   1      -8.666  -5.244 -11.107  0.00  0.00    +0.087 A 
ATOM     30  NE1 TRP A   1      -8.392  -3.918 -11.303  0.00  0.00    -0.360 N 
ATOM     31  HE1 TRP A   1      -8.940  -3.306 -11.820  0.00  0.00    +0.165 HD
ATOM     32  CE2 TRP A   1      -7.223  -3.581 -10.659  0.00  0.00    +0.047 A 
ATOM     33  CD2 TRP A   1      -6.747  -4.745 -10.027  0.00  0.00    +0.003 A 
ATOM     34  CE3 TRP A   1      -5.566  -4.701  -9.285  0.00  0.00    +0.010 A 
ATOM     35  CZ3 TRP A   1      -4.878  -3.525  -9.173  0.00  0.00    +0.001 A 
ATOM     36  CH2 TRP A   1      -5.345  -2.374  -9.791  0.00  0.00    +0.002 A 
ATOM     37  CZ2 TRP A   1      -6.504  -2.397 -10.536  0.00  0.00    +0.026 A 
ENDBRANCH  27  28
ENDBRANCH  23  27
ENDBRANCH   3  23
TORSDOF 9
