REMARK  Name = ZINC38845828
REMARK  9 active torsions:
REMARK  status: ('A' for Active; 'I' for Inactive)
REMARK    1  A    between atoms: C_1  and  C_2
REMARK    2  A    between atoms: C_4  and  C_14
REMARK    3  A    between atoms: N_16  and  C_17
REMARK    4  A    between atoms: C_17  and  C_18
REMARK    5  A    between atoms: C_18  and  N_19
REMARK    6  A    between atoms: N_19  and  C_20
REMARK    7  A    between atoms: N_19  and  C_21
REMARK    8  A    between atoms: C_27  and  S_31
REMARK    9  A    between atoms: S_31  and  C_34
REMARK                            x       y       z     vdW  Elec       q    Type
REMARK                         _______ _______ _______ _____ _____    ______ ____
ROOT
ATOM      1  C   UNL     1       1.912   0.026  -1.404  0.00  0.00    +0.266 C 
ATOM      2  O   UNL     1       2.893  -0.683  -1.467  0.00  0.00    -0.271 OA
ATOM      3  N   UNL     1       2.052   1.363  -1.307  0.00  0.00    -0.249 N 
ATOM      4  C   UNL     1       3.312   1.934  -1.372  0.00  0.00    +0.168 A 
ATOM      5  N   UNL     1       3.648   3.200  -1.292  0.00  0.00    -0.224 NA
ATOM      6  C   UNL     1       4.929   3.619  -1.371  0.00  0.00    +0.080 A 
ATOM      7  C   UNL     1       5.422   4.942  -1.301  0.00  0.00    +0.031 A 
ATOM      8  C   UNL     1       6.765   5.196  -1.401  0.00  0.00    +0.029 A 
ATOM      9  C   UNL     1       7.685   4.172  -1.573  0.00  0.00    +0.089 A 
ATOM     10  C   UNL     1       7.239   2.865  -1.645  0.00  0.00    +0.044 A 
ATOM     11  C   UNL     1       5.895   2.602  -1.547  0.00  0.00    +0.043 A 
ATOM     12  S   UNL     1       4.897   1.133  -1.577  0.00  0.00    -0.052 S 
ENDROOT
BRANCH   1  15
ATOM     13  C   UNL     1       0.469  -0.580   1.070  0.00  0.00    +0.056 C 
ATOM     14  C   UNL     1       0.324  -1.448  -0.182  0.00  0.00    +0.220 C 
ATOM     15  C   UNL     1       0.535  -0.587  -1.435  0.00  0.00    +0.299 C 
ATOM     16  O   UNL     1       0.407  -1.431  -2.585  0.00  0.00    -0.472 OA
ATOM     17  C   UNL     1       1.067  -2.620  -2.547  0.00  0.00    +0.163 A 
ATOM     18  C   UNL     1       1.291  -3.313  -3.728  0.00  0.00    +0.049 A 
ATOM     19  C   UNL     1       1.956  -4.524  -3.705  0.00  0.00    +0.004 A 
ATOM     20  C   UNL     1       2.401  -5.048  -2.505  0.00  0.00    +0.004 A 
ATOM     21  C   UNL     1       2.183  -4.363  -1.325  0.00  0.00    +0.049 A 
ATOM     22  C   UNL     1       1.517  -3.146  -1.342  0.00  0.00    +0.163 A 
ATOM     23  O   UNL     1       1.317  -2.479  -0.172  0.00  0.00    -0.481 OA
ENDBRANCH   1  15
BRANCH   9  24
ATOM     24  S   UNL     1       9.405   4.533  -1.698  0.00  0.00    -0.006 S 
ATOM     25  O   UNL     1       9.948   3.455  -2.448  0.00  0.00    -0.170 OA
ATOM     26  O   UNL     1       9.461   5.863  -2.196  0.00  0.00    -0.170 OA
ATOM     27  C   UNL     1      10.019   4.478   0.008  0.00  0.00    +0.200 C 
ENDBRANCH   9  24
BRANCH   3  28
ATOM     28  C   UNL     1       0.871   2.212  -1.134  0.00  0.00    +0.097 C 
BRANCH  28  29
ATOM     29  C   UNL     1       0.676   2.517   0.353  0.00  0.00    -0.060 C 
BRANCH  29  30
ATOM     30  N   UNL     1      -0.572   3.269   0.539  0.00  0.00    +0.377 N 
ATOM     31  C   UNL     1      -0.834   3.435   1.975  0.00  0.00    -0.097 C 
ATOM     32  C   UNL     1      -0.446   4.590  -0.092  0.00  0.00    -0.097 C 
ATOM     33  H   UNL     1      -1.336   2.765   0.114  0.00  0.00    -0.083 HD
ENDBRANCH  29  30
ENDBRANCH  28  29
ENDBRANCH   3  28
TORSDOF 5
