REMARK  Name = ZINC07247535
REMARK  6 active torsions:
REMARK  status: ('A' for Active; 'I' for Inactive)
REMARK    1  A    between atoms: C_1  and  C_2
REMARK    2  A    between atoms: C_9  and  C_14
REMARK    3  A    between atoms: C_14  and  S_15
REMARK    4  A    between atoms: S_15  and  C_16
REMARK    5  A    between atoms: C_19  and  C_27
REMARK    6  A    between atoms: N_20  and  C_21
REMARK                            x       y       z     vdW  Elec       q    Type
REMARK                         _______ _______ _______ _____ _____    ______ ____
ROOT
ATOM      1  C   UNL     1      -5.176  -2.666   0.041  0.00  0.00    +0.193 A 
ATOM      2  N   UNL     1      -5.125  -3.978   0.028  0.00  0.00    -0.122 NA
ATOM      3  N   UNL     1      -6.312  -4.468   0.042  0.00  0.00    -0.125 NA
ATOM      4  C   UNL     1      -7.198  -3.496   0.056  0.00  0.00    +0.201 A 
ATOM      5  N   UNL     1      -6.495  -2.311   0.056  0.00  0.00    -0.297 N 
ENDROOT
BRANCH   5   6
ATOM      6  C   UNL     1      -7.048  -0.954   0.068  0.00  0.00    +0.091 C 
ATOM      7  C   UNL     1      -6.584  -0.203  -1.182  0.00  0.00    +0.025 C 
ATOM      8  C   UNL     1      -7.161   1.214  -1.169  0.00  0.00    +0.002 C 
ATOM      9  C   UNL     1      -6.673   1.952   0.080  0.00  0.00    +0.000 C 
ATOM     10  C   UNL     1      -7.137   1.201   1.329  0.00  0.00    +0.002 C 
ATOM     11  C   UNL     1      -6.560  -0.216   1.317  0.00  0.00    +0.025 C 
ENDBRANCH   5   6
BRANCH   4  12
ATOM     12  C   UNL     1      -8.662  -3.645   0.069  0.00  0.00    +0.172 A 
ATOM     13  C   UNL     1      -9.352  -4.785  -0.215  0.00  0.00    +0.053 A 
ATOM     14  C   UNL     1     -10.719  -4.475  -0.080  0.00  0.00    +0.042 A 
ATOM     15  C   UNL     1     -10.797  -3.178   0.276  0.00  0.00    +0.196 A 
ATOM     16  O   UNL     1      -9.553  -2.681   0.371  0.00  0.00    -0.460 OA
ENDBRANCH   4  12
BRANCH   1  17
ATOM     17  S   UNL     1      -3.799  -1.566   0.032  0.00  0.00    -0.078 S 
BRANCH  17  18
ATOM     18  C   UNL     1      -2.441  -2.763   0.012  0.00  0.00    +0.151 C 
BRANCH  18  27
ATOM     19  C   UNL     1      -1.330   2.131   0.020  0.00  0.00    +0.046 C 
ATOM     20  C   UNL     1      -0.017   1.392   0.010  0.00  0.00    -0.024 A 
ATOM     21  C   UNL     1       1.170   2.090   0.002  0.00  0.00    +0.005 A 
ATOM     22  C   UNL     1       2.388   1.423  -0.013  0.00  0.00    +0.001 A 
ATOM     23  C   UNL     1       2.432   0.046  -0.021  0.00  0.00    +0.015 A 
ATOM     24  C   UNL     1       1.243  -0.679  -0.013  0.00  0.00    +0.065 A 
ATOM     25  C   UNL     1       0.002  -0.004   0.002  0.00  0.00    +0.081 A 
ATOM     26  N   UNL     1      -1.143  -0.732   0.009  0.00  0.00    -0.233 NA
ATOM     27  C   UNL     1      -1.125  -2.030   0.003  0.00  0.00    +0.121 A 
ATOM     28  N   UNL     1       0.020  -2.761  -0.012  0.00  0.00    -0.310 N 
ATOM     29  H   UNL     1      -0.029  -3.860  -0.017  0.00  0.00    +0.170 HD
ATOM     30  C   UNL     1       1.228  -2.150  -0.021  0.00  0.00    +0.259 A 
ATOM     31  O   UNL     1       2.262  -2.793  -0.034  0.00  0.00    -0.267 OA
ENDBRANCH  18  27
ENDBRANCH  17  18
ENDBRANCH   1  17
TORSDOF 5
