REMARK  Name = ZINC34998809
REMARK  11 active torsions:
REMARK  status: ('A' for Active; 'I' for Inactive)
REMARK    1  A    between atoms: C_1  and  C_2
REMARK    2  A    between atoms: C_2  and  C_3
REMARK    3  A    between atoms: C_3  and  C_5
REMARK    4  A    between atoms: C_3  and  C_6
REMARK    5  A    between atoms: C_6  and  C_8
REMARK    6  A    between atoms: C_6  and  N_27
REMARK    7  A    between atoms: C_14  and  C_17
REMARK    8  A    between atoms: C_18  and  C_20
REMARK    9  A    between atoms: C_20  and  C_21
REMARK   10  A    between atoms: C_21  and  C_22
REMARK   11  A    between atoms: N_30  and  C_31
REMARK                            x       y       z     vdW  Elec       q    Type
REMARK                         _______ _______ _______ _____ _____    ______ ____
ROOT
ATOM      1  C   UNL     1       1.007  -1.852  -1.425  0.00  0.00    +0.163 C 
ENDROOT
BRANCH   1   2
ATOM      2  C   UNL     1       2.027  -2.135  -0.352  0.00  0.00    +0.236 C 
ATOM      3  O   UNL     1       1.758  -2.892   0.556  0.00  0.00    -0.274 OA
ATOM      4  N   UNL     1       3.239  -1.547  -0.402  0.00  0.00    -0.297 N 
ATOM      5  C   UNL     1       3.544  -0.549  -1.438  0.00  0.00    +0.127 C 
ATOM      6  C   UNL     1       4.801  -0.997  -2.194  0.00  0.00    +0.127 C 
ATOM      7  N   UNL     1       5.841  -1.341  -1.213  0.00  0.00    -0.296 N 
ATOM      8  C   UNL     1       5.536  -2.338  -0.178  0.00  0.00    +0.090 C 
ATOM      9  C   UNL     1       4.276  -1.887   0.581  0.00  0.00    +0.130 C 
ATOM     10  C   UNL     1       5.289  -3.699  -0.832  0.00  0.00    +0.029 C 
ATOM     11  C   UNL     1       7.052  -0.752  -1.264  0.00  0.00    +0.216 C 
ATOM     12  O   UNL     1       7.902  -1.044  -0.449  0.00  0.00    -0.276 OA
BRANCH  11  13
ATOM     13  C   UNL     1       7.351   0.268  -2.332  0.00  0.00    +0.096 C 
BRANCH  13  14
ATOM     14  C   UNL     1       8.784   0.776  -2.165  0.00  0.00    +0.013 C 
BRANCH  14  15
ATOM     15  C   UNL     1       9.087   1.812  -3.249  0.00  0.00    -0.011 C 
ATOM     16  C   UNL     1       9.127   1.133  -4.633  0.00  0.00    +0.003 C 
ATOM     17  C   UNL     1      10.265   1.867  -5.385  0.00  0.00    +0.000 C 
ATOM     18  C   UNL     1      11.319   2.094  -4.272  0.00  0.00    +0.000 C 
ATOM     19  C   UNL     1      10.480   2.424  -3.019  0.00  0.00    +0.003 C 
ENDBRANCH  14  15
ENDBRANCH  13  14
ENDBRANCH  11  13
ENDBRANCH   1   2
BRANCH   1  20
ATOM     20  N   UNL     1      -0.041  -2.874  -1.384  0.00  0.00    -0.288 N 
ATOM     21  C   UNL     1      -0.758  -3.150  -2.491  0.00  0.00    +0.305 C 
ATOM     22  O   UNL     1      -0.535  -2.549  -3.525  0.00  0.00    -0.252 OA
ATOM     23  N   UNL     1      -1.722  -4.090  -2.454  0.00  0.00    -0.267 N 
ATOM     24  H   UNL     1      -0.219  -3.354  -0.559  0.00  0.00    +0.151 HD
ATOM     25  H   UNL     1      -1.861  -4.611  -1.647  0.00  0.00    +0.156 HD
BRANCH  23  26
ATOM     26  C   UNL     1      -2.524  -4.317  -3.580  0.00  0.00    +0.070 A 
ATOM     27  C   UNL     1      -1.988  -4.186  -4.853  0.00  0.00    +0.026 A 
ATOM     28  C   UNL     1      -2.781  -4.410  -5.962  0.00  0.00    +0.002 A 
ATOM     29  C   UNL     1      -4.109  -4.764  -5.805  0.00  0.00    +0.003 A 
ATOM     30  C   UNL     1      -4.647  -4.896  -4.539  0.00  0.00    +0.040 A 
ATOM     31  C   UNL     1      -3.858  -4.679  -3.424  0.00  0.00    +0.145 A 
ATOM     32  F   UNL     1      -4.382  -4.813  -2.187  0.00  0.00    -0.204 F 
ENDBRANCH  23  26
ENDBRANCH   1  20
BRANCH   1  33
ATOM     33  C   UNL     1       0.385  -0.474  -1.187  0.00  0.00    +0.015 C 
ATOM     34  C   UNL     1      -0.543  -0.126  -2.352  0.00  0.00    +0.010 C 
BRANCH  33  36
ATOM     35  C   UNL     1      -0.934   0.912   0.419  0.00  0.00    +0.004 C 
ATOM     36  C   UNL     1      -0.417  -0.495   0.116  0.00  0.00    +0.002 C 
ENDBRANCH  33  36
ENDBRANCH   1  33
TORSDOF 8
