REMARK  Name = ZINC35828833
REMARK  10 active torsions:
REMARK  status: ('A' for Active; 'I' for Inactive)
REMARK    1  A    between atoms: C_1  and  N_2
REMARK    2  A    between atoms: N_2  and  C_3
REMARK    3  A    between atoms: N_2  and  C_4
REMARK    4  A    between atoms: C_4  and  C_5
REMARK    5  A    between atoms: C_5  and  N_6
REMARK    6  A    between atoms: N_6  and  C_7
REMARK    7  A    between atoms: C_7  and  C_8
REMARK    8  A    between atoms: C_13  and  O_14
REMARK    9  A    between atoms: O_14  and  S_15
REMARK   10  A    between atoms: S_15  and  C_18
REMARK                            x       y       z     vdW  Elec       q    Type
REMARK                         _______ _______ _______ _____ _____    ______ ____
ROOT
ATOM      1  C   UNL     1       0.616  -0.717   6.064  0.00  0.00    -0.018 A 
ATOM      2  C   UNL     1       0.209  -1.884   6.684  0.00  0.00    +0.025 A 
ATOM      3  C   UNL     1       0.878  -2.343   7.804  0.00  0.00    +0.041 A 
ATOM      4  C   UNL     1       1.955  -1.634   8.308  0.00  0.00    +0.023 A 
ATOM      5  C   UNL     1       2.365  -0.468   7.692  0.00  0.00    +0.050 A 
ATOM      6  C   UNL     1       1.699  -0.009   6.564  0.00  0.00    +0.158 A 
ATOM      7 CL   UNL     1       0.365  -3.808   8.581  0.00  0.00    -0.084 Cl
ENDROOT
BRANCH   1   8
ATOM      8  C   UNL     1      -0.113  -0.218   4.844  0.00  0.00    -0.043 C 
BRANCH   8   9
ATOM      9  N   UNL     1       0.639  -0.590   3.638  0.00  0.00    +0.381 N 
ATOM     10  H   UNL     1       0.725  -1.594   3.591  0.00  0.00    -0.086 HD
ATOM     11  H   UNL     1       1.559  -0.175   3.674  0.00  0.00    -0.086 HD
BRANCH   9  12
ATOM     12  C   UNL     1      -0.071  -0.103   2.448  0.00  0.00    -0.101 C 
BRANCH  12  13
ATOM     13  C   UNL     1       0.713  -0.491   1.192  0.00  0.00    -0.099 C 
BRANCH  13  15
ATOM     14  C   UNL     1      -0.018   1.465   0.010  0.00  0.00    -0.097 C 
ATOM     15  N   UNL     1       0.002  -0.004   0.002  0.00  0.00    +0.375 N 
ATOM     16  C   UNL     1       0.690  -0.478  -1.207  0.00  0.00    -0.097 C 
ATOM     17  H   UNL     1      -0.945  -0.353   0.009  0.00  0.00    -0.083 HD
ENDBRANCH  13  15
ENDBRANCH  12  13
ENDBRANCH   9  12
ENDBRANCH   8   9
ENDBRANCH   1   8
BRANCH   6  18
ATOM     18  O   UNL     1       2.104   1.135   5.953  0.00  0.00    -0.342 OA
BRANCH  18  19
ATOM     19  S   UNL     1       1.432   2.393   6.486  0.00  0.00    +0.151 S 
ATOM     20  O   UNL     1       1.804   3.452   5.614  0.00  0.00    -0.131 OA
ATOM     21  O   UNL     1       0.076   2.053   6.738  0.00  0.00    -0.131 OA
BRANCH  19  22
ATOM     22  C   UNL     1       2.161   2.749   8.050  0.00  0.00    +0.128 A 
ATOM     23  C   UNL     1       1.619   2.212   9.203  0.00  0.00    +0.033 A 
ATOM     24  C   UNL     1       2.190   2.490  10.431  0.00  0.00    +0.040 A 
ATOM     25  C   UNL     1       3.305   3.308  10.505  0.00  0.00    +0.124 A 
ATOM     26  C   UNL     1       3.847   3.845   9.350  0.00  0.00    +0.040 A 
ATOM     27  C   UNL     1       3.277   3.561   8.123  0.00  0.00    +0.033 A 
ATOM     28  F   UNL     1       3.864   3.581  11.705  0.00  0.00    -0.205 F 
ENDBRANCH  19  22
ENDBRANCH  18  19
ENDBRANCH   6  18
TORSDOF 8
