REMARK  Name = ZINC37192073
REMARK  4 active torsions:
REMARK  status: ('A' for Active; 'I' for Inactive)
REMARK    1  A    between atoms: C_6  and  C_7
REMARK    2  A    between atoms: C_10  and  C_12
REMARK    3  A    between atoms: C_12  and  S_13
REMARK    4  A    between atoms: S_13  and  C_14
REMARK                            x       y       z     vdW  Elec       q    Type
REMARK                         _______ _______ _______ _____ _____    ______ ____
ROOT
ATOM      1  C   UNL     1      -1.266  -0.763   0.011  0.00  0.00    +0.155 A 
ATOM      2  C   UNL     1      -1.400  -2.115   0.010  0.00  0.00    +0.161 A 
ATOM      3  N   UNL     1      -2.713  -2.390   0.020  0.00  0.00    -0.220 NA
ATOM      4  C   UNL     1      -3.380  -1.270   0.027  0.00  0.00    +0.206 A 
ATOM      5  O   UNL     1      -2.514  -0.246   0.026  0.00  0.00    -0.439 OA
ENDROOT
BRANCH   1  11
ATOM      6  C   UNL     1      -0.017   1.391   0.010  0.00  0.00    +0.013 A 
ATOM      7  C   UNL     1       1.170   2.095   0.002  0.00  0.00    +0.021 A 
ATOM      8  C   UNL     1       2.378   1.419  -0.013  0.00  0.00    +0.041 A 
ATOM      9  C   UNL     1       2.403   0.034  -0.021  0.00  0.00    +0.021 A 
ATOM     10  C   UNL     1       1.223  -0.680  -0.014  0.00  0.00    +0.013 A 
ATOM     11  C   UNL     1       0.002  -0.004   0.002  0.00  0.00    +0.019 A 
ATOM     12 CL   UNL     1       3.868   2.310  -0.022  0.00  0.00    -0.084 Cl
ENDBRANCH   1  11
BRANCH   4  13
ATOM     13  C   UNL     1      -4.881  -1.145   0.039  0.00  0.00    +0.170 C 
BRANCH  13  14
ATOM     14  S   UNL     1      -5.470  -1.096   1.754  0.00  0.00    -0.114 S 
BRANCH  14  15
ATOM     15  C   UNL     1      -7.220  -0.951   1.600  0.00  0.00    +0.027 A 
ATOM     16  C   UNL     1      -8.025  -0.879   2.737  0.00  0.00    +0.019 A 
ATOM     17  C   UNL     1      -9.392  -0.765   2.569  0.00  0.00    +0.044 A 
ATOM     18  C   UNL     1      -9.917  -0.728   1.281  0.00  0.00    +0.116 A 
ATOM     19  N   UNL     1      -9.123  -0.799   0.225  0.00  0.00    -0.240 NA
ATOM     20  C   UNL     1      -7.813  -0.902   0.347  0.00  0.00    +0.127 A 
ATOM     21  N   UNL     1     -11.293  -0.614   1.101  0.00  0.00    -0.343 N 
ATOM     22  H   UNL     1     -11.880  -0.561   1.871  0.00  0.00    +0.144 HD
ATOM     23  H   UNL     1     -11.665  -0.587   0.205  0.00  0.00    +0.144 HD
ENDBRANCH  14  15
ENDBRANCH  13  14
ENDBRANCH   4  13
TORSDOF 4
