REMARK  Name = ZINC08635598
REMARK  9 active torsions:
REMARK  status: ('A' for Active; 'I' for Inactive)
REMARK    1  A    between atoms: C_1  and  O_2
REMARK    2  A    between atoms: O_2  and  C_3
REMARK    3  A    between atoms: C_3  and  C_4
REMARK    4  A    between atoms: N_6  and  C_7
REMARK    5  A    between atoms: C_7  and  C_8
REMARK    6  A    between atoms: C_16  and  C_18
REMARK    7  A    between atoms: C_18  and  N_67
REMARK    8  A    between atoms: C_21  and  C_24
REMARK    9  A    between atoms: C_24  and  C_25
REMARK                            x       y       z     vdW  Elec       q    Type
REMARK                         _______ _______ _______ _____ _____    ______ ____
ROOT
ATOM      1  C   UNL     1       2.093   1.539  -1.298  0.00  0.00    -0.051 C 
ATOM      2  C   UNL     1       2.147   0.009  -1.278  0.00  0.00    -0.010 C 
ATOM      3  C   UNL     1       1.455  -0.494  -0.004  0.00  0.00    -0.015 C 
ATOM      4  C   UNL     1       0.005   0.006  -0.004  0.00  0.00    -0.015 C 
ATOM      5  C   UNL     1       0.011   1.536  -0.061  0.00  0.00    -0.078 C 
ATOM      6  C   UNL     1       2.123   1.628   1.122  0.00  0.00    -0.076 C 
ATOM      7  C   UNL     1       2.177   0.100   1.212  0.00  0.00    -0.041 C 
ATOM      8  N   UNL     1       1.398   2.047  -0.097  0.00  0.00    +0.383 N 
ATOM      9  H   UNL     1       1.374   3.073  -0.134  0.00  0.00    -0.081 HD
ENDROOT
BRANCH   1  10
ATOM     10  C   UNL     1       3.517   2.099  -1.322  0.00  0.00    +0.089 C 
BRANCH  10  13
ATOM     11  C   UNL     1       4.612   4.274  -1.220  0.00  0.00    +0.239 C 
ATOM     12  O   UNL     1       5.680   3.707  -1.306  0.00  0.00    -0.273 OA
ATOM     13  N   UNL     1       3.468   3.560  -1.218  0.00  0.00    -0.315 N 
ATOM     14  H   UNL     1       2.614   4.013  -1.149  0.00  0.00    +0.149 HD
BRANCH  11  15
ATOM     15  C   UNL     1       4.562   5.776  -1.113  0.00  0.00    +0.255 C 
BRANCH  15  17
ATOM     16  C   UNL     1       5.957   7.724  -1.039  0.00  0.00    +0.194 C 
ATOM     17  O   UNL     1       5.891   6.299  -1.135  0.00  0.00    -0.374 OA
ENDBRANCH  15  17
ENDBRANCH  11  15
ENDBRANCH  10  13
ENDBRANCH   1  10
BRANCH   7  18
ATOM     18  C   UNL     1       3.635  -0.364   1.220  0.00  0.00    -0.077 C 
BRANCH  18  24
ATOM     19  C   UNL     1       3.555  -0.143   3.629  0.00  0.00    -0.079 C 
ATOM     20  C   UNL     1       4.210   0.547   4.828  0.00  0.00    -0.015 C 
ATOM     21  C   UNL     1       5.655   0.062   4.964  0.00  0.00    -0.010 C 
ATOM     22  C   UNL     1       6.409   0.355   3.663  0.00  0.00    -0.015 C 
ATOM     23  C   UNL     1       5.691  -0.331   2.498  0.00  0.00    -0.079 C 
ATOM     24  N   UNL     1       4.313   0.198   2.406  0.00  0.00    +0.380 N 
ATOM     25  H   UNL     1       4.354   1.220   2.314  0.00  0.00    -0.082 HD
BRANCH  21  26
ATOM     26  C   UNL     1       6.335   0.793   6.124  0.00  0.00    +0.038 C 
BRANCH  26  27
ATOM     27  C   UNL     1       5.669   0.408   7.419  0.00  0.00    -0.047 A 
ATOM     28  C   UNL     1       4.599   1.144   7.893  0.00  0.00    +0.003 A 
ATOM     29  C   UNL     1       3.985   0.788   9.078  0.00  0.00    +0.000 A 
ATOM     30  C   UNL     1       4.447  -0.299   9.797  0.00  0.00    +0.000 A 
ATOM     31  C   UNL     1       5.520  -1.032   9.326  0.00  0.00    +0.000 A 
ATOM     32  C   UNL     1       6.131  -0.679   8.138  0.00  0.00    +0.003 A 
ENDBRANCH  26  27
ENDBRANCH  21  26
ENDBRANCH  18  24
ENDBRANCH   7  18
TORSDOF 8
