REMARK  Name = ZINC47146741
REMARK  4 active torsions:
REMARK  status: ('A' for Active; 'I' for Inactive)
REMARK    1  A    between atoms: C_4  and  N_7
REMARK    2  A    between atoms: C_12  and  C_26
REMARK    3  A    between atoms: C_30  and  O_32
REMARK    4  A    between atoms: O_32  and  C_33
REMARK                            x       y       z     vdW  Elec       q    Type
REMARK                         _______ _______ _______ _____ _____    ______ ____
ROOT
ATOM      1  N   UNL     1       4.934  -0.112   1.449  0.00  0.00    -0.209 N 
ATOM      2  C   UNL     1       4.888  -1.426   1.147  0.00  0.00    +0.232 C 
ATOM      3  O   UNL     1       3.979  -2.011   0.597  0.00  0.00    -0.274 OA
ATOM      4  C   UNL     1       6.218  -2.041   1.637  0.00  0.00    +0.110 C 
ATOM      5  C   UNL     1       5.932  -2.373   3.099  0.00  0.00    +0.072 C 
ATOM      6  C   UNL     1       7.079  -2.284   4.028  0.00  0.00    +0.033 A 
ATOM      7  C   UNL     1       8.258  -1.651   3.878  0.00  0.00    +0.088 A 
ATOM      8  N   UNL     1       9.105  -1.719   4.957  0.00  0.00    -0.311 N 
ATOM      9  H   UNL     1       9.961  -1.263   4.931  0.00  0.00    +0.170 HD
ATOM     10  C   UNL     1       8.746  -2.419   6.048  0.00  0.00    +0.289 A 
ATOM     11  O   UNL     1       9.374  -2.588   7.079  0.00  0.00    -0.260 OA
ATOM     12  S   UNL     1       7.221  -3.004   5.649  0.00  0.00    -0.030 S 
ATOM     13  S   UNL     1       8.645  -0.834   2.350  0.00  0.00    -0.093 S 
ATOM     14  C   UNL     1       7.098  -0.798   1.444  0.00  0.00    +0.152 C 
ATOM     15  C   UNL     1       6.171   0.328   1.784  0.00  0.00    +0.240 C 
ATOM     16  O   UNL     1       6.466   1.404   2.260  0.00  0.00    -0.274 OA
ENDROOT
BRANCH   1  20
ATOM     17  C   UNL     1       1.585   2.368   1.344  0.00  0.00    +0.000 A 
ATOM     18  C   UNL     1       2.817   2.887   1.697  0.00  0.00    +0.002 A 
ATOM     19  C   UNL     1       3.928   2.068   1.733  0.00  0.00    +0.024 A 
ATOM     20  C   UNL     1       3.807   0.722   1.414  0.00  0.00    +0.044 A 
ATOM     21  C   UNL     1       2.569   0.204   1.061  0.00  0.00    +0.024 A 
ATOM     22  C   UNL     1       1.461   1.028   1.027  0.00  0.00    +0.002 A 
ENDBRANCH   1  20
BRANCH   5  23
ATOM     23  C   UNL     1       5.391  -3.778   3.163  0.00  0.00    -0.035 A 
ATOM     24  C   UNL     1       6.157  -4.835   2.708  0.00  0.00    +0.004 A 
ATOM     25  C   UNL     1       5.664  -6.125   2.765  0.00  0.00    +0.004 A 
ATOM     26  C   UNL     1       4.403  -6.362   3.278  0.00  0.00    +0.046 A 
ATOM     27  C   UNL     1       3.632  -5.303   3.736  0.00  0.00    +0.129 A 
ATOM     28  C   UNL     1       4.132  -4.010   3.682  0.00  0.00    +0.050 A 
BRANCH  27  29
ATOM     29  O   UNL     1       2.391  -5.533   4.241  0.00  0.00    -0.456 OA
BRANCH  29  30
ATOM     30  C   UNL     1       1.669  -4.464   4.668  0.00  0.00    +0.128 A 
ATOM     31  C   UNL     1       0.830  -3.795   3.788  0.00  0.00    +0.046 A 
ATOM     32  C   UNL     1       0.097  -2.709   4.225  0.00  0.00    +0.004 A 
ATOM     33  C   UNL     1       0.198  -2.289   5.538  0.00  0.00    +0.000 A 
ATOM     34  C   UNL     1       1.033  -2.953   6.417  0.00  0.00    +0.004 A 
ATOM     35  C   UNL     1       1.764  -4.044   5.987  0.00  0.00    +0.046 A 
ENDBRANCH  29  30
ENDBRANCH  27  29
ENDBRANCH   5  23
TORSDOF 4
