REMARK  Name = ZINC35810800
REMARK  5 active torsions:
REMARK  status: ('A' for Active; 'I' for Inactive)
REMARK    1  A    between atoms: C_4  and  C_7
REMARK    2  A    between atoms: C_8  and  C_9
REMARK    3  A    between atoms: N_11  and  C_12
REMARK    4  A    between atoms: N_15  and  C_18
REMARK    5  A    between atoms: C_23  and  C_24
REMARK                            x       y       z     vdW  Elec       q    Type
REMARK                         _______ _______ _______ _____ _____    ______ ____
ROOT
ATOM      1  C   UNL     1       8.457  -7.998  -1.647  0.00  0.00    +0.042 A 
ATOM      2  C   UNL     1       9.784  -8.404  -1.569  0.00  0.00    +0.024 A 
ATOM      3  C   UNL     1      10.134  -9.692  -1.917  0.00  0.00    +0.002 A 
ATOM      4  C   UNL     1       9.170 -10.590  -2.348  0.00  0.00    +0.001 A 
ATOM      5  C   UNL     1       7.850 -10.206  -2.433  0.00  0.00    +0.015 A 
ATOM      6  C   UNL     1       7.478  -8.907  -2.078  0.00  0.00    +0.058 A 
ENDROOT
BRANCH   6   7
ATOM      7  C   UNL     1       6.066  -8.491  -2.161  0.00  0.00    +0.248 C 
ATOM      8  O   UNL     1       5.763  -7.485  -2.774  0.00  0.00    -0.270 OA
ATOM      9  N   UNL     1       5.110  -9.225  -1.557  0.00  0.00    -0.294 N 
ATOM     10  C   UNL     1       5.472 -10.367  -0.704  0.00  0.00    +0.127 C 
ATOM     11  C   UNL     1       4.833 -10.168   0.676  0.00  0.00    +0.125 C 
ATOM     12  N   UNL     1       3.412  -9.842   0.494  0.00  0.00    -0.314 N 
ATOM     13  C   UNL     1       3.051  -8.701  -0.359  0.00  0.00    +0.125 C 
ATOM     14  C   UNL     1       3.689  -8.896  -1.735  0.00  0.00    +0.127 C 
ATOM     15  C   UNL     1       2.427 -10.600   1.116  0.00  0.00    +0.099 A 
ATOM     16  C   UNL     1       2.779 -11.755   1.808  0.00  0.00    +0.042 A 
ATOM     17  C   UNL     1       1.789 -12.499   2.423  0.00  0.00    +0.005 A 
ATOM     18  C   UNL     1       0.474 -12.062   2.325  0.00  0.00    +0.018 A 
ATOM     19  C   UNL     1       0.196 -10.907   1.623  0.00  0.00    +0.084 A 
ATOM     20  N   UNL     1       1.162 -10.213   1.050  0.00  0.00    -0.350 N 
ATOM     21  H   UNL     1       0.940  -9.403   0.566  0.00  0.00    +0.166 HD
ENDBRANCH   6   7
BRANCH   1  25
ATOM     22  C   UNL     1       6.441  -4.431  -1.009  0.00  0.00    +0.076 C 
ATOM     23  C   UNL     1       6.935  -4.861  -2.393  0.00  0.00    +0.041 C 
ATOM     24  C   UNL     1       8.271  -5.596  -2.248  0.00  0.00    +0.107 C 
ATOM     25  N   UNL     1       8.101  -6.703  -1.296  0.00  0.00    -0.329 N 
ATOM     26  C   UNL     1       7.548  -6.412   0.033  0.00  0.00    +0.107 C 
ATOM     27  C   UNL     1       6.220  -5.668  -0.137  0.00  0.00    +0.041 C 
BRANCH  22  30
ATOM     28  C   UNL     1       5.193  -2.377  -1.413  0.00  0.00    +0.237 C 
ATOM     29  O   UNL     1       6.253  -1.792  -1.538  0.00  0.00    -0.271 OA
ATOM     30  N   UNL     1       5.180  -3.699  -1.147  0.00  0.00    -0.309 N 
ATOM     31  H   UNL     1       4.335  -4.165  -1.047  0.00  0.00    +0.149 HD
BRANCH  28  33
ATOM     32  C   UNL     1       3.946  -0.324  -1.816  0.00  0.00    +0.013 C 
ATOM     33  C   UNL     1       3.932  -1.645  -1.550  0.00  0.00    +0.068 C 
BRANCH  32  37
ATOM     34  C   UNL     1       0.293   1.796  -2.216  0.00  0.00    +0.000 A 
ATOM     35  C   UNL     1       1.496   2.465  -2.358  0.00  0.00    +0.001 A 
ATOM     36  C   UNL     1       2.688   1.783  -2.230  0.00  0.00    +0.008 A 
ATOM     37  C   UNL     1       2.678   0.412  -1.954  0.00  0.00    -0.025 A 
ATOM     38  C   UNL     1       1.458  -0.257  -1.811  0.00  0.00    +0.008 A 
ATOM     39  C   UNL     1       0.275   0.439  -1.943  0.00  0.00    +0.001 A 
ENDBRANCH  32  37
ENDBRANCH  28  33
ENDBRANCH  22  30
ENDBRANCH   1  25
TORSDOF 5
