REMARK  Name = ZINC35560241
REMARK  6 active torsions:
REMARK  status: ('A' for Active; 'I' for Inactive)
REMARK    1  A    between atoms: C_1  and  C_2
REMARK    2  A    between atoms: C_2  and  N_3
REMARK    3  A    between atoms: N_3  and  C_4
REMARK    4  A    between atoms: C_4  and  C_6
REMARK    5  A    between atoms: C_4  and  C_16
REMARK    6  A    between atoms: C_9  and  C_12
REMARK                            x       y       z     vdW  Elec       q    Type
REMARK                         _______ _______ _______ _____ _____    ______ ____
ROOT
ATOM      1  C   UNL     1       0.733  -1.960   1.184  0.00  0.00    -0.008 C 
ENDROOT
BRANCH   1   2
ATOM      2  C   UNL     1       1.352  -2.461   2.463  0.00  0.00    -0.035 A 
ATOM      3  C   UNL     1       2.151  -1.631   3.229  0.00  0.00    +0.026 A 
ATOM      4  C   UNL     1       2.692  -2.113   4.374  0.00  0.00    +0.056 A 
ATOM      5  S   UNL     1       2.074  -3.788   4.399  0.00  0.00    -0.074 S 
ATOM      6  C   UNL     1       1.130  -3.730   2.884  0.00  0.00    +0.058 A 
ATOM      7 BR   UNL     1       0.093  -5.089   2.075  0.00  0.00    -0.042 Br
ATOM      8 BR   UNL     1       3.813  -1.240   5.622  0.00  0.00    -0.043 Br
ENDBRANCH   1   2
BRANCH   1   9
ATOM      9  C   UNL     1       1.543  -2.445   0.010  0.00  0.00    -0.057 A 
ATOM     10  C   UNL     1       2.713  -1.796  -0.337  0.00  0.00    +0.003 A 
ATOM     11  C   UNL     1       3.457  -2.241  -1.414  0.00  0.00    +0.012 A 
ATOM     12  C   UNL     1       3.030  -3.334  -2.144  0.00  0.00    +0.055 A 
ATOM     13  C   UNL     1       1.860  -3.984  -1.797  0.00  0.00    +0.012 A 
ATOM     14  C   UNL     1       1.119  -3.541  -0.717  0.00  0.00    +0.003 A 
BRANCH  12  15
ATOM     15  C   UNL     1       3.840  -3.819  -3.319  0.00  0.00    +0.417 C 
ATOM     16  F   UNL     1       4.772  -4.767  -2.884  0.00  0.00    -0.166 F 
ATOM     17  F   UNL     1       2.989  -4.401  -4.264  0.00  0.00    -0.166 F 
ATOM     18  F   UNL     1       4.512  -2.738  -3.900  0.00  0.00    -0.166 F 
ENDBRANCH  12  15
ENDBRANCH   1   9
BRANCH   1  19
ATOM     19  N   UNL     1       0.713  -0.491   1.192  0.00  0.00    +0.386 N 
ATOM     20  H   UNL     1       1.659  -0.141   1.185  0.00  0.00    -0.085 HD
ATOM     21  H   UNL     1       0.240  -0.165   2.022  0.00  0.00    -0.085 HD
BRANCH  19  23
ATOM     22  C   UNL     1      -0.019   1.526   0.010  0.00  0.00    -0.017 C 
ATOM     23  C   UNL     1       0.002  -0.004   0.002  0.00  0.00    -0.085 C 
ENDBRANCH  19  23
ENDBRANCH   1  19
TORSDOF 5
