REMARK  Name = ZINC06089558
REMARK  11 active torsions:
REMARK  status: ('A' for Active; 'I' for Inactive)
REMARK    1  A    between atoms: C_1  and  C_2
REMARK    2  A    between atoms: C_2  and  O_3
REMARK    3  A    between atoms: O_3  and  C_4
REMARK    4  A    between atoms: C_4  and  C_6
REMARK    5  A    between atoms: C_10  and  N_11
REMARK    6  A    between atoms: C_12  and  C_14
REMARK    7  A    between atoms: C_16  and  N_29
REMARK    8  A    between atoms: C_19  and  N_20
REMARK    9  A    between atoms: N_20  and  C_21
REMARK   10  A    between atoms: C_21  and  C_22
REMARK   11  A    between atoms: C_22  and  C_23
REMARK                            x       y       z     vdW  Elec       q    Type
REMARK                         _______ _______ _______ _____ _____    ______ ____
ROOT
ATOM      1  C   UNL     1       1.251   1.967   0.013  0.00  0.00    +0.060 A 
ATOM      2  C   UNL     1       1.239   3.361  -0.090  0.00  0.00    +0.047 A 
ATOM      3  C   UNL     1       2.426   4.059  -0.105  0.00  0.00    +0.127 A 
ATOM      4  C   UNL     1       3.636   3.386  -0.028  0.00  0.00    +0.034 A 
ATOM      5  C   UNL     1       3.665   2.010   0.069  0.00  0.00    +0.026 A 
ATOM      6  C   UNL     1       2.478   1.289   0.091  0.00  0.00    +0.040 A 
ENDROOT
BRANCH   1   8
ATOM      7  N   UNL     1      -1.190   1.873   0.068  0.00  0.00    -0.275 N 
ATOM      8  C   UNL     1      -0.015   1.214   0.035  0.00  0.00    +0.250 C 
ATOM      9  O   UNL     1       0.000  -0.002   0.017  0.00  0.00    -0.270 OA
ATOM     10  H   UNL     1      -1.203   2.842   0.083  0.00  0.00    +0.156 HD
BRANCH   7  15
ATOM     11  C   UNL     1      -3.679   1.659   0.122  0.00  0.00    +0.091 A 
ATOM     12  C   UNL     1      -4.764   0.693   0.125  0.00  0.00    -0.021 A 
ATOM     13  C   UNL     1      -4.382  -0.602   0.099  0.00  0.00    -0.004 A 
ATOM     14  S   UNL     1      -2.613  -0.552   0.064  0.00  0.00    -0.077 S 
ATOM     15  C   UNL     1      -2.381   1.165   0.083  0.00  0.00    +0.087 A 
ATOM     16  C   UNL     1      -5.272  -1.807   0.102  0.00  0.00    +0.043 C 
ATOM     17  C   UNL     1      -6.684  -1.365   0.515  0.00  0.00    +0.005 C 
ATOM     18  C   UNL     1      -7.070  -0.125  -0.297  0.00  0.00    +0.005 C 
ATOM     19  C   UNL     1      -6.239   1.075   0.160  0.00  0.00    +0.037 C 
BRANCH  11  20
ATOM     20  C   UNL     1      -3.942   3.099   0.156  0.00  0.00    +0.342 C 
ATOM     21  O   UNL     1      -4.077   3.717  -0.883  0.00  0.00    -0.245 OA
BRANCH  20  22
ATOM     22  O   UNL     1      -4.037   3.740   1.339  0.00  0.00    -0.461 OA
BRANCH  22  24
ATOM     23  C   UNL     1      -4.372   5.715   2.723  0.00  0.00    +0.048 C 
ATOM     24  C   UNL     1      -4.300   5.167   1.296  0.00  0.00    +0.229 C 
ENDBRANCH  22  24
ENDBRANCH  20  22
ENDBRANCH  11  20
ENDBRANCH   7  15
ENDBRANCH   1   8
BRANCH   3  25
ATOM     25  N   UNL     1       2.410   5.535  -0.211  0.00  0.00    +0.056 N 
ATOM     26  O   UNL     1       3.458   6.156  -0.229  0.00  0.00    -0.126 OA
ATOM     27  O   UNL     1       1.349   6.130  -0.279  0.00  0.00    -0.126 OA
ENDBRANCH   3  25
BRANCH   6  28
ATOM     28  N   UNL     1       2.505  -0.096   0.190  0.00  0.00    -0.343 N 
ATOM     29  H   UNL     1       1.681  -0.603   0.123  0.00  0.00    +0.146 HD
BRANCH  28  30
ATOM     30  C   UNL     1       3.778  -0.792   0.394  0.00  0.00    +0.106 C 
BRANCH  30  31
ATOM     31  C   UNL     1       3.530  -2.300   0.467  0.00  0.00    +0.054 C 
BRANCH  31  32
ATOM     32  C   UNL     1       4.839  -3.015   0.677  0.00  0.00    -0.046 A 
ATOM     33  C   UNL     1       5.583  -3.429  -0.412  0.00  0.00    +0.004 A 
ATOM     34  C   UNL     1       6.787  -4.081  -0.220  0.00  0.00    +0.000 A 
ATOM     35  C   UNL     1       7.242  -4.327   1.062  0.00  0.00    +0.000 A 
ATOM     36  C   UNL     1       6.495  -3.918   2.151  0.00  0.00    +0.000 A 
ATOM     37  C   UNL     1       5.294  -3.261   1.959  0.00  0.00    +0.004 A 
ENDBRANCH  31  32
ENDBRANCH  30  31
ENDBRANCH  28  30
ENDBRANCH   6  28
TORSDOF 10
