REMARK  Name = ZINC36118976
REMARK  10 active torsions:
REMARK  status: ('A' for Active; 'I' for Inactive)
REMARK    1  A    between atoms: C_1  and  C_2
REMARK    2  A    between atoms: C_5  and  O_9
REMARK    3  A    between atoms: C_6  and  C_8
REMARK    4  A    between atoms: O_9  and  C_10
REMARK    5  A    between atoms: C_10  and  C_11
REMARK    6  A    between atoms: C_21  and  C_23
REMARK    7  A    between atoms: C_23  and  N_24
REMARK    8  A    between atoms: N_24  and  C_25
REMARK    9  A    between atoms: C_25  and  C_26
REMARK   10  A    between atoms: C_32  and  C_34
REMARK                            x       y       z     vdW  Elec       q    Type
REMARK                         _______ _______ _______ _____ _____    ______ ____
ROOT
ATOM      1  C   UNL     1       0.275  -6.036  -1.333  0.00  0.00    +0.144 C 
ATOM      2  C   UNL     1      -0.895  -6.277  -0.381  0.00  0.00    -0.014 A 
ATOM      3  C   UNL     1      -2.229  -6.234  -0.784  0.00  0.00    +0.013 A 
ATOM      4  C   UNL     1      -3.215  -6.454   0.115  0.00  0.00    +0.046 A 
ATOM      5  S   UNL     1      -2.287  -6.741   1.615  0.00  0.00    -0.101 S 
ATOM      6  C   UNL     1      -0.662  -6.550   0.931  0.00  0.00    -0.004 A 
ATOM      7  C   UNL     1       0.656  -6.664   1.625  0.00  0.00    +0.061 C 
ATOM      8  C   UNL     1       1.738  -6.032   0.735  0.00  0.00    +0.114 C 
ATOM      9  N   UNL     1       1.505  -6.463  -0.652  0.00  0.00    -0.289 N 
ATOM     10  C   UNL     1       2.405  -7.238  -1.289  0.00  0.00    +0.234 C 
ATOM     11  O   UNL     1       2.202  -7.588  -2.432  0.00  0.00    -0.274 OA
ENDROOT
BRANCH   1  12
ATOM     12  C   UNL     1       0.364  -4.548  -1.679  0.00  0.00    +0.256 C 
BRANCH  12  13
ATOM     13  O   UNL     1       0.429  -3.782  -0.474  0.00  0.00    -0.490 OA
BRANCH  13  18
ATOM     14  C   UNL     1       0.770   1.813  -1.016  0.00  0.00    +0.044 C 
ATOM     15  C   UNL     1       0.679   0.316  -0.871  0.00  0.00    -0.050 A 
ATOM     16  C   UNL     1       0.614  -0.484  -1.998  0.00  0.00    +0.007 A 
ATOM     17  C   UNL     1       0.530  -1.856  -1.867  0.00  0.00    +0.046 A 
ATOM     18  C   UNL     1       0.512  -2.432  -0.605  0.00  0.00    +0.124 A 
ATOM     19  C   UNL     1       0.577  -1.628   0.523  0.00  0.00    -0.009 A 
ATOM     20  C   UNL     1       0.666  -0.256   0.387  0.00  0.00    +0.010 A 
ATOM     21  C   UNL     1       0.557  -2.250   1.895  0.00  0.00    +0.047 C 
ENDBRANCH  13  18
ENDBRANCH  12  13
ENDBRANCH   1  12
BRANCH  10  22
ATOM     22  C   UNL     1       3.663  -7.670  -0.580  0.00  0.00    +0.204 C 
BRANCH  22  23
ATOM     23  N   UNL     1       4.470  -8.499  -1.479  0.00  0.00    -0.286 N 
ATOM     24  C   UNL     1       4.365  -9.842  -1.433  0.00  0.00    +0.254 C 
ATOM     25  O   UNL     1       3.529 -10.363  -0.718  0.00  0.00    -0.269 OA
BRANCH  24  26
ATOM     26  C   UNL     1       5.258 -10.675  -2.244  0.00  0.00    +0.074 A 
ATOM     27  C   UNL     1       5.371 -12.056  -2.280  0.00  0.00    +0.021 A 
ATOM     28  C   UNL     1       6.309 -12.556  -3.151  0.00  0.00    +0.008 A 
ATOM     29  C   UNL     1       7.042 -11.692  -3.897  0.00  0.00    +0.046 A 
ATOM     30  S   UNL     1       6.476 -10.176  -3.446  0.00  0.00    -0.092 S 
ENDBRANCH  24  26
BRANCH  23  31
ATOM     31  C   UNL     1       5.390  -7.868  -2.428  0.00  0.00    +0.140 C 
BRANCH  31  32
ATOM     32  C   UNL     1       6.797  -7.831  -1.827  0.00  0.00    +0.136 C 
ATOM     33  C   UNL     1       7.780  -7.136  -2.802  0.00  0.00    +0.035 C 
ATOM     34  C   UNL     1       8.870  -6.637  -1.814  0.00  0.00    +0.031 C 
ATOM     35  C   UNL     1       8.042  -6.296  -0.557  0.00  0.00    +0.160 C 
ATOM     36  O   UNL     1       6.810  -7.024  -0.638  0.00  0.00    -0.375 OA
ENDBRANCH  31  32
ENDBRANCH  23  31
ENDBRANCH  22  23
ENDBRANCH  10  22
TORSDOF 8
