REMARK  Name = ZINC37604818
REMARK  9 active torsions:
REMARK  status: ('A' for Active; 'I' for Inactive)
REMARK    1  A    between atoms: C_1  and  C_2
REMARK    2  A    between atoms: C_2  and  N_3
REMARK    3  A    between atoms: C_4  and  C_6
REMARK    4  A    between atoms: C_9  and  C_11
REMARK    5  A    between atoms: C_11  and  O_12
REMARK    6  A    between atoms: O_12  and  C_13
REMARK    7  A    between atoms: C_19  and  C_29
REMARK    8  A    between atoms: C_24  and  C_26
REMARK    9  A    between atoms: C_32  and  C_35
REMARK                            x       y       z     vdW  Elec       q    Type
REMARK                         _______ _______ _______ _____ _____    ______ ____
ROOT
ATOM      1  C   UNL     1       3.648  -0.230  -8.307  0.00  0.00    +0.121 A 
ATOM      2  C   UNL     1       4.861   0.153  -8.861  0.00  0.00    +0.046 A 
ATOM      3  C   UNL     1       4.964   0.340 -10.222  0.00  0.00    +0.007 A 
ATOM      4  C   UNL     1       3.865   0.144 -11.050  0.00  0.00    -0.040 A 
ATOM      5  C   UNL     1       2.662  -0.245 -10.503  0.00  0.00    -0.016 A 
ATOM      6  C   UNL     1       2.554  -0.432  -9.132  0.00  0.00    +0.051 A 
ATOM      7  C   UNL     1       1.438  -0.502 -11.345  0.00  0.00    +0.137 C 
ATOM      8  N   UNL     1       1.664  -0.010 -12.708  0.00  0.00    -0.290 N 
ATOM      9  C   UNL     1       2.961  -0.320 -13.332  0.00  0.00    +0.113 C 
ATOM     10  C   UNL     1       4.051   0.383 -12.525  0.00  0.00    +0.054 C 
ATOM     11  C   UNL     1       0.722   0.697 -13.363  0.00  0.00    +0.219 C 
ATOM     12  O   UNL     1      -0.307   1.003 -12.800  0.00  0.00    -0.275 OA
ENDROOT
BRANCH   7  13
ATOM     13  C   UNL     1       0.256   0.213 -10.744  0.00  0.00    -0.023 A 
ATOM     14  C   UNL     1       0.321   1.573 -10.503  0.00  0.00    +0.006 A 
ATOM     15  C   UNL     1      -0.763   2.230  -9.951  0.00  0.00    +0.004 A 
ATOM     16  C   UNL     1      -1.913   1.527  -9.642  0.00  0.00    -0.050 A 
ATOM     17  C   UNL     1      -1.978   0.167  -9.883  0.00  0.00    +0.004 A 
ATOM     18  C   UNL     1      -0.895  -0.488 -10.439  0.00  0.00    +0.006 A 
ATOM     19  C   UNL     1      -3.094   2.243  -9.039  0.00  0.00    +0.044 C 
ENDBRANCH   7  13
BRANCH  11  20
ATOM     20  C   UNL     1       0.949   1.108 -14.796  0.00  0.00    +0.075 C 
ATOM     21  C   UNL     1       1.147   2.598 -15.080  0.00  0.00    +0.013 C 
ATOM     22  C   UNL     1      -0.158   1.909 -15.484  0.00  0.00    +0.013 C 
ENDBRANCH  11  20
BRANCH   1  23
ATOM     23  O   UNL     1       3.535  -0.412  -6.965  0.00  0.00    -0.484 OA
BRANCH  23  24
ATOM     24  C   UNL     1       4.707  -0.184  -6.179  0.00  0.00    +0.303 C 
BRANCH  24  28
ATOM     25  C   UNL     1       3.777  -0.091  -2.648  0.00  0.00    +0.190 A 
ATOM     26  C   UNL     1       4.121  -1.408  -2.755  0.00  0.00    +0.055 A 
ATOM     27  C   UNL     1       4.513  -1.617  -4.087  0.00  0.00    +0.049 A 
ATOM     28  C   UNL     1       4.393  -0.432  -4.726  0.00  0.00    +0.143 A 
ATOM     29  O   UNL     1       3.944   0.483  -3.858  0.00  0.00    -0.452 OA
BRANCH  25  31
ATOM     30  N   UNL     1       2.991   1.891  -1.467  0.00  0.00    -0.309 N 
ATOM     31  C   UNL     1       3.303   0.581  -1.434  0.00  0.00    +0.279 C 
ATOM     32  O   UNL     1       3.192  -0.046  -0.396  0.00  0.00    -0.267 OA
ATOM     33  H   UNL     1       3.079   2.390  -2.294  0.00  0.00    +0.149 HD
BRANCH  30  35
ATOM     34  C   UNL     1       2.236   4.034  -0.561  0.00  0.00    +0.024 C 
ATOM     35  C   UNL     1       2.517   2.562  -0.253  0.00  0.00    +0.101 C 
ENDBRANCH  30  35
ENDBRANCH  25  31
ENDBRANCH  24  28
ENDBRANCH  23  24
ENDBRANCH   1  23
TORSDOF 7
