REMARK  Name = ZINC20576601
REMARK  8 active torsions:
REMARK  status: ('A' for Active; 'I' for Inactive)
REMARK    1  A    between atoms: C_1  and  O_2
REMARK    2  A    between atoms: O_2  and  C_3
REMARK    3  A    between atoms: C_8  and  C_9
REMARK    4  A    between atoms: C_9  and  C_10
REMARK    5  A    between atoms: C_10  and  N_11
REMARK    6  A    between atoms: N_11  and  C_12
REMARK    7  A    between atoms: C_12  and  C_13
REMARK    8  A    between atoms: N_26  and  C_29
REMARK                            x       y       z     vdW  Elec       q    Type
REMARK                         _______ _______ _______ _____ _____    ______ ____
ROOT
ATOM      1  C   UNL     1       1.294  -0.392  -0.012  0.00  0.00    +0.039 A 
ATOM      2  C   UNL     1       0.002  -0.004   0.002  0.00  0.00    +0.024 A 
ATOM      3  C   UNL     1      -0.017   1.405   0.010  0.00  0.00    +0.020 A 
ATOM      4  C   UNL     1       1.264   1.828  -0.000  0.00  0.00    +0.093 A 
ATOM      5  N   UNL     1       2.075   0.729  -0.014  0.00  0.00    -0.297 N 
ATOM      6  C   UNL     1       3.471   0.748  -0.028  0.00  0.00    +0.202 A 
ATOM      7  N   UNL     1       4.335  -0.254  -0.036  0.00  0.00    -0.121 NA
ATOM      8  N   UNL     1       5.581  -0.062  -0.053  0.00  0.00    -0.124 NA
ATOM      9  C   UNL     1       6.102   1.157  -0.051  0.00  0.00    +0.186 A 
ATOM     10  S   UNL     1       4.603   2.135  -0.031  0.00  0.00    -0.013 S 
ATOM     11  N   UNL     1       7.431   1.559  -0.061  0.00  0.00    -0.312 N 
ATOM     12  C   UNL     1       7.703   2.449  -1.199  0.00  0.00    +0.088 C 
ATOM     13  C   UNL     1       9.153   2.932  -1.129  0.00  0.00    -0.059 C 
ATOM     14  N   UNL     1      10.055   1.772  -1.145  0.00  0.00    +0.384 N 
ATOM     15  C   UNL     1       9.783   0.882  -0.007  0.00  0.00    -0.059 C 
ATOM     16  C   UNL     1       8.333   0.399  -0.077  0.00  0.00    +0.088 C 
ATOM     17  H   UNL     1       9.867   1.208  -2.070  0.00  0.00    -0.081 HD
ENDROOT
BRANCH  14  18
ATOM     18  C   UNL     1      11.461   2.198  -1.156  0.00  0.00    -0.068 C 
ATOM     19  C   UNL     1      11.777   2.947   0.140  0.00  0.00    -0.015 C 
ATOM     20  C   UNL     1      13.241   3.391   0.129  0.00  0.00    -0.002 C 
ATOM     21  C   UNL     1      13.485   4.314  -1.066  0.00  0.00    -0.000 C 
ATOM     22  C   UNL     1      13.169   3.564  -2.362  0.00  0.00    -0.002 C 
ATOM     23  C   UNL     1      11.705   3.121  -2.351  0.00  0.00    -0.015 C 
ENDBRANCH  14  18
BRANCH   1  24
ATOM     24  C   UNL     1       1.789  -1.815  -0.024  0.00  0.00    +0.135 C 
BRANCH  24  25
ATOM     25  N   UNL     1       2.052  -2.230  -1.409  0.00  0.00    -0.310 NA
ATOM     26  H   UNL     1       2.809  -1.560  -1.841  0.00  0.00    +0.122 HD
BRANCH  25  27
ATOM     27  C   UNL     1       2.537  -3.616  -1.459  0.00  0.00    +0.086 C 
BRANCH  27  28
ATOM     28  C   UNL     1       2.799  -4.012  -2.914  0.00  0.00    +0.054 C 
BRANCH  28  34
ATOM     29  C   UNL     1       2.394  -6.485  -2.982  0.00  0.00    +0.123 A 
ATOM     30  C   UNL     1       2.856  -7.793  -3.030  0.00  0.00    +0.046 A 
ATOM     31  C   UNL     1       4.214  -8.043  -3.062  0.00  0.00    +0.004 A 
ATOM     32  C   UNL     1       5.112  -6.992  -3.047  0.00  0.00    +0.000 A 
ATOM     33  C   UNL     1       4.654  -5.689  -3.004  0.00  0.00    +0.007 A 
ATOM     34  C   UNL     1       3.297  -5.433  -2.966  0.00  0.00    -0.005 A 
BRANCH  29  36
ATOM     35  C   UNL     1       0.186  -7.368  -2.968  0.00  0.00    +0.277 C 
ATOM     36  O   UNL     1       1.058  -6.236  -2.950  0.00  0.00    -0.495 OA
ENDBRANCH  29  36
ENDBRANCH  28  34
ENDBRANCH  27  28
ENDBRANCH  25  27
ENDBRANCH  24  25
ENDBRANCH   1  24
TORSDOF 7
