REMARK  Name = ZINC12020168
REMARK  8 active torsions:
REMARK  status: ('A' for Active; 'I' for Inactive)
REMARK    1  A    between atoms: C_1  and  C_2
REMARK    2  A    between atoms: C_2  and  O_3
REMARK    3  A    between atoms: O_3  and  C_4
REMARK    4  A    between atoms: C_7  and  N_25
REMARK    5  A    between atoms: C_9  and  S_10
REMARK    6  A    between atoms: S_10  and  N_13
REMARK    7  A    between atoms: C_19  and  O_23
REMARK    8  A    between atoms: O_23  and  C_24
REMARK                            x       y       z     vdW  Elec       q    Type
REMARK                         _______ _______ _______ _____ _____    ______ ____
ROOT
ATOM      1  C   UNL     1       0.928   3.231  -0.061  0.00  0.00    +0.147 A 
ATOM      2  C   UNL     1       0.924   1.844  -0.099  0.00  0.00    +0.049 A 
ATOM      3  C   UNL     1      -0.273   1.155  -0.084  0.00  0.00    +0.029 A 
ATOM      4  C   UNL     1      -1.473   1.852  -0.036  0.00  0.00    +0.061 A 
ATOM      5  C   UNL     1      -1.469   3.240   0.007  0.00  0.00    +0.057 A 
ATOM      6  C   UNL     1      -0.271   3.927  -0.008  0.00  0.00    +0.152 A 
ENDROOT
BRANCH   4   7
ATOM      7  N   UNL     1      -2.688   1.154  -0.026  0.00  0.00    -0.144 N 
ATOM      8  C   UNL     1      -3.874   1.628  -0.439  0.00  0.00    +0.240 C 
ATOM      9  O   UNL     1      -3.969   2.745  -0.900  0.00  0.00    -0.274 OA
ATOM     10  C   UNL     1      -5.078   0.743  -0.320  0.00  0.00    +0.122 C 
ATOM     11  C   UNL     1      -4.603  -0.726  -0.164  0.00  0.00    +0.198 C 
ATOM     12  S   UNL     1      -2.919  -0.415   0.509  0.00  0.00    +0.052 S 
ATOM     13  O   UNL     1      -1.948  -1.200  -0.171  0.00  0.00    -0.155 OA
ATOM     14  O   UNL     1      -2.945  -0.338   1.927  0.00  0.00    -0.155 OA
ENDBRANCH   4   7
BRANCH   6  15
ATOM     15  S   UNL     1      -0.265   5.688   0.041  0.00  0.00    +0.077 S 
ATOM     16  O   UNL     1      -1.626   6.098   0.055  0.00  0.00    -0.150 OA
ATOM     17  O   UNL     1       0.654   6.063   1.058  0.00  0.00    -0.150 OA
BRANCH  15  18
ATOM     18  N   UNL     1       0.374   6.216  -1.392  0.00  0.00    -0.194 N 
ATOM     19  C   UNL     1      -0.290   5.968  -2.577  0.00  0.00    +0.179 A 
ATOM     20  N   UNL     1      -1.467   5.417  -2.762  0.00  0.00    -0.224 NA
ATOM     21  C   UNL     1      -1.999   5.236  -3.992  0.00  0.00    +0.081 A 
ATOM     22  C   UNL     1      -3.247   4.661  -4.326  0.00  0.00    +0.032 A 
ATOM     23  C   UNL     1      -3.640   4.549  -5.634  0.00  0.00    +0.048 A 
ATOM     24  C   UNL     1      -2.833   4.995  -6.675  0.00  0.00    +0.121 A 
ATOM     25  C   UNL     1      -1.603   5.564  -6.382  0.00  0.00    +0.063 A 
ATOM     26  C   UNL     1      -1.204   5.678  -5.073  0.00  0.00    +0.044 A 
ATOM     27  S   UNL     1       0.232   6.322  -4.249  0.00  0.00    -0.051 S 
ATOM     28  H   UNL     1       1.215   6.699  -1.399  0.00  0.00    +0.176 HD
BRANCH  24  29
ATOM     29  O   UNL     1      -3.245   4.874  -7.966  0.00  0.00    -0.495 OA
ATOM     30  C   UNL     1      -4.525   4.277  -8.185  0.00  0.00    +0.277 C 
ENDBRANCH  24  29
ENDBRANCH  15  18
ENDBRANCH   6  15
BRANCH   1  31
ATOM     31  O   UNL     1       2.107   3.908  -0.076  0.00  0.00    -0.490 OA
BRANCH  31  33
ATOM     32  C   UNL     1       4.513   4.060   0.085  0.00  0.00    +0.048 C 
ATOM     33  C   UNL     1       3.303   3.129  -0.009  0.00  0.00    +0.226 C 
ENDBRANCH  31  33
ENDBRANCH   1  31
TORSDOF 6
