REMARK  Name = ZINC39912398
REMARK  14 active torsions:
REMARK  status: ('A' for Active; 'I' for Inactive)
REMARK    1  A    between atoms: C_1  and  C_2
REMARK    2  A    between atoms: C_2  and  O_3
REMARK    3  A    between atoms: O_3  and  C_4
REMARK    4  A    between atoms: C_7  and  C_13
REMARK    5  A    between atoms: C_9  and  O_10
REMARK    6  A    between atoms: O_10  and  C_11
REMARK    7  A    between atoms: C_11  and  C_12
REMARK    8  A    between atoms: C_16  and  C_32
REMARK    9  A    between atoms: N_23  and  C_24
REMARK   10  A    between atoms: C_24  and  C_25
REMARK   11  A    between atoms: C_28  and  C_31
REMARK   12  A    between atoms: C_34  and  C_40
REMARK   13  A    between atoms: C_36  and  C_39
REMARK   14  A    between atoms: C_37  and  O_38
REMARK                            x       y       z     vdW  Elec       q    Type
REMARK                         _______ _______ _______ _____ _____    ______ ____
ROOT
ATOM      1  C   UNL     1      -1.730  -5.778  -0.477  0.00  0.00    +0.142 C 
ATOM      2  C   UNL     1      -1.609  -6.708   0.699  0.00  0.00    +0.035 A 
ATOM      3  C   UNL     1      -2.073  -7.072   1.968  0.00  0.00    +0.102 A 
ATOM      4  N   UNL     1      -1.362  -8.109   2.365  0.00  0.00    -0.173 NA
ATOM      5  N   UNL     1      -0.496  -8.436   1.474  0.00  0.00    -0.272 N 
ATOM      6  H   UNL     1       0.134  -9.169   1.552  0.00  0.00    +0.189 HD
ATOM      7  C   UNL     1      -0.595  -7.598   0.399  0.00  0.00    +0.126 A 
ATOM      8  C   UNL     1      -0.063  -7.269  -0.928  0.00  0.00    +0.266 C 
ATOM      9  O   UNL     1       0.841  -7.867  -1.481  0.00  0.00    -0.268 OA
ATOM     10  N   UNL     1      -0.716  -6.212  -1.447  0.00  0.00    -0.281 N 
ENDROOT
BRANCH   3  11
ATOM     11  C   UNL     1      -3.164  -6.412   2.727  0.00  0.00    +0.044 A 
ATOM     12  C   UNL     1      -3.913  -5.397   2.135  0.00  0.00    +0.017 A 
ATOM     13  C   UNL     1      -4.926  -4.786   2.845  0.00  0.00    -0.049 A 
ATOM     14  C   UNL     1      -5.201  -5.177   4.144  0.00  0.00    +0.010 A 
ATOM     15  C   UNL     1      -4.464  -6.182   4.740  0.00  0.00    -0.008 A 
ATOM     16  C   UNL     1      -3.447  -6.809   4.037  0.00  0.00    +0.129 A 
ATOM     17  C   UNL     1      -4.769  -6.602   6.155  0.00  0.00    +0.047 C 
ATOM     18  C   UNL     1      -5.736  -3.689   2.204  0.00  0.00    +0.044 C 
BRANCH  16  19
ATOM     19  O   UNL     1      -2.726  -7.801   4.619  0.00  0.00    -0.506 OA
ATOM     20  H   UNL     1      -1.942  -7.491   5.094  0.00  0.00    +0.292 HD
ENDBRANCH  16  19
ENDBRANCH   3  11
BRANCH   1  24
ATOM     21  C   UNL     1      -0.972  -1.751   0.746  0.00  0.00    +0.162 A 
ATOM     22  C   UNL     1      -2.212  -2.101   0.236  0.00  0.00    +0.050 A 
ATOM     23  C   UNL     1      -2.454  -3.404  -0.159  0.00  0.00    +0.009 A 
ATOM     24  C   UNL     1      -1.461  -4.359  -0.046  0.00  0.00    -0.019 A 
ATOM     25  C   UNL     1      -0.222  -4.016   0.463  0.00  0.00    +0.055 A 
ATOM     26  C   UNL     1       0.029  -2.711   0.855  0.00  0.00    +0.162 A 
BRANCH  21  27
ATOM     27  O   UNL     1      -0.733  -0.470   1.134  0.00  0.00    -0.489 OA
BRANCH  27  29
ATOM     28  C   UNL     1      -1.353   1.841   1.478  0.00  0.00    +0.048 C 
ATOM     29  C   UNL     1      -1.807   0.462   0.994  0.00  0.00    +0.226 C 
ENDBRANCH  27  29
ENDBRANCH  21  27
BRANCH  26  30
ATOM     30  O   UNL     1       1.249  -2.371   1.350  0.00  0.00    -0.489 OA
BRANCH  30  31
ATOM     31  C   UNL     1       2.239  -3.400   1.399  0.00  0.00    +0.226 C 
ATOM     32  C   UNL     1       3.541  -2.828   1.963  0.00  0.00    +0.048 C 
ENDBRANCH  30  31
ENDBRANCH  26  30
ENDBRANCH   1  24
BRANCH  10  33
ATOM     33  C   UNL     1      -0.461  -5.601  -2.753  0.00  0.00    +0.144 C 
BRANCH  33  34
ATOM     34  C   UNL     1       0.573  -4.514  -2.606  0.00  0.00    -0.030 A 
ATOM     35  C   UNL     1       0.178  -3.218  -2.328  0.00  0.00    +0.005 A 
ATOM     36  C   UNL     1       1.126  -2.221  -2.193  0.00  0.00    +0.003 A 
ATOM     37  C   UNL     1       2.469  -2.520  -2.334  0.00  0.00    -0.050 A 
ATOM     38  C   UNL     1       2.863  -3.816  -2.610  0.00  0.00    +0.003 A 
ATOM     39  C   UNL     1       1.915  -4.813  -2.742  0.00  0.00    +0.005 A 
ATOM     40  C   UNL     1       3.502  -1.433  -2.187  0.00  0.00    +0.044 C 
ENDBRANCH  33  34
ENDBRANCH  10  33
TORSDOF 9
