REMARK  Name = ZINC34897237
REMARK  11 active torsions:
REMARK  status: ('A' for Active; 'I' for Inactive)
REMARK    1  A    between atoms: C_1  and  C_2
REMARK    2  A    between atoms: N_8  and  C_9
REMARK    3  A    between atoms: C_9  and  C_10
REMARK    4  A    between atoms: C_10  and  C_11
REMARK    5  A    between atoms: C_11  and  N_12
REMARK    6  A    between atoms: C_13  and  C_15
REMARK    7  A    between atoms: C_15  and  C_16
REMARK    8  A    between atoms: C_22  and  C_24
REMARK    9  A    between atoms: C_24  and  N_25
REMARK   10  A    between atoms: N_25  and  C_26
REMARK   11  A    between atoms: C_29  and  C_31
REMARK                            x       y       z     vdW  Elec       q    Type
REMARK                         _______ _______ _______ _____ _____    ______ ____
ROOT
ATOM      1  C   UNL     1       9.629  -2.552   2.798  0.00  0.00    +0.059 A 
ATOM      2  C   UNL     1       9.745  -2.294   4.124  0.00  0.00    +0.072 A 
ATOM      3  S   UNL     1      11.132  -1.169   4.124  0.00  0.00    -0.060 S 
ATOM      4  C   UNL     1      11.413  -1.147   2.464  0.00  0.00    +0.165 A 
ATOM      5  N   UNL     1      10.492  -1.959   1.994  0.00  0.00    -0.229 NA
ATOM      6  N   UNL     1      12.386  -0.446   1.762  0.00  0.00    -0.263 N 
ATOM      7  C   UNL     1      13.257   0.342   2.423  0.00  0.00    +0.236 C 
ATOM      8  O   UNL     1      13.192   0.439   3.631  0.00  0.00    -0.274 OA
ATOM      9  H   UNL     1      12.438  -0.523   0.797  0.00  0.00    +0.157 HD
ENDROOT
BRANCH   1  10
ATOM     10  C   UNL     1       8.567  -3.480   2.267  0.00  0.00    +0.151 C 
BRANCH  10  12
ATOM     11  N   UNL     1       6.744  -3.405   0.597  0.00  0.00    -0.315 N 
ATOM     12  C   UNL     1       7.757  -2.766   1.216  0.00  0.00    +0.219 C 
ATOM     13  O   UNL     1       8.017  -1.618   0.926  0.00  0.00    -0.275 OA
ATOM     14  H   UNL     1       6.536  -4.323   0.829  0.00  0.00    +0.149 HD
BRANCH  11  15
ATOM     15  C   UNL     1       5.956  -2.711  -0.425  0.00  0.00    +0.102 C 
BRANCH  15  16
ATOM     16  C   UNL     1       4.878  -3.653  -0.965  0.00  0.00    +0.000 C 
BRANCH  16  17
ATOM     17  C   UNL     1       4.056  -2.928  -2.032  0.00  0.00    -0.077 C 
BRANCH  17  24
ATOM     18  C   UNL     1       1.560  -1.882  -2.781  0.00  0.00    -0.013 C 
ATOM     19  C   UNL     1       2.157  -3.101  -3.486  0.00  0.00    -0.072 C 
ATOM     20  C   UNL     1       1.029  -4.016  -3.965  0.00  0.00    -0.016 C 
ATOM     21  C   UNL     1       1.631  -5.235  -4.670  0.00  0.00    -0.003 C 
ATOM     22  C   UNL     1       2.587  -5.947  -3.708  0.00  0.00    -0.019 C 
ATOM     23  C   UNL     1       3.658  -4.961  -3.238  0.00  0.00    -0.078 C 
ATOM     24  N   UNL     1       3.020  -3.832  -2.550  0.00  0.00    +0.381 N 
ATOM     25  H   UNL     1       2.464  -4.178  -1.782  0.00  0.00    -0.081 HD
ENDBRANCH  17  24
ENDBRANCH  16  17
ENDBRANCH  15  16
ENDBRANCH  11  15
ENDBRANCH  10  12
ENDBRANCH   1  10
BRANCH   7  26
ATOM     26  C   UNL     1      14.312   1.103   1.662  0.00  0.00    +0.204 C 
BRANCH  26  27
ATOM     27  N   UNL     1      15.127   1.880   2.600  0.00  0.00    -0.286 N 
ATOM     28  C   UNL     1      15.004   3.221   2.649  0.00  0.00    +0.247 C 
ATOM     29  O   UNL     1      15.743   3.873   3.361  0.00  0.00    -0.270 OA
BRANCH  28  30
ATOM     30  C   UNL     1      13.971   3.899   1.837  0.00  0.00    +0.037 A 
ATOM     31  C   UNL     1      12.806   3.221   1.477  0.00  0.00    +0.013 A 
ATOM     32  C   UNL     1      11.846   3.859   0.720  0.00  0.00    +0.001 A 
ATOM     33  C   UNL     1      12.036   5.169   0.318  0.00  0.00    +0.000 A 
ATOM     34  C   UNL     1      13.189   5.847   0.671  0.00  0.00    +0.001 A 
ATOM     35  C   UNL     1      14.155   5.222   1.433  0.00  0.00    +0.013 A 
ENDBRANCH  28  30
BRANCH  27  36
ATOM     36  C   UNL     1      16.074   1.198   3.486  0.00  0.00    +0.077 C 
ATOM     37  C   UNL     1      16.603   1.979   4.690  0.00  0.00    +0.024 C 
ATOM     38  C   UNL     1      17.519   1.702   3.496  0.00  0.00    +0.024 C 
ENDBRANCH  27  36
ENDBRANCH  26  27
ENDBRANCH   7  26
TORSDOF 10
