REMARK  Name = ZINC33812499
REMARK  16 active torsions:
REMARK  status: ('A' for Active; 'I' for Inactive)
REMARK    1  A    between atoms: C_1  and  C_2
REMARK    2  A    between atoms: C_2  and  C_3
REMARK    3  A    between atoms: C_3  and  C_4
REMARK    4  A    between atoms: C_4  and  C_5
REMARK    5  A    between atoms: C_5  and  C_7
REMARK    6  A    between atoms: C_5  and  C_9
REMARK    7  A    between atoms: C_7  and  C_8
REMARK    8  A    between atoms: C_9  and  N_10
REMARK    9  A    between atoms: C_14  and  C_15
REMARK   10  A    between atoms: C_16  and  C_34
REMARK   11  A    between atoms: C_17  and  C_32
REMARK   12  A    between atoms: N_20  and  C_30
REMARK   13  A    between atoms: C_21  and  N_22
REMARK   14  A    between atoms: N_25  and  C_28
REMARK   15  A    between atoms: C_28  and  C_29
REMARK   16  A    between atoms: C_30  and  C_31
REMARK                            x       y       z     vdW  Elec       q    Type
REMARK                         _______ _______ _______ _____ _____    ______ ____
ROOT
ATOM      1  C   UNL     1       6.911  -5.019   3.448  0.00  0.00    +0.019 A 
ATOM      2  C   UNL     1       6.521  -4.513   2.197  0.00  0.00    -0.017 A 
ATOM      3  C   UNL     1       7.482  -4.369   1.200  0.00  0.00    +0.120 A 
ATOM      4  C   UNL     1       8.825  -4.736   1.469  0.00  0.00    +0.270 A 
ATOM      5  O   UNL     1       9.671  -4.612   0.601  0.00  0.00    -0.266 OA
ATOM      6  N   UNL     1       9.173  -5.218   2.675  0.00  0.00    -0.295 N 
ATOM      7  C   UNL     1       8.255  -5.363   3.666  0.00  0.00    +0.112 A 
ATOM      8  C   UNL     1       5.086  -4.131   1.938  0.00  0.00    +0.046 C 
ENDROOT
BRANCH   1  13
ATOM      9  N   UNL     1       4.898  -1.818   5.537  0.00  0.00    -0.255 N 
ATOM     10  C   UNL     1       5.619  -2.703   4.870  0.00  0.00    +0.258 C 
ATOM     11  O   UNL     1       6.497  -2.348   4.105  0.00  0.00    -0.269 OA
ATOM     12  C   UNL     1       5.337  -4.088   5.074  0.00  0.00    +0.077 C 
ATOM     13  C   UNL     1       5.925  -5.182   4.518  0.00  0.00    +0.032 C 
ATOM     14  S   UNL     1       4.002  -3.993   6.259  0.00  0.00    -0.061 S 
ATOM     15  C   UNL     1       3.928  -2.213   6.391  0.00  0.00    +0.121 C 
ATOM     16  S   UNL     1       2.888  -1.251   7.352  0.00  0.00    -0.027 S 
BRANCH   9  17
ATOM     17  C   UNL     1       5.159  -0.389   5.353  0.00  0.00    +0.118 C 
BRANCH  17  18
ATOM     18  C   UNL     1       6.098   0.105   6.456  0.00  0.00    +0.007 C 
BRANCH  18  19
ATOM     19  C   UNL     1       6.296   1.616   6.318  0.00  0.00    +0.002 C 
ATOM     20  C   UNL     1       4.965   2.329   6.558  0.00  0.00    +0.004 C 
ENDBRANCH  18  19
BRANCH  18  21
ATOM     21  C   UNL     1       7.449  -0.601   6.329  0.00  0.00    +0.005 C 
BRANCH  21  22
ATOM     22  C   UNL     1       8.345  -0.202   7.503  0.00  0.00    +0.000 C 
BRANCH  22  24
ATOM     23  C   UNL     1      10.593  -0.509   8.550  0.00  0.00    +0.004 C 
ATOM     24  C   UNL     1       9.697  -0.908   7.376  0.00  0.00    -0.003 C 
ENDBRANCH  22  24
ENDBRANCH  21  22
ENDBRANCH  18  21
ENDBRANCH  17  18
ENDBRANCH   9  17
ENDBRANCH   1  13
BRANCH   7  25
ATOM     25  N   UNL     1       8.641  -5.850   4.880  0.00  0.00    -0.320 N 
ATOM     26  C   UNL     1       8.978  -4.941   5.987  0.00  0.00    +0.088 C 
ATOM     27  C   UNL     1       8.198  -5.382   7.231  0.00  0.00    -0.060 C 
ATOM     28  N   UNL     1       8.474  -6.798   7.504  0.00  0.00    +0.382 N 
ATOM     29  C   UNL     1       7.965  -7.628   6.404  0.00  0.00    -0.060 C 
ATOM     30  C   UNL     1       8.727  -7.298   5.122  0.00  0.00    +0.088 C 
ATOM     31  H   UNL     1       9.469  -6.935   7.593  0.00  0.00    -0.082 HD
BRANCH  28  32
ATOM     32  C   UNL     1       7.814  -7.191   8.757  0.00  0.00    -0.082 C 
ATOM     33  C   UNL     1       8.201  -8.629   9.108  0.00  0.00    -0.017 C 
ENDBRANCH  28  32
ENDBRANCH   7  25
BRANCH   6  34
ATOM     34  C   UNL     1      10.568  -5.590   2.927  0.00  0.00    +0.123 C 
ATOM     35  C   UNL     1      11.305  -4.407   3.558  0.00  0.00    +0.027 C 
ENDBRANCH   6  34
BRANCH   3  36
ATOM     36  C   UNL     1       7.117  -3.856  -0.086  0.00  0.00    +0.105 C 
ATOM     37  N   UNL     1       6.827  -3.449  -1.107  0.00  0.00    -0.191 NA
ENDBRANCH   3  36
TORSDOF 11
