REMARK  Name = ZINC01770942
REMARK  11 active torsions:
REMARK  status: ('A' for Active; 'I' for Inactive)
REMARK    1  A    between atoms: C_1  and  C_2
REMARK    2  A    between atoms: C_2  and  N_59
REMARK    3  A    between atoms: C_3  and  C_4
REMARK    4  A    between atoms: C_3  and  N_59
REMARK    5  A    between atoms: C_5  and  C_6
REMARK    6  A    between atoms: C_5  and  N_59
REMARK    7  A    between atoms: C_7  and  O_34
REMARK    8  A    between atoms: C_13  and  C_30
REMARK    9  A    between atoms: C_14  and  O_17
REMARK   10  A    between atoms: O_17  and  C_18
REMARK   11  A    between atoms: C_21  and  C_24
REMARK                            x       y       z     vdW  Elec       q    Type
REMARK                         _______ _______ _______ _____ _____    ______ ____
ROOT
ATOM      1  C   UNL     1       1.147  -1.980   0.005  0.00  0.00    +0.020 A 
ATOM      2  C   UNL     1       2.378  -2.614  -0.014  0.00  0.00    +0.122 A 
ATOM      3  C   UNL     1       3.557  -1.873  -0.064  0.00  0.00    +0.046 A 
ATOM      4  C   UNL     1       3.514  -0.508  -0.096  0.00  0.00    +0.019 A 
ATOM      5  C   UNL     1       2.281   0.146  -0.077  0.00  0.00    +0.068 A 
ATOM      6  C   UNL     1       1.086  -0.594  -0.026  0.00  0.00    +0.144 A 
ATOM      7  O   UNL     1      -0.099   0.048  -0.008  0.00  0.00    -0.447 OA
ATOM      8  C   UNL     1      -0.192   1.384  -0.038  0.00  0.00    +0.254 A 
ATOM      9  C   UNL     1       0.888   2.189  -0.087  0.00  0.00    +0.222 A 
ATOM     10  C   UNL     1       2.191   1.616  -0.109  0.00  0.00    +0.235 A 
ATOM     11  O   UNL     1       3.191   2.313  -0.153  0.00  0.00    -0.283 OA
ENDROOT
BRANCH   8  12
ATOM     12  C   UNL     1      -1.561   2.014  -0.021  0.00  0.00    +0.454 C 
ATOM     13  F   UNL     1      -2.015   2.177  -1.335  0.00  0.00    -0.163 F 
ATOM     14  F   UNL     1      -2.446   1.186   0.678  0.00  0.00    -0.163 F 
ATOM     15  F   UNL     1      -1.494   3.261   0.608  0.00  0.00    -0.163 F 
ENDBRANCH   8  12
BRANCH   2  16
ATOM     16  O   UNL     1       2.437  -3.970   0.016  0.00  0.00    -0.506 OA
ATOM     17  H   UNL     1       2.517  -4.380  -0.856  0.00  0.00    +0.292 HD
ENDBRANCH   2  16
BRANCH   1  18
ATOM     18  C   UNL     1      -0.121  -2.792   0.059  0.00  0.00    -0.036 C 
BRANCH  18  19
ATOM     19  N   UNL     1      -0.666  -2.912  -1.310  0.00  0.00    +0.382 N 
ATOM     20  H   UNL     1      -0.584  -2.004  -1.782  0.00  0.00    -0.081 HD
BRANCH  19  22
ATOM     21  C   UNL     1      -0.062  -5.306  -1.442  0.00  0.00    -0.017 C 
ATOM     22  C   UNL     1       0.101  -3.920  -2.072  0.00  0.00    -0.082 C 
ENDBRANCH  19  22
BRANCH  19  23
ATOM     23  C   UNL     1      -2.091  -3.297  -1.254  0.00  0.00    -0.082 C 
ATOM     24  C   UNL     1      -2.714  -3.077  -2.635  0.00  0.00    -0.017 C 
ENDBRANCH  19  23
ENDBRANCH  18  19
ENDBRANCH   1  18
BRANCH   9  25
ATOM     25  O   UNL     1       0.734   3.542  -0.115  0.00  0.00    -0.448 OA
BRANCH  25  26
ATOM     26  C   UNL     1       0.695   4.204   1.070  0.00  0.00    +0.129 A 
ATOM     27  C   UNL     1       0.805   3.499   2.262  0.00  0.00    +0.047 A 
ATOM     28  C   UNL     1       0.772   4.169   3.466  0.00  0.00    +0.012 A 
ATOM     29  C   UNL     1       0.616   5.554   3.488  0.00  0.00    -0.018 A 
ATOM     30  C   UNL     1       0.500   6.258   2.291  0.00  0.00    +0.012 A 
ATOM     31  C   UNL     1       0.539   5.583   1.089  0.00  0.00    +0.047 A 
BRANCH  29  32
ATOM     32  C   UNL     1       0.574   6.277   4.782  0.00  0.00    -0.018 A 
ATOM     33  C   UNL     1       0.423   7.662   4.805  0.00  0.00    +0.008 A 
ATOM     34  C   UNL     1       0.380   8.330   6.013  0.00  0.00    +0.001 A 
ATOM     35  C   UNL     1       0.496   7.627   7.198  0.00  0.00    +0.000 A 
ATOM     36  C   UNL     1       0.650   6.253   7.182  0.00  0.00    +0.001 A 
ATOM     37  C   UNL     1       0.690   5.574   5.980  0.00  0.00    +0.008 A 
ENDBRANCH  29  32
ENDBRANCH  25  26
ENDBRANCH   9  25
TORSDOF 9
