REMARK  Name = ZINC38659643
REMARK  15 active torsions:
REMARK  status: ('A' for Active; 'I' for Inactive)
REMARK    1  A    between atoms: C_1  and  C_2
REMARK    2  A    between atoms: C_2  and  C_3
REMARK    3  A    between atoms: C_6  and  O_9
REMARK    4  A    between atoms: O_9  and  C_10
REMARK    5  A    between atoms: C_10  and  C_11
REMARK    6  A    between atoms: C_11  and  O_13
REMARK    7  A    between atoms: O_13  and  C_14
REMARK    8  A    between atoms: C_21  and  N_38
REMARK    9  A    between atoms: C_22  and  C_36
REMARK   10  A    between atoms: C_23  and  C_25
REMARK   11  A    between atoms: C_28  and  O_33
REMARK   12  A    between atoms: C_29  and  O_31
REMARK   13  A    between atoms: O_31  and  C_32
REMARK   14  A    between atoms: O_33  and  C_34
REMARK   15  A    between atoms: C_34  and  C_35
REMARK                            x       y       z     vdW  Elec       q    Type
REMARK                         _______ _______ _______ _____ _____    ______ ____
ROOT
ATOM      1  C   UNL     1      -9.332  -3.480  -1.941  0.00  0.00    +0.135 A 
ATOM      2  C   UNL     1      -9.882  -3.643  -0.677  0.00  0.00    +0.047 A 
ATOM      3  C   UNL     1     -11.158  -4.152  -0.541  0.00  0.00    +0.012 A 
ATOM      4  C   UNL     1     -11.893  -4.501  -1.660  0.00  0.00    +0.008 A 
ATOM      5  C   UNL     1     -11.349  -4.341  -2.925  0.00  0.00    +0.138 A 
ATOM      6  C   UNL     1     -10.067  -3.823  -3.064  0.00  0.00    +0.093 A 
ATOM      7  O   UNL     1     -12.053  -4.678  -4.033  0.00  0.00    -0.441 OA
ATOM      8  C   UNL     1     -13.103  -5.510  -3.933  0.00  0.00    +0.199 C 
ATOM      9  C   UNL     1     -13.731  -5.732  -2.754  0.00  0.00    +0.098 C 
ATOM     10  C   UNL     1     -13.283  -5.055  -1.490  0.00  0.00    +0.098 C 
ENDROOT
BRANCH  10  11
ATOM     11  C   UNL     1     -14.232  -3.930  -1.163  0.00  0.00    -0.031 A 
ATOM     12  C   UNL     1     -14.396  -2.886  -2.054  0.00  0.00    +0.008 A 
ATOM     13  C   UNL     1     -15.265  -1.852  -1.760  0.00  0.00    +0.050 A 
ATOM     14  C   UNL     1     -15.973  -1.861  -0.569  0.00  0.00    +0.162 A 
ATOM     15  C   UNL     1     -15.808  -2.912   0.328  0.00  0.00    +0.162 A 
ATOM     16  C   UNL     1     -14.939  -3.947   0.024  0.00  0.00    +0.054 A 
BRANCH  15  17
ATOM     17  O   UNL     1     -16.501  -2.924   1.498  0.00  0.00    -0.491 OA
ATOM     18  C   UNL     1     -16.280  -4.035   2.371  0.00  0.00    +0.277 C 
ENDBRANCH  15  17
BRANCH  14  19
ATOM     19  O   UNL     1     -16.828  -0.844  -0.277  0.00  0.00    -0.489 OA
BRANCH  19  20
ATOM     20  C   UNL     1     -16.948   0.201  -1.244  0.00  0.00    +0.226 C 
ATOM     21  C   UNL     1     -17.946   1.247  -0.744  0.00  0.00    +0.048 C 
ENDBRANCH  19  20
ENDBRANCH  14  19
ENDBRANCH  10  11
BRANCH   8  22
ATOM     22  N   UNL     1     -13.552  -6.153  -5.059  0.00  0.00    -0.328 N 
ATOM     23  H   UNL     1     -13.113  -6.004  -5.911  0.00  0.00    +0.145 HD
ATOM     24  H   UNL     1     -14.309  -6.757  -5.003  0.00  0.00    +0.145 HD
ENDBRANCH   8  22
BRANCH   9  25
ATOM     25  C   UNL     1     -14.845  -6.631  -2.711  0.00  0.00    +0.101 C 
ATOM     26  N   UNL     1     -15.728  -7.345  -2.678  0.00  0.00    -0.191 NA
ENDBRANCH   9  25
BRANCH   1  27
ATOM     27  O   UNL     1      -8.076  -2.979  -2.078  0.00  0.00    -0.423 OA
BRANCH  27  28
ATOM     28  C   UNL     1      -7.040  -3.797  -1.829  0.00  0.00    +0.350 C 
ATOM     29  O   UNL     1      -7.239  -4.913  -1.411  0.00  0.00    -0.247 OA
BRANCH  28  30
ATOM     30  C   UNL     1      -5.631  -3.324  -2.073  0.00  0.00    +0.349 C 
BRANCH  30  31
ATOM     31  O   UNL     1      -4.713  -4.366  -1.737  0.00  0.00    -0.481 OA
BRANCH  31  35
ATOM     32  C   UNL     1      -0.698  -3.561  -2.234  0.00  0.00    -0.047 A 
ATOM     33  C   UNL     1      -1.101  -4.796  -1.760  0.00  0.00    +0.007 A 
ATOM     34  C   UNL     1      -2.445  -5.068  -1.593  0.00  0.00    +0.046 A 
ATOM     35  C   UNL     1      -3.390  -4.101  -1.900  0.00  0.00    +0.121 A 
ATOM     36  C   UNL     1      -2.984  -2.862  -2.375  0.00  0.00    +0.046 A 
ATOM     37  C   UNL     1      -1.638  -2.593  -2.535  0.00  0.00    +0.007 A 
BRANCH  32  39
ATOM     38  C   UNL     1       1.335  -2.677  -1.123  0.00  0.00    +0.009 C 
ATOM     39  C   UNL     1       0.769  -3.267  -2.416  0.00  0.00    +0.032 C 
ENDBRANCH  32  39
ENDBRANCH  31  35
ENDBRANCH  30  31
ENDBRANCH  28  30
ENDBRANCH  27  28
ENDBRANCH   1  27
TORSDOF 12
