REMARK  Name = ZINC09056172
REMARK  7 active torsions:
REMARK  status: ('A' for Active; 'I' for Inactive)
REMARK    1  A    between atoms: C_9  and  C_12
REMARK    2  A    between atoms: C_12  and  N_13
REMARK    3  A    between atoms: C_14  and  C_16
REMARK    4  A    between atoms: C_16  and  S_17
REMARK    5  A    between atoms: S_17  and  C_18
REMARK    6  A    between atoms: C_21  and  S_24
REMARK    7  A    between atoms: S_24  and  N_27
REMARK                            x       y       z     vdW  Elec       q    Type
REMARK                         _______ _______ _______ _____ _____    ______ ____
ROOT
ATOM      1  C   UNL     1      -4.645   5.577   1.309  0.00  0.00    +0.171 C 
ENDROOT
BRANCH   1   3
ATOM      2  N   UNL     1      -3.622   3.396   0.747  0.00  0.00    -0.311 N 
ATOM      3  C   UNL     1      -4.640   4.262   0.572  0.00  0.00    +0.223 C 
ATOM      4  O   UNL     1      -5.551   3.984  -0.178  0.00  0.00    -0.275 OA
ATOM      5  H   UNL     1      -2.893   3.618   1.347  0.00  0.00    +0.149 HD
BRANCH   2   6
ATOM      6  C   UNL     1      -3.617   2.118   0.030  0.00  0.00    +0.152 C 
BRANCH   6  15
ATOM      7  C   UNL     1       2.400   0.032  -0.027  0.00  0.00    +0.004 A 
ATOM      8  C   UNL     1       2.382   1.415  -0.017  0.00  0.00    +0.004 A 
ATOM      9  C   UNL     1       1.177   2.091   0.002  0.00  0.00    +0.049 A 
ATOM     10  C   UNL     1      -0.017   1.385   0.010  0.00  0.00    +0.163 A 
ATOM     11  C   UNL     1       0.002  -0.004   0.002  0.00  0.00    +0.162 A 
ATOM     12  C   UNL     1       1.214  -0.677  -0.017  0.00  0.00    +0.049 A 
ATOM     13  O   UNL     1      -1.158  -0.717   0.017  0.00  0.00    -0.485 OA
ATOM     14  C   UNL     1      -2.350  -0.011  -0.344  0.00  0.00    +0.275 C 
ATOM     15  C   UNL     1      -2.361   1.329   0.404  0.00  0.00    +0.228 C 
ATOM     16  O   UNL     1      -1.195   2.066   0.019  0.00  0.00    -0.480 OA
ENDBRANCH   6  15
ENDBRANCH   2   6
ENDBRANCH   1   3
BRANCH   1  17
ATOM     17  S   UNL     1      -6.134   6.513   0.866  0.00  0.00    -0.097 S 
BRANCH  17  18
ATOM     18  C   UNL     1      -5.994   8.002   1.797  0.00  0.00    +0.097 A 
ATOM     19  C   UNL     1      -6.986   8.974   1.698  0.00  0.00    +0.037 A 
ATOM     20  C   UNL     1      -6.863  10.138   2.434  0.00  0.00    +0.032 A 
ATOM     21  C   UNL     1      -5.748  10.293   3.248  0.00  0.00    +0.124 A 
ATOM     22  C   UNL     1      -4.803   9.289   3.298  0.00  0.00    +0.140 A 
ATOM     23  N   UNL     1      -4.948   8.186   2.589  0.00  0.00    -0.247 NA
BRANCH  21  24
ATOM     24  S   UNL     1      -5.544  11.757   4.206  0.00  0.00    +0.062 S 
ATOM     25  O   UNL     1      -4.152  11.886   4.459  0.00  0.00    -0.153 OA
ATOM     26  O   UNL     1      -6.298  12.774   3.561  0.00  0.00    -0.153 OA
BRANCH  24  27
ATOM     27  N   UNL     1      -6.268  11.488   5.671  0.00  0.00    -0.177 NA
ATOM     28  C   UNL     1      -7.670  11.781   6.000  0.00  0.00    +0.109 C 
ATOM     29  C   UNL     1      -7.886  11.390   7.478  0.00  0.00    +0.018 C 
ATOM     30  C   UNL     1      -6.448  11.437   8.060  0.00  0.00    +0.018 C 
ATOM     31  C   UNL     1      -5.611  10.922   6.863  0.00  0.00    +0.109 C 
ENDBRANCH  24  27
ENDBRANCH  21  24
ENDBRANCH  17  18
ENDBRANCH   1  17
TORSDOF 7
