REMARK  Name = ZINC13064905
REMARK  17 active torsions:
REMARK  status: ('A' for Active; 'I' for Inactive)
REMARK    1  A    between atoms: C_1  and  C_2
REMARK    2  A    between atoms: C_2  and  C_3
REMARK    3  A    between atoms: C_3  and  C_5
REMARK    4  A    between atoms: C_3  and  N_72
REMARK    5  A    between atoms: N_9  and  C_10
REMARK    6  A    between atoms: C_10  and  C_11
REMARK    7  A    between atoms: C_11  and  O_13
REMARK    8  A    between atoms: O_13  and  C_14
REMARK    9  A    between atoms: C_14  and  C_15
REMARK   10  A    between atoms: C_16  and  C_17
REMARK   11  A    between atoms: C_16  and  N_72
REMARK   12  A    between atoms: C_20  and  O_23
REMARK   13  A    between atoms: O_23  and  C_24
REMARK   14  A    between atoms: C_25  and  C_26
REMARK   15  A    between atoms: C_25  and  N_72
REMARK   16  A    between atoms: C_29  and  C_39
REMARK   17  A    between atoms: C_31  and  C_38
REMARK                            x       y       z     vdW  Elec       q    Type
REMARK                         _______ _______ _______ _____ _____    ______ ____
ROOT
ATOM      1  N   UNL     1       5.006   4.771  -1.003  0.00  0.00    +0.392 N 
ATOM      2  H   UNL     1       4.223   5.299  -1.406  0.00  0.00    -0.080 HD
ENDROOT
BRANCH   1   3
ATOM      3  C   UNL     1       6.226   5.603  -1.063  0.00  0.00    +0.003 C 
BRANCH   3   4
ATOM      4  C   UNL     1       7.345   4.957  -0.287  0.00  0.00    +0.139 A 
ATOM      5  N   UNL     1       7.259   4.411   0.902  0.00  0.00    -0.115 NA
ATOM      6  N   UNL     1       8.426   3.971   1.222  0.00  0.00    -0.023 NA
ATOM      7  N   UNL     1       9.255   4.221   0.270  0.00  0.00    -0.043 NA
ATOM      8  N   UNL     1       8.625   4.824  -0.681  0.00  0.00    -0.220 N 
BRANCH   8   9
ATOM      9  C   UNL     1       9.196   5.281  -1.951  0.00  0.00    +0.267 C 
BRANCH   9  10
ATOM     10  C   UNL     1       9.778   6.660  -1.773  0.00  0.00    +0.329 C 
ATOM     11  O   UNL     1       9.721   7.205  -0.696  0.00  0.00    -0.249 OA
BRANCH  10  12
ATOM     12  O   UNL     1      10.359   7.282  -2.810  0.00  0.00    -0.464 OA
BRANCH  12  13
ATOM     13  C   UNL     1      10.898   8.608  -2.566  0.00  0.00    +0.229 C 
ATOM     14  C   UNL     1      11.515   9.153  -3.855  0.00  0.00    +0.048 C 
ENDBRANCH  12  13
ENDBRANCH  10  12
ENDBRANCH   9  10
ENDBRANCH   8   9
ENDBRANCH   3   4
BRANCH   3  16
ATOM     15  C   UNL     1       4.884   7.692  -1.338  0.00  0.00    +0.002 C 
ATOM     16  C   UNL     1       5.917   6.977  -0.466  0.00  0.00    -0.011 C 
ENDBRANCH   3  16
ENDBRANCH   1   3
BRANCH   1  17
ATOM     17  C   UNL     1       5.201   3.531  -1.782  0.00  0.00    -0.042 C 
BRANCH  17  18
ATOM     18  C   UNL     1       5.146   3.867  -3.250  0.00  0.00    -0.064 A 
ATOM     19  C   UNL     1       3.925   3.947  -3.894  0.00  0.00    +0.005 A 
ATOM     20  C   UNL     1       3.872   4.261  -5.239  0.00  0.00    +0.046 A 
ATOM     21  C   UNL     1       5.045   4.485  -5.944  0.00  0.00    +0.120 A 
ATOM     22  C   UNL     1       6.269   4.399  -5.296  0.00  0.00    +0.046 A 
ATOM     23  C   UNL     1       6.317   4.090  -3.951  0.00  0.00    +0.005 A 
BRANCH  21  24
ATOM     24  O   UNL     1       4.996   4.789  -7.268  0.00  0.00    -0.495 OA
ATOM     25  C   UNL     1       3.701   4.860  -7.869  0.00  0.00    +0.277 C 
ENDBRANCH  21  24
ENDBRANCH  17  18
ENDBRANCH   1  17
BRANCH   1  26
ATOM     26  C   UNL     1       4.689   4.441   0.403  0.00  0.00    -0.036 C 
BRANCH  26  27
ATOM     27  C   UNL     1       3.264   3.957   0.476  0.00  0.00    +0.001 A 
ATOM     28  C   UNL     1       3.000   2.627   0.450  0.00  0.00    +0.017 A 
ATOM     29  C   UNL     1       1.605   2.189   0.523  0.00  0.00    +0.002 A 
ATOM     30  C   UNL     1       1.271   0.831   0.500  0.00  0.00    -0.041 A 
ATOM     31  C   UNL     1      -0.041   0.456   0.569  0.00  0.00    +0.007 A 
ATOM     32  C   UNL     1      -1.045   1.410   0.661  0.00  0.00    -0.048 A 
ATOM     33  C   UNL     1      -0.739   2.753   0.686  0.00  0.00    +0.029 A 
ATOM     34  C   UNL     1       0.590   3.160   0.618  0.00  0.00    +0.050 A 
ATOM     35  N   UNL     1       0.925   4.497   0.639  0.00  0.00    -0.322 N 
ATOM     36  H   UNL     1       0.224   5.164   0.704  0.00  0.00    +0.169 HD
ATOM     37  C   UNL     1       2.209   4.889   0.572  0.00  0.00    +0.251 A 
ATOM     38  O   UNL     1       2.468   6.080   0.593  0.00  0.00    -0.268 OA
ATOM     39  C   UNL     1      -2.485   0.972   0.736  0.00  0.00    +0.044 C 
ATOM     40  C   UNL     1       2.353  -0.213   0.400  0.00  0.00    +0.044 C 
ENDBRANCH  26  27
ENDBRANCH   1  26
TORSDOF 12
