REMARK  Name = ZINC02319910
REMARK  7 active torsions:
REMARK  status: ('A' for Active; 'I' for Inactive)
REMARK    1  A    between atoms: C_4  and  O_25
REMARK    2  A    between atoms: C_5  and  C_7
REMARK    3  A    between atoms: N_8  and  N_9
REMARK    4  A    between atoms: C_10  and  C_12
REMARK    5  A    between atoms: C_14  and  C_22
REMARK    6  A    between atoms: O_25  and  C_26
REMARK    7  A    between atoms: C_26  and  C_27
REMARK                            x       y       z     vdW  Elec       q    Type
REMARK                         _______ _______ _______ _____ _____    ______ ____
ROOT
ATOM      1  C   UNL     1      -2.521   3.866   0.079  0.00  0.00    +0.142 C 
ATOM      2  N   UNL     1      -2.535   5.164   0.069  0.00  0.00    -0.187 NA
ENDROOT
BRANCH   1   7
ATOM      3  C   UNL     1      -0.012   1.076   0.060  0.00  0.00    +0.001 A 
ATOM      4  C   UNL     1       1.179   1.782   0.035  0.00  0.00    +0.004 A 
ATOM      5  C   UNL     1       1.173   3.163   0.024  0.00  0.00    +0.046 A 
ATOM      6  C   UNL     1      -0.029   3.853   0.038  0.00  0.00    +0.130 A 
ATOM      7  C   UNL     1      -1.237   3.143   0.064  0.00  0.00    +0.036 A 
ATOM      8  C   UNL     1      -1.217   1.746   0.070  0.00  0.00    +0.013 A 
BRANCH   6   9
ATOM      9  O   UNL     1      -0.036   5.211   0.028  0.00  0.00    -0.487 OA
BRANCH   9  10
ATOM     10  C   UNL     1       1.234   5.866   0.002  0.00  0.00    +0.264 C 
BRANCH  10  11
ATOM     11  C   UNL     1       1.028   7.359  -0.006  0.00  0.00    -0.009 A 
ATOM     12  C   UNL     1       0.954   8.053   1.188  0.00  0.00    +0.007 A 
ATOM     13  C   UNL     1       0.767   9.422   1.181  0.00  0.00    +0.001 A 
ATOM     14  C   UNL     1       0.653  10.099  -0.019  0.00  0.00    +0.015 A 
ATOM     15  C   UNL     1       0.727   9.405  -1.214  0.00  0.00    +0.018 A 
ATOM     16  C   UNL     1       0.920   8.035  -1.206  0.00  0.00    +0.022 A 
ATOM     17 BR   UNL     1       0.572  10.330  -2.856  0.00  0.00    -0.050 Br
ENDBRANCH  10  11
ENDBRANCH   9  10
ENDBRANCH   6   9
ENDBRANCH   1   7
BRANCH   2  18
ATOM     18  N   UNL     1      -3.756   5.851   0.083  0.00  0.00    -0.203 N 
ATOM     19  C   UNL     1      -3.771   7.199   0.072  0.00  0.00    +0.264 C 
ATOM     20  O   UNL     1      -2.725   7.818   0.050  0.00  0.00    -0.268 OA
ATOM     21  H   UNL     1      -4.591   5.357   0.101  0.00  0.00    +0.178 HD
BRANCH  19  22
ATOM     22  C   UNL     1      -5.059   7.924   0.087  0.00  0.00    +0.049 A 
ATOM     23  C   UNL     1      -6.267   7.244  -0.008  0.00  0.00    +0.037 A 
ATOM     24  C   UNL     1      -7.461   7.959   0.009  0.00  0.00    +0.046 A 
ATOM     25  N   UNL     1      -7.485   9.265   0.114  0.00  0.00    -0.251 NA
ATOM     26  C   UNL     1      -6.364   9.984   0.210  0.00  0.00    +0.072 A 
ATOM     27  C   UNL     1      -5.103   9.336   0.206  0.00  0.00    +0.013 A 
ATOM     28  C   UNL     1      -3.931  10.098   0.301  0.00  0.00    +0.011 A 
ATOM     29  C   UNL     1      -4.015  11.453   0.408  0.00  0.00    +0.001 A 
ATOM     30  C   UNL     1      -5.252  12.094   0.417  0.00  0.00    +0.002 A 
ATOM     31  C   UNL     1      -6.410  11.386   0.322  0.00  0.00    +0.028 A 
BRANCH  24  32
ATOM     32  C   UNL     1      -8.765   7.210  -0.096  0.00  0.00    +0.038 C 
ATOM     33  C   UNL     1      -8.710   5.764  -0.593  0.00  0.00    +0.010 C 
ATOM     34  C   UNL     1      -9.270   6.864  -1.498  0.00  0.00    +0.010 C 
ENDBRANCH  24  32
ENDBRANCH  19  22
ENDBRANCH   2  18
TORSDOF 7
