REMARK  Name = ZINC21230815
REMARK  9 active torsions:
REMARK  status: ('A' for Active; 'I' for Inactive)
REMARK    1  A    between atoms: C_1  and  C_2
REMARK    2  A    between atoms: C_2  and  C_3
REMARK    3  A    between atoms: C_6  and  C_9
REMARK    4  A    between atoms: C_14  and  C_24
REMARK    5  A    between atoms: C_26  and  O_33
REMARK    6  A    between atoms: C_27  and  O_32
REMARK    7  A    between atoms: C_28  and  O_30
REMARK    8  A    between atoms: O_30  and  C_31
REMARK    9  A    between atoms: O_33  and  C_34
REMARK                            x       y       z     vdW  Elec       q    Type
REMARK                         _______ _______ _______ _____ _____    ______ ____
ROOT
ATOM      1  C   UNL     1       2.037   1.597  -3.608  0.00  0.00    +0.032 C 
ATOM      2  C   UNL     1       1.485   0.313  -2.992  0.00  0.00    +0.059 C 
ATOM      3  C   UNL     1       0.783   0.629  -1.681  0.00  0.00    +0.017 C 
ATOM      4  C   UNL     1       1.228   1.625  -0.897  0.00  0.00    +0.036 C 
ATOM      5  C   UNL     1       0.652   2.023   0.442  0.00  0.00    +0.136 C 
ATOM      6  N   UNL     1      -0.626   1.416   0.748  0.00  0.00    -0.331 N 
ATOM      7  C   UNL     1      -0.747   0.038   0.917  0.00  0.00    +0.049 A 
ATOM      8  C   UNL     1      -1.095  -0.514   2.139  0.00  0.00    +0.025 A 
ATOM      9  C   UNL     1      -1.159  -1.890   2.271  0.00  0.00    +0.002 A 
ATOM     10  C   UNL     1      -0.874  -2.710   1.194  0.00  0.00    +0.002 A 
ATOM     11  C   UNL     1      -0.542  -2.162  -0.033  0.00  0.00    +0.025 A 
ATOM     12  C   UNL     1      -0.498  -0.785  -0.171  0.00  0.00    +0.052 A 
ATOM     13  N   UNL     1      -0.276  -0.170  -1.398  0.00  0.00    -0.316 N 
ATOM     14  C   UNL     1       2.330   2.413  -1.302  0.00  0.00    +0.163 C 
ATOM     15  O   UNL     1       2.723   3.295  -0.563  0.00  0.00    -0.292 OA
ATOM     16  C   UNL     1       3.032   2.203  -2.611  0.00  0.00    +0.088 C 
ATOM     17  H   UNL     1      -1.523   2.045   0.851  0.00  0.00    +0.147 HD
ATOM     18  H   UNL     1      -1.036  -0.370  -2.168  0.00  0.00    +0.152 HD
ENDROOT
BRANCH   1  22
ATOM     19  C   UNL     1       4.031   0.707  -7.279  0.00  0.00    -0.048 A 
ATOM     20  C   UNL     1       2.970   1.593  -7.266  0.00  0.00    +0.004 A 
ATOM     21  C   UNL     1       2.325   1.881  -6.078  0.00  0.00    +0.004 A 
ATOM     22  C   UNL     1       2.740   1.283  -4.903  0.00  0.00    -0.043 A 
ATOM     23  C   UNL     1       3.804   0.400  -4.916  0.00  0.00    +0.004 A 
ATOM     24  C   UNL     1       4.446   0.108  -6.105  0.00  0.00    +0.004 A 
BRANCH  19  26
ATOM     25  C   UNL     1       5.887   1.377  -8.781  0.00  0.00    +0.009 C 
ATOM     26  C   UNL     1       4.734   0.392  -8.575  0.00  0.00    +0.032 C 
ENDBRANCH  19  26
ENDBRANCH   1  22
BRANCH   5  27
ATOM     27  C   UNL     1       1.634   1.639   1.518  0.00  0.00    -0.016 A 
ATOM     28  C   UNL     1       2.217   2.617   2.301  0.00  0.00    +0.055 A 
ATOM     29  C   UNL     1       3.117   2.267   3.296  0.00  0.00    +0.165 A 
ATOM     30  C   UNL     1       3.441   0.931   3.499  0.00  0.00    +0.201 A 
ATOM     31  C   UNL     1       2.857  -0.050   2.706  0.00  0.00    +0.165 A 
ATOM     32  C   UNL     1       1.954   0.308   1.716  0.00  0.00    +0.055 A 
BRANCH  31  33
ATOM     33  O   UNL     1       3.170  -1.359   2.900  0.00  0.00    -0.491 OA
ATOM     34  C   UNL     1       2.532  -2.312   2.049  0.00  0.00    +0.277 C 
ENDBRANCH  31  33
BRANCH  30  35
ATOM     35  O   UNL     1       4.328   0.584   4.471  0.00  0.00    -0.501 OA
ATOM     36  H   UNL     1       4.583  -0.474   4.630  0.00  0.00    +0.292 HD
ENDBRANCH  30  35
BRANCH  29  37
ATOM     37  O   UNL     1       3.686   3.231   4.070  0.00  0.00    -0.491 OA
ATOM     38  C   UNL     1       3.225   4.570   3.881  0.00  0.00    +0.277 C 
ENDBRANCH  29  37
ENDBRANCH   5  27
TORSDOF 6
