REMARK  Name = ZINC65493029
REMARK  6 active torsions:
REMARK  status: ('A' for Active; 'I' for Inactive)
REMARK    1  A    between atoms: C_1  and  C_2
REMARK    2  A    between atoms: C_7  and  N_8
REMARK    3  A    between atoms: C_10  and  C_14
REMARK    4  A    between atoms: N_17  and  C_20
REMARK    5  A    between atoms: C_20  and  C_21
REMARK    6  A    between atoms: C_21  and  N_22
REMARK                            x       y       z     vdW  Elec       q    Type
REMARK                         _______ _______ _______ _____ _____    ______ ____
ROOT
ATOM      1  C   UNL     1      -1.160   0.821   5.796  0.00  0.00    -0.071 C 
ATOM      2  C   UNL     1      -1.169   0.269   6.972  0.00  0.00    -0.046 C 
ATOM      3  C   UNL     1      -2.090   0.703   8.075  0.00  0.00    -0.051 C 
ATOM      4  N   UNL     1      -2.622   2.043   7.802  0.00  0.00    +0.383 N 
ATOM      5  C   UNL     1      -3.206   2.059   6.451  0.00  0.00    -0.074 C 
ATOM      6  C   UNL     1      -2.067   1.963   5.430  0.00  0.00    +0.012 C 
ATOM      7  H   UNL     1      -1.875   2.720   7.855  0.00  0.00    -0.081 HD
ENDROOT
BRANCH   1  10
ATOM      8  N   UNL     1       0.025  -0.016   2.415  0.00  0.00    -0.266 N 
ATOM      9  C   UNL     1      -0.949  -0.220   3.504  0.00  0.00    +0.133 C 
ATOM     10  C   UNL     1      -0.198   0.300   4.759  0.00  0.00    +0.049 C 
ATOM     11  C   UNL     1       0.626   1.452   4.124  0.00  0.00    +0.111 C 
ATOM     12  N   UNL     1       0.933   0.941   2.770  0.00  0.00    -0.239 NA
ATOM     13  H   UNL     1       0.949   1.692   2.097  0.00  0.00    +0.144 HD
BRANCH   8  20
ATOM     14  C   UNL     1      -0.018   1.503   0.010  0.00  0.00    +0.046 C 
ATOM     15  C   UNL     1       0.002  -0.004   0.002  0.00  0.00    -0.028 A 
ATOM     16  C   UNL     1       0.006  -0.689  -1.198  0.00  0.00    +0.005 A 
ATOM     17  C   UNL     1       0.024  -2.071  -1.206  0.00  0.00    +0.000 A 
ATOM     18  C   UNL     1       0.039  -2.773  -0.014  0.00  0.00    +0.002 A 
ATOM     19  C   UNL     1       0.036  -2.095   1.188  0.00  0.00    +0.025 A 
ATOM     20  C   UNL     1       0.023  -0.706   1.200  0.00  0.00    +0.047 A 
ENDBRANCH   8  20
ENDBRANCH   1  10
BRANCH   4  21
ATOM     21  C   UNL     1      -3.658   2.372   8.790  0.00  0.00    -0.056 C 
BRANCH  21  22
ATOM     22  C   UNL     1      -3.026   2.465  10.180  0.00  0.00    +0.108 C 
BRANCH  22  23
ATOM     23  N   UNL     1      -4.059   2.793  11.165  0.00  0.00    -0.301 N 
ATOM     24  C   UNL     1      -4.445   4.069  11.548  0.00  0.00    +0.108 A 
ATOM     25  C   UNL     1      -5.406   3.951  12.457  0.00  0.00    +0.105 A 
ATOM     26  N   UNL     1      -5.638   2.598  12.659  0.00  0.00    -0.313 N 
ATOM     27  C   UNL     1      -4.806   1.908  11.854  0.00  0.00    +0.327 A 
ATOM     28  O   UNL     1      -4.739   0.695  11.767  0.00  0.00    -0.247 OA
ATOM     29  H   UNL     1      -6.287   2.216  13.270  0.00  0.00    +0.170 HD
ENDBRANCH  22  23
ENDBRANCH  21  22
ENDBRANCH   4  21
TORSDOF 5
