REMARK  Name = ZINC44766345
REMARK  5 active torsions:
REMARK  status: ('A' for Active; 'I' for Inactive)
REMARK    1  A    between atoms: C_1  and  C_2
REMARK    2  A    between atoms: C_7  and  N_10
REMARK    3  A    between atoms: N_10  and  C_11
REMARK    4  A    between atoms: C_12  and  C_14
REMARK    5  A    between atoms: C_14  and  C_21
REMARK                            x       y       z     vdW  Elec       q    Type
REMARK                         _______ _______ _______ _____ _____    ______ ____
ROOT
ATOM      1  N   UNL     1      -0.717  -2.578   1.340  0.00  0.00    -0.300 N 
ATOM      2  C   UNL     1      -1.840  -2.236   0.464  0.00  0.00    +0.132 C 
ATOM      3  C   UNL     1      -0.883  -3.480   2.328  0.00  0.00    +0.236 C 
ATOM      4  O   UNL     1       0.020  -3.698   3.108  0.00  0.00    -0.274 OA
ENDROOT
BRANCH   1  10
ATOM      5  C   UNL     1       0.118  -0.952  -2.549  0.00  0.00    +0.007 C 
ATOM      6  C   UNL     1       0.176  -1.861  -1.320  0.00  0.00    -0.012 C 
ATOM      7  C   UNL     1       1.245  -2.935  -1.531  0.00  0.00    +0.003 C 
ATOM      8  C   UNL     1       1.304  -3.845  -0.302  0.00  0.00    +0.002 C 
ATOM      9  C   UNL     1       1.655  -3.012   0.933  0.00  0.00    +0.022 C 
ATOM     10  C   UNL     1       0.586  -1.938   1.144  0.00  0.00    +0.076 C 
ATOM     11  C   UNL     1       0.527  -1.028  -0.085  0.00  0.00    +0.025 C 
ENDBRANCH   1  10
BRANCH   3  12
ATOM     12  C   UNL     1      -2.190  -4.217   2.463  0.00  0.00    +0.133 C 
ATOM     13  C   UNL     1      -2.473  -4.981   1.198  0.00  0.00    +0.031 C 
ATOM     14  C   UNL     1      -3.978  -5.053   0.876  0.00  0.00    +0.002 C 
ATOM     15  C   UNL     1      -4.843  -5.318   2.122  0.00  0.00    +0.000 C 
ATOM     16  C   UNL     1      -4.239  -6.351   3.034  0.00  0.00    +0.000 C 
ATOM     17  C   UNL     1      -3.412  -5.626   4.116  0.00  0.00    +0.002 C 
ATOM     18  C   UNL     1      -2.101  -5.220   3.632  0.00  0.00    +0.031 C 
BRANCH  12  19
ATOM     19  C   UNL     1      -3.276  -3.256   2.718  0.00  0.00    +0.079 C 
ATOM     20  N   UNL     1      -4.114  -2.515   2.914  0.00  0.00    -0.195 NA
ENDBRANCH  12  19
ENDBRANCH   3  12
TORSDOF 3
