REMARK  Name = ZINC08828926
REMARK  5 active torsions:
REMARK  status: ('A' for Active; 'I' for Inactive)
REMARK    1  A    between atoms: C_1  and  C_2
REMARK    2  A    between atoms: C_2  and  N_3
REMARK    3  A    between atoms: C_14  and  C_22
REMARK    4  A    between atoms: C_16  and  C_20
REMARK    5  A    between atoms: C_17  and  N_19
REMARK                            x       y       z     vdW  Elec       q    Type
REMARK                         _______ _______ _______ _____ _____    ______ ____
ROOT
ATOM      1  N   UNL     1      -1.372  -0.511   0.012  0.00  0.00    -0.324 N 
ATOM      2  C   UNL     1      -1.606  -1.869   0.007  0.00  0.00    +0.161 A 
ATOM      3  N   UNL     1      -0.722  -2.845  -0.001  0.00  0.00    -0.207 NA
ATOM      4  C   UNL     1      -1.081  -4.127  -0.004  0.00  0.00    +0.154 A 
ATOM      5  C   UNL     1      -2.465  -4.329   0.001  0.00  0.00    +0.100 A 
ATOM      6  S   UNL     1      -3.088  -2.668   0.017  0.00  0.00    -0.047 S 
ATOM      7  C   UNL     1      -3.033  -5.598  -0.002  0.00  0.00    +0.157 A 
ATOM      8  C   UNL     1      -2.190  -6.698  -0.012  0.00  0.00    +0.073 A 
ATOM      9  C   UNL     1      -0.808  -6.493  -0.017  0.00  0.00    +0.258 A 
ATOM     10  N   UNL     1      -0.278  -5.261  -0.013  0.00  0.00    -0.306 N 
ATOM     11  O   UNL     1      -0.063  -7.461  -0.025  0.00  0.00    -0.267 OA
ATOM     12  C   UNL     1      -2.747  -8.094  -0.018  0.00  0.00    +0.110 C 
ATOM     13  C   UNL     1      -4.194  -8.078   0.392  0.00  0.00    +0.099 C 
ATOM     14  C   UNL     1      -4.913  -6.930   0.379  0.00  0.00    +0.199 C 
ATOM     15  O   UNL     1      -4.375  -5.758   0.003  0.00  0.00    -0.440 OA
ATOM     16  H   UNL     1      -2.118   0.109   0.023  0.00  0.00    +0.148 HD
ATOM     17  H   UNL     1       0.687  -5.160  -0.016  0.00  0.00    +0.170 HD
ENDROOT
BRANCH  12  18
ATOM     18  C   UNL     1      -2.631  -8.672  -1.405  0.00  0.00    +0.003 A 
ATOM     19  C   UNL     1      -1.966  -9.780  -1.815  0.00  0.00    +0.012 A 
ATOM     20  C   UNL     1      -1.998 -10.124  -3.153  0.00  0.00    +0.008 A 
ATOM     21  C   UNL     1      -2.694  -9.344  -4.016  0.00  0.00    +0.045 A 
ATOM     22  S   UNL     1      -3.339  -8.080  -2.933  0.00  0.00    -0.101 S 
ENDBRANCH  12  18
BRANCH  14  23
ATOM     23  N   UNL     1      -6.230  -6.966   0.762  0.00  0.00    -0.328 N 
ATOM     24  H   UNL     1      -6.633  -7.805   1.036  0.00  0.00    +0.145 HD
ATOM     25  H   UNL     1      -6.759  -6.153   0.759  0.00  0.00    +0.145 HD
ENDBRANCH  14  23
BRANCH   1  27
ATOM     26  C   UNL     1      -0.019   1.526   0.010  0.00  0.00    +0.024 C 
ATOM     27  C   UNL     1       0.002  -0.004   0.002  0.00  0.00    +0.100 C 
ENDBRANCH   1  27
BRANCH  13  28
ATOM     28  C   UNL     1      -4.822  -9.297   0.801  0.00  0.00    +0.101 C 
ATOM     29  N   UNL     1      -5.321 -10.264   1.126  0.00  0.00    -0.191 NA
ENDBRANCH  13  28
TORSDOF 4
