REMARK  Name = ZINC45257531
REMARK  11 active torsions:
REMARK  status: ('A' for Active; 'I' for Inactive)
REMARK    1  A    between atoms: C_1  and  C_2
REMARK    2  A    between atoms: C_2  and  C_4
REMARK    3  A    between atoms: C_2  and  O_14
REMARK    4  A    between atoms: N_6  and  C_7
REMARK    5  A    between atoms: C_7  and  C_8
REMARK    6  A    between atoms: C_7  and  C_9
REMARK    7  A    between atoms: C_7  and  C_11
REMARK    8  A    between atoms: C_11  and  C_12
REMARK    9  A    between atoms: C_11  and  C_13
REMARK   10  A    between atoms: O_14  and  C_15
REMARK   11  A    between atoms: C_15  and  C_17
REMARK                            x       y       z     vdW  Elec       q    Type
REMARK                         _______ _______ _______ _____ _____    ______ ____
ROOT
ATOM      1  C   UNL     1       2.023  -0.663   1.045  0.00  0.00    +0.340 C 
ATOM      2  O   UNL     1       2.580  -0.429  -0.009  0.00  0.00    -0.245 OA
ENDROOT
BRANCH   1   3
ATOM      3  C   UNL     1       2.802  -1.150   2.200  0.00  0.00    +0.060 A 
ATOM      4  C   UNL     1       2.157  -1.425   3.414  0.00  0.00    +0.017 A 
ATOM      5  C   UNL     1       2.864  -1.875   4.489  0.00  0.00    +0.027 A 
ATOM      6  C   UNL     1       4.240  -2.068   4.395  0.00  0.00    +0.047 A 
ATOM      7  C   UNL     1       4.902  -1.795   3.179  0.00  0.00    +0.004 A 
ATOM      8  C   UNL     1       4.175  -1.341   2.081  0.00  0.00    +0.025 A 
ATOM      9  C   UNL     1       6.311  -2.096   3.416  0.00  0.00    -0.019 A 
ATOM     10  C   UNL     1       6.423  -2.513   4.691  0.00  0.00    +0.020 A 
ATOM     11  N   UNL     1       5.193  -2.501   5.287  0.00  0.00    -0.358 N 
ATOM     12  H   UNL     1       5.018  -2.759   6.205  0.00  0.00    +0.166 HD
ATOM     13  C   UNL     1       7.732  -2.923   5.326  0.00  0.00    +0.053 C 
ATOM     14  C   UNL     1       8.751  -3.187   4.212  0.00  0.00    +0.006 C 
ATOM     15  C   UNL     1       8.770  -2.001   3.244  0.00  0.00    +0.005 C 
ATOM     16  C   UNL     1       7.459  -1.977   2.447  0.00  0.00    +0.037 C 
ENDBRANCH   1   3
BRANCH   1  17
ATOM     17  O   UNL     1       0.693  -0.477   1.160  0.00  0.00    -0.449 OA
BRANCH  17  19
ATOM     18  C   UNL     1      -0.019   1.526   0.010  0.00  0.00    +0.062 C 
ATOM     19  C   UNL     1       0.002  -0.004   0.002  0.00  0.00    +0.259 C 
BRANCH  19  20
ATOM     20  C   UNL     1      -1.412  -0.526   0.013  0.00  0.00    +0.255 C 
ATOM     21  O   UNL     1      -1.818  -1.157   0.965  0.00  0.00    -0.272 OA
ATOM     22  N   UNL     1      -2.225  -0.290  -1.036  0.00  0.00    -0.294 N 
ATOM     23  H   UNL     1      -1.900   0.215  -1.798  0.00  0.00    +0.150 HD
BRANCH  22  24
ATOM     24  C   UNL     1      -3.599  -0.798  -1.026  0.00  0.00    +0.121 C 
ATOM     25  C   UNL     1      -3.579  -2.323  -0.908  0.00  0.00    +0.048 C 
BRANCH  24  26
ATOM     26  C   UNL     1      -4.301  -0.395  -2.324  0.00  0.00    +0.020 C 
ATOM     27  C   UNL     1      -3.623  -1.089  -3.507  0.00  0.00    +0.010 C 
ATOM     28  C   UNL     1      -5.771  -0.816  -2.261  0.00  0.00    +0.010 C 
ENDBRANCH  24  26
BRANCH  24  29
ATOM     29  C   UNL     1      -4.324  -0.227   0.121  0.00  0.00    +0.088 C 
ATOM     30  N   UNL     1      -4.884   0.214   1.006  0.00  0.00    -0.194 NA
ENDBRANCH  24  29
ENDBRANCH  22  24
ENDBRANCH  19  20
ENDBRANCH  17  19
ENDBRANCH   1  17
TORSDOF 7
