REMARK  Name = ZINC48771269
REMARK  3 active torsions:
REMARK  status: ('A' for Active; 'I' for Inactive)
REMARK    1  A    between atoms: C_1  and  C_2
REMARK    2  A    between atoms: C_5  and  C_7
REMARK    3  A    between atoms: C_10  and  C_12
REMARK                            x       y       z     vdW  Elec       q    Type
REMARK                         _______ _______ _______ _____ _____    ______ ____
ROOT
ATOM      1  C   UNL     1       1.185   2.654   4.847  0.00  0.00    +0.177 A 
ATOM      2  N   UNL     1       2.173   3.178   5.633  0.00  0.00    -0.304 N 
ATOM      3  H   UNL     1       3.091   2.881   5.530  0.00  0.00    +0.170 HD
ATOM      4  C   UNL     1       1.861   4.112   6.554  0.00  0.00    +0.255 A 
ATOM      5  O   UNL     1       2.728   4.591   7.266  0.00  0.00    -0.268 OA
ATOM      6  C   UNL     1       0.517   4.529   6.684  0.00  0.00    +0.038 A 
ATOM      7  C   UNL     1      -0.423   3.981   5.870  0.00  0.00    +0.052 A 
ATOM      8  N   UNL     1      -0.064   3.058   4.971  0.00  0.00    -0.231 NA
ATOM      9  C   UNL     1      -1.874   4.379   5.923  0.00  0.00    +0.056 C 
ATOM     10  C   UNL     1      -2.191   5.085   7.240  0.00  0.00    +0.006 C 
ATOM     11  C   UNL     1      -1.163   6.203   7.449  0.00  0.00    +0.005 C 
ATOM     12  C   UNL     1       0.195   5.562   7.729  0.00  0.00    +0.042 C 
ENDROOT
BRANCH   1  16
ATOM     13  C   UNL     1       1.314   0.159   2.237  0.00  0.00    +0.109 A 
ATOM     14  C   UNL     1       2.621   0.181   2.578  0.00  0.00    +0.046 A 
ATOM     15  C   UNL     1       2.763   1.122   3.610  0.00  0.00    +0.053 A 
ATOM     16  C   UNL     1       1.520   1.634   3.849  0.00  0.00    +0.170 A 
ATOM     17  O   UNL     1       0.654   1.041   3.001  0.00  0.00    -0.456 OA
BRANCH  13  21
ATOM     18  C   UNL     1      -0.019   1.526   0.010  0.00  0.00    +0.008 C 
ATOM     19  C   UNL     1       0.002  -0.004   0.002  0.00  0.00    -0.003 C 
ATOM     20  C   UNL     1      -0.828  -0.728   1.065  0.00  0.00    +0.015 C 
ATOM     21  C   UNL     1       0.700  -0.708   1.168  0.00  0.00    +0.058 C 
ENDBRANCH  13  21
ENDBRANCH   1  16
TORSDOF 2
