REMARK  Name = ZINC06995512
REMARK  5 active torsions:
REMARK  status: ('A' for Active; 'I' for Inactive)
REMARK    1  A    between atoms: C_9  and  S_11
REMARK    2  A    between atoms: S_11  and  C_12
REMARK    3  A    between atoms: C_12  and  C_13
REMARK    4  A    between atoms: N_15  and  N_16
REMARK    5  A    between atoms: N_16  and  C_17
REMARK                            x       y       z     vdW  Elec       q    Type
REMARK                         _______ _______ _______ _____ _____    ______ ____
ROOT
ATOM      1  C   UNL     1       7.878  -1.850  -0.642  0.00  0.00    +0.239 C 
ATOM      2  O   UNL     1       8.057  -3.047  -0.565  0.00  0.00    -0.273 OA
ATOM      3  N   UNL     1       8.916  -1.003  -0.497  0.00  0.00    -0.236 N 
ATOM      4  H   UNL     1       8.774  -0.046  -0.558  0.00  0.00    +0.173 HD
ENDROOT
BRANCH   3   5
ATOM      5  N   UNL     1      10.202  -1.505  -0.257  0.00  0.00    -0.271 N 
ATOM      6  H   UNL     1      10.345  -2.463  -0.196  0.00  0.00    +0.169 HD
BRANCH   5   7
ATOM      7  C   UNL     1      11.241  -0.658  -0.112  0.00  0.00    +0.100 C 
ATOM      8  C   UNL     1      12.531  -1.153  -0.023  0.00  0.00    +0.044 C 
ATOM      9  C   UNL     1      12.896  -2.430  -0.659  0.00  0.00    -0.006 A 
ATOM     10  C   UNL     1      11.957  -3.179  -1.368  0.00  0.00    +0.009 A 
ATOM     11  C   UNL     1      12.336  -4.368  -1.949  0.00  0.00    +0.001 A 
ATOM     12  C   UNL     1      13.642  -4.827  -1.835  0.00  0.00    +0.001 A 
ATOM     13  C   UNL     1      14.578  -4.112  -1.145  0.00  0.00    +0.008 A 
ATOM     14  C   UNL     1      14.223  -2.897  -0.543  0.00  0.00    -0.017 A 
ATOM     15  C   UNL     1      15.207  -2.115   0.197  0.00  0.00    +0.012 C 
ATOM     16  C   UNL     1      14.879  -0.944   0.782  0.00  0.00    +0.052 C 
ATOM     17  C   UNL     1      13.572  -0.416   0.702  0.00  0.00    +0.188 C 
ATOM     18  O   UNL     1      13.308   0.649   1.238  0.00  0.00    -0.287 OA
ENDBRANCH   5   7
ENDBRANCH   3   5
BRANCH   1  19
ATOM     19  C   UNL     1       6.495  -1.310  -0.899  0.00  0.00    +0.173 C 
BRANCH  19  20
ATOM     20  S   UNL     1       5.325  -2.688  -1.046  0.00  0.00    -0.097 S 
BRANCH  20  29
ATOM     21  C   UNL     1       0.155   1.347  -2.087  0.00  0.00    +0.001 A 
ATOM     22  C   UNL     1       1.328   2.078  -1.914  0.00  0.00    +0.002 A 
ATOM     23  C   UNL     1       2.517   1.454  -1.687  0.00  0.00    +0.028 A 
ATOM     24  C   UNL     1       2.568   0.051  -1.624  0.00  0.00    +0.072 A 
ATOM     25  C   UNL     1       1.374  -0.690  -1.800  0.00  0.00    +0.000 A 
ATOM     26  C   UNL     1       0.166  -0.014  -2.033  0.00  0.00    +0.010 A 
ATOM     27  C   UNL     1       1.424  -2.098  -1.737  0.00  0.00    +0.012 A 
ATOM     28  C   UNL     1       2.628  -2.692  -1.508  0.00  0.00    +0.035 A 
ATOM     29  C   UNL     1       3.776  -1.902  -1.342  0.00  0.00    +0.098 A 
ATOM     30  N   UNL     1       3.722  -0.587  -1.401  0.00  0.00    -0.240 NA
ENDBRANCH  20  29
ENDBRANCH  19  20
ENDBRANCH   1  19
TORSDOF 5
