REMARK  Name = ZINC39684110
REMARK  9 active torsions:
REMARK  status: ('A' for Active; 'I' for Inactive)
REMARK    1  A    between atoms: C_1  and  C_2
REMARK    2  A    between atoms: C_2  and  C_3
REMARK    3  A    between atoms: C_3  and  C_5
REMARK    4  A    between atoms: C_3  and  C_6
REMARK    5  A    between atoms: C_10  and  C_19
REMARK    6  A    between atoms: N_21  and  C_22
REMARK    7  A    between atoms: C_22  and  C_23
REMARK    8  A    between atoms: C_23  and  C_24
REMARK    9  A    between atoms: C_29  and  C_33
REMARK                            x       y       z     vdW  Elec       q    Type
REMARK                         _______ _______ _______ _____ _____    ______ ____
ROOT
ATOM      1  C   UNL     1       0.814  -2.158  -1.185  0.00  0.00    +0.218 C 
ATOM      2  O   UNL     1       0.434  -2.793  -0.224  0.00  0.00    -0.275 OA
ATOM      3  N   UNL     1       1.452  -2.782  -2.195  0.00  0.00    -0.300 N 
ATOM      4  C   UNL     1       1.991  -2.181  -3.438  0.00  0.00    +0.121 C 
ATOM      5  C   UNL     1       3.329  -2.915  -3.678  0.00  0.00    +0.100 C 
ATOM      6  C   UNL     1       3.179  -4.256  -2.940  0.00  0.00    -0.004 C 
ATOM      7  C   UNL     1       1.779  -4.224  -2.311  0.00  0.00    +0.115 C 
ATOM      8  C   UNL     1       4.238  -4.379  -1.848  0.00  0.00    -0.010 C 
ATOM      9  C   UNL     1       4.105  -5.744  -1.166  0.00  0.00    -0.082 C 
ATOM     10  N   UNL     1       4.274  -6.809  -2.162  0.00  0.00    +0.379 N 
ATOM     11  C   UNL     1       3.197  -6.739  -3.157  0.00  0.00    -0.082 C 
ATOM     12  C   UNL     1       3.291  -5.417  -3.923  0.00  0.00    -0.010 C 
ATOM     13  H   UNL     1       5.164  -6.698  -2.624  0.00  0.00    -0.086 HD
ATOM     14  H   UNL     1       4.247  -7.706  -1.701  0.00  0.00    -0.086 HD
ENDROOT
BRANCH   5  15
ATOM     15  C   UNL     1       3.544  -3.147  -5.152  0.00  0.00    +0.218 C 
ATOM     16  O   UNL     1       2.591  -3.304  -5.886  0.00  0.00    -0.275 OA
ATOM     17  N   UNL     1       4.794  -3.179  -5.654  0.00  0.00    -0.315 N 
ATOM     18  H   UNL     1       5.556  -3.053  -5.067  0.00  0.00    +0.149 HD
BRANCH  17  19
ATOM     19  C   UNL     1       5.003  -3.404  -7.086  0.00  0.00    +0.109 C 
BRANCH  19  20
ATOM     20  C   UNL     1       6.502  -3.394  -7.391  0.00  0.00    +0.056 C 
BRANCH  20  21
ATOM     21  C   UNL     1       6.717  -3.625  -8.865  0.00  0.00    -0.021 A 
ATOM     22  C   UNL     1       6.694  -2.608  -9.919  0.00  0.00    +0.003 A 
ATOM     23  C   UNL     1       6.489  -1.227  -9.930  0.00  0.00    +0.010 A 
ATOM     24  C   UNL     1       6.533  -0.545 -11.114  0.00  0.00    +0.001 A 
ATOM     25  C   UNL     1       6.778  -1.214 -12.305  0.00  0.00    +0.005 A 
ATOM     26  C   UNL     1       6.982  -2.577 -12.316  0.00  0.00    -0.027 A 
ATOM     27  C   UNL     1       6.943  -3.291 -11.123  0.00  0.00    +0.050 A 
ATOM     28  N   UNL     1       7.104  -4.622 -10.810  0.00  0.00    -0.360 N 
ATOM     29  C   UNL     1       6.971  -4.801  -9.460  0.00  0.00    +0.087 A 
ATOM     30  C   UNL     1       7.247  -3.291 -13.617  0.00  0.00    +0.046 C 
ATOM     31  H   UNL     1       7.287  -5.327 -11.450  0.00  0.00    +0.165 HD
ENDBRANCH  20  21
ENDBRANCH  19  20
ENDBRANCH  17  19
ENDBRANCH   5  15
BRANCH   1  32
ATOM     32  C   UNL     1       0.572  -0.672  -1.251  0.00  0.00    +0.072 C 
ATOM     33  C   UNL     1      -0.277  -0.347  -2.481  0.00  0.00    +0.017 C 
BRANCH  32  35
ATOM     34  C   UNL     1      -0.300   1.304   0.004  0.00  0.00    +0.004 C 
ATOM     35  C   UNL     1      -0.165  -0.220   0.011  0.00  0.00    +0.009 C 
ENDBRANCH  32  35
ENDBRANCH   1  32
TORSDOF 6
