REMARK  Name = ZINC48024911
REMARK  7 active torsions:
REMARK  status: ('A' for Active; 'I' for Inactive)
REMARK    1  A    between atoms: C_1  and  C_2
REMARK    2  A    between atoms: C_2  and  C_4
REMARK    3  A    between atoms: C_2  and  N_11
REMARK    4  A    between atoms: C_12  and  C_14
REMARK    5  A    between atoms: C_14  and  N_15
REMARK    6  A    between atoms: C_18  and  C_21
REMARK    7  A    between atoms: C_21  and  C_22
REMARK                            x       y       z     vdW  Elec       q    Type
REMARK                         _______ _______ _______ _____ _____    ______ ____
ROOT
ATOM      1  C   UNL     1       2.783  -1.099   2.395  0.00  0.00    +0.019 C 
ENDROOT
BRANCH   1   2
ATOM      2  N   UNL     1       4.226  -1.127   2.125  0.00  0.00    +0.385 N 
ATOM      3  C   UNL     1       4.506  -2.106   1.068  0.00  0.00    -0.078 C 
ATOM      4  C   UNL     1       5.998  -2.082   0.727  0.00  0.00    -0.015 C 
ATOM      5  C   UNL     1       6.808  -2.434   1.978  0.00  0.00    -0.006 C 
ATOM      6  C   UNL     1       6.452  -1.451   3.098  0.00  0.00    -0.015 C 
ATOM      7  C   UNL     1       4.944  -1.499   3.351  0.00  0.00    -0.078 C 
ATOM      8  H   UNL     1       4.529  -0.213   1.823  0.00  0.00    -0.081 HD
BRANCH   5   9
ATOM      9  C   UNL     1       8.302  -2.334   1.666  0.00  0.00    +0.099 C 
BRANCH   9  10
ATOM     10  C   UNL     1       9.098  -2.798   2.859  0.00  0.00    +0.211 C 
ATOM     11  O   UNL     1       8.525  -3.172   3.861  0.00  0.00    -0.276 OA
ATOM     12  N   UNL     1      10.444  -2.797   2.812  0.00  0.00    -0.329 N 
ATOM     13  H   UNL     1      10.902  -2.499   2.011  0.00  0.00    +0.145 HD
ATOM     14  H   UNL     1      10.956  -3.096   3.580  0.00  0.00    +0.145 HD
ENDBRANCH   9  10
ENDBRANCH   5   9
ENDBRANCH   1   2
BRANCH   1  16
ATOM     15  N   UNL     1       0.711  -0.489   1.189  0.00  0.00    -0.310 N 
ATOM     16  C   UNL     1       2.054  -0.600   1.174  0.00  0.00    +0.197 C 
ATOM     17  O   UNL     1       2.676  -0.297   0.177  0.00  0.00    -0.278 OA
ATOM     18  H   UNL     1       0.213  -0.731   1.986  0.00  0.00    +0.149 HD
BRANCH  15  20
ATOM     19  C   UNL     1      -0.019   1.526   0.010  0.00  0.00    +0.033 C 
ATOM     20  C   UNL     1       0.002  -0.004   0.002  0.00  0.00    +0.100 C 
BRANCH  20  21
ATOM     21  C   UNL     1      -1.412  -0.526   0.013  0.00  0.00    -0.027 A 
ATOM     22  C   UNL     1      -2.123  -0.571   1.198  0.00  0.00    +0.006 A 
ATOM     23  C   UNL     1      -3.420  -1.049   1.208  0.00  0.00    +0.015 A 
ATOM     24  C   UNL     1      -4.006  -1.482   0.032  0.00  0.00    +0.018 A 
ATOM     25  C   UNL     1      -3.294  -1.437  -1.153  0.00  0.00    +0.015 A 
ATOM     26  C   UNL     1      -1.999  -0.954  -1.163  0.00  0.00    +0.006 A 
ATOM     27 BR   UNL     1      -5.780  -2.136   0.046  0.00  0.00    -0.050 Br
ENDBRANCH  20  21
ENDBRANCH  15  20
ENDBRANCH   1  16
TORSDOF 6
