REMARK  Name = ZINC45835247
REMARK  7 active torsions:
REMARK  status: ('A' for Active; 'I' for Inactive)
REMARK    1  A    between atoms: C_1  and  C_2
REMARK    2  A    between atoms: C_2  and  C_4
REMARK    3  A    between atoms: C_2  and  N_14
REMARK    4  A    between atoms: C_7  and  N_10
REMARK    5  A    between atoms: C_15  and  C_17
REMARK    6  A    between atoms: C_17  and  C_18
REMARK    7  A    between atoms: C_18  and  N_19
REMARK                            x       y       z     vdW  Elec       q    Type
REMARK                         _______ _______ _______ _____ _____    ______ ____
ROOT
ATOM      1  N   UNL     1       0.826  -0.288   1.176  0.00  0.00    -0.309 N 
ATOM      2  C   UNL     1       0.241  -0.420   2.383  0.00  0.00    +0.215 C 
ATOM      3  O   UNL     1      -0.959  -0.283   2.494  0.00  0.00    -0.276 OA
ATOM      4  H   UNL     1       1.785  -0.398   1.088  0.00  0.00    +0.149 HD
ENDROOT
BRANCH   1   6
ATOM      5  C   UNL     1      -0.191   1.534  -0.099  0.00  0.00    +0.033 C 
ATOM      6  C   UNL     1       0.012   0.021  -0.002  0.00  0.00    +0.100 C 
BRANCH   6   7
ATOM      7  C   UNL     1       0.715  -0.472  -1.241  0.00  0.00    -0.027 A 
ATOM      8  C   UNL     1       2.086  -0.335  -1.357  0.00  0.00    +0.007 A 
ATOM      9  C   UNL     1       2.733  -0.785  -2.491  0.00  0.00    +0.023 A 
ATOM     10  C   UNL     1       2.005  -1.376  -3.515  0.00  0.00    +0.035 A 
ATOM     11  C   UNL     1       0.628  -1.513  -3.396  0.00  0.00    +0.023 A 
ATOM     12  C   UNL     1      -0.012  -1.065  -2.257  0.00  0.00    +0.007 A 
BRANCH  10  13
ATOM     13  N   UNL     1       2.658  -1.833  -4.666  0.00  0.00    -0.270 N 
ATOM     14  C   UNL     1       3.907  -2.331  -4.579  0.00  0.00    +0.301 C 
ATOM     15  O   UNL     1       4.431  -2.473  -3.491  0.00  0.00    -0.253 OA
ATOM     16  N   UNL     1       4.576  -2.671  -5.699  0.00  0.00    -0.313 N 
ATOM     17  H   UNL     1       2.211  -1.792  -5.526  0.00  0.00    +0.156 HD
ATOM     18  H   UNL     1       4.158  -2.558  -6.567  0.00  0.00    +0.146 HD
ATOM     19  H   UNL     1       5.475  -3.030  -5.636  0.00  0.00    +0.146 HD
ENDBRANCH  10  13
ENDBRANCH   6   7
ENDBRANCH   1   6
BRANCH   2  20
ATOM     20  C   UNL     1       1.077  -0.738   3.596  0.00  0.00    +0.117 C 
BRANCH  20  21
ATOM     21  C   UNL     1       0.175  -0.833   4.828  0.00  0.00    +0.138 C 
BRANCH  21  22
ATOM     22  N   UNL     1       0.989  -1.142   6.006  0.00  0.00    -0.274 N 
ATOM     23  C   UNL     1       1.308  -2.415   6.477  0.00  0.00    +0.090 A 
ATOM     24  C   UNL     1       1.001  -3.695   6.043  0.00  0.00    +0.030 A 
ATOM     25  C   UNL     1       1.476  -4.789   6.739  0.00  0.00    +0.002 A 
ATOM     26  C   UNL     1       2.257  -4.610   7.868  0.00  0.00    +0.004 A 
ATOM     27  C   UNL     1       2.567  -3.338   8.306  0.00  0.00    +0.048 A 
ATOM     28  C   UNL     1       2.095  -2.234   7.614  0.00  0.00    +0.157 A 
ATOM     29  O   UNL     1       2.231  -0.898   7.801  0.00  0.00    -0.407 OA
ATOM     30  C   UNL     1       1.570  -0.247   6.830  0.00  0.00    +0.421 A 
ATOM     31  O   UNL     1       1.504   0.961   6.714  0.00  0.00    -0.223 OA
ENDBRANCH  21  22
ENDBRANCH  20  21
ENDBRANCH   2  20
TORSDOF 6
