REMARK  Name = ZINC41312605
REMARK  7 active torsions:
REMARK  status: ('A' for Active; 'I' for Inactive)
REMARK    1  A    between atoms: C_1  and  O_2
REMARK    2  A    between atoms: O_2  and  C_3
REMARK    3  A    between atoms: C_10  and  C_12
REMARK    4  A    between atoms: C_18  and  S_20
REMARK    5  A    between atoms: S_20  and  C_21
REMARK    6  A    between atoms: C_21  and  C_22
REMARK    7  A    between atoms: C_22  and  C_24
REMARK                            x       y       z     vdW  Elec       q    Type
REMARK                         _______ _______ _______ _____ _____    ______ ____
ROOT
ATOM      1  C   UNL     1       2.727  -5.158   4.447  0.00  0.00    +0.285 C 
ATOM      2  O   UNL     1       2.500  -6.275   4.020  0.00  0.00    -0.266 OA
ATOM      3  N   UNL     1       3.402  -5.003   5.602  0.00  0.00    -0.257 N 
ATOM      4  C   UNL     1       3.841  -6.119   6.307  0.00  0.00    +0.189 A 
ATOM      5  N   UNL     1       3.712  -7.406   6.028  0.00  0.00    -0.125 NA
ATOM      6  N   UNL     1       4.175  -8.304   6.783  0.00  0.00    -0.133 NA
ATOM      7  C   UNL     1       4.820  -8.012   7.904  0.00  0.00    +0.160 A 
ATOM      8  S   UNL     1       4.749  -6.224   7.847  0.00  0.00    -0.024 S 
ATOM      9  H   UNL     1       3.583  -4.112   5.942  0.00  0.00    +0.157 HD
ENDROOT
BRANCH   1  17
ATOM     10  C   UNL     1       0.626  -0.619   1.042  0.00  0.00    +0.121 A 
ATOM     11  C   UNL     1       1.204   0.144   2.054  0.00  0.00    +0.049 A 
ATOM     12  C   UNL     1       1.840  -0.461   3.115  0.00  0.00    +0.050 A 
ATOM     13  C   UNL     1       1.912  -1.848   3.185  0.00  0.00    +0.136 A 
ATOM     14  C   UNL     1       1.329  -2.621   2.164  0.00  0.00    +0.024 A 
ATOM     15  C   UNL     1       0.680  -1.997   1.095  0.00  0.00    +0.057 A 
ATOM     16  C   UNL     1       1.575  -4.015   2.531  0.00  0.00    +0.063 A 
ATOM     17  C   UNL     1       2.263  -3.979   3.702  0.00  0.00    +0.191 A 
ATOM     18  O   UNL     1       2.456  -2.698   4.079  0.00  0.00    -0.450 OA
BRANCH  10  20
ATOM     19  C   UNL     1      -0.017   1.425   0.010  0.00  0.00    +0.277 C 
ATOM     20  O   UNL     1       0.002  -0.004   0.002  0.00  0.00    -0.495 OA
ENDBRANCH  10  20
ENDBRANCH   1  17
BRANCH   7  21
ATOM     21  S   UNL     1       5.544  -9.080   9.104  0.00  0.00    -0.089 S 
BRANCH  21  22
ATOM     22  C   UNL     1       5.216 -10.745   8.465  0.00  0.00    +0.156 C 
BRANCH  22  23
ATOM     23  C   UNL     1       5.791 -11.769   9.410  0.00  0.00    +0.175 C 
ATOM     24  O   UNL     1       6.367 -11.409  10.416  0.00  0.00    -0.291 OA
BRANCH  23  25
ATOM     25  C   UNL     1       5.656 -13.202   9.114  0.00  0.00    +0.037 A 
ATOM     26  C   UNL     1       4.998 -13.620   7.951  0.00  0.00    +0.014 A 
ATOM     27  C   UNL     1       4.874 -14.965   7.680  0.00  0.00    +0.021 A 
ATOM     28  C   UNL     1       5.399 -15.904   8.554  0.00  0.00    +0.042 A 
ATOM     29  C   UNL     1       6.052 -15.499   9.706  0.00  0.00    +0.040 A 
ATOM     30  C   UNL     1       6.189 -14.155   9.989  0.00  0.00    +0.053 A 
ATOM     31 CL   UNL     1       7.014 -13.649  11.430  0.00  0.00    -0.083 Cl
ATOM     32 CL   UNL     1       5.238 -17.596   8.202  0.00  0.00    -0.083 Cl
ENDBRANCH  23  25
ENDBRANCH  22  23
ENDBRANCH  21  22
ENDBRANCH   7  21
TORSDOF 6
