REMARK  Name = ZINC00420023
REMARK  7 active torsions:
REMARK  status: ('A' for Active; 'I' for Inactive)
REMARK    1  A    between atoms: C_1  and  C_2
REMARK    2  A    between atoms: C_12  and  C_14
REMARK    3  A    between atoms: C_14  and  N_15
REMARK    4  A    between atoms: N_15  and  C_16
REMARK    5  A    between atoms: N_15  and  C_22
REMARK    6  A    between atoms: C_22  and  N_24
REMARK    7  A    between atoms: N_24  and  C_25
REMARK                            x       y       z     vdW  Elec       q    Type
REMARK                         _______ _______ _______ _____ _____    ______ ____
ROOT
ATOM      1  C   UNL     1      -2.237   3.120   0.112  0.00  0.00    +0.046 C 
ATOM      2  C   UNL     1      -0.853   2.526   0.042  0.00  0.00    -0.026 A 
ATOM      3  C   UNL     1      -0.689   1.159  -0.018  0.00  0.00    +0.005 A 
ATOM      4  C   UNL     1       0.580   0.600  -0.078  0.00  0.00    +0.001 A 
ATOM      5  C   UNL     1       1.691   1.396  -0.089  0.00  0.00    +0.010 A 
ATOM      6  C   UNL     1       1.548   2.786  -0.035  0.00  0.00    -0.001 A 
ATOM      7  C   UNL     1       0.263   3.357   0.032  0.00  0.00    +0.052 A 
ATOM      8  N   UNL     1       0.128   4.728   0.085  0.00  0.00    -0.322 N 
ATOM      9  H   UNL     1      -0.786   5.131   0.131  0.00  0.00    +0.169 HD
ATOM     10  C   UNL     1       1.207   5.530   0.076  0.00  0.00    +0.254 A 
ATOM     11  O   UNL     1       1.050   6.737   0.125  0.00  0.00    -0.268 OA
ATOM     12  C   UNL     1       2.517   5.008   0.011  0.00  0.00    +0.035 A 
ATOM     13  C   UNL     1       2.716   3.668  -0.044  0.00  0.00    +0.020 A 
ENDROOT
BRANCH  12  14
ATOM     14  C   UNL     1       3.698   5.944   0.003  0.00  0.00    +0.147 C 
BRANCH  14  15
ATOM     15  N   UNL     1       3.963   6.384  -1.369  0.00  0.00    -0.305 N 
BRANCH  15  16
ATOM     16  C   UNL     1       4.777   5.553  -2.260  0.00  0.00    +0.075 C 
ATOM     17  C   UNL     1       5.963   6.370  -2.777  0.00  0.00    +0.022 C 
ATOM     18  C   UNL     1       6.812   5.503  -3.708  0.00  0.00    +0.002 C 
ATOM     19  C   UNL     1       5.960   5.037  -4.890  0.00  0.00    +0.000 C 
ATOM     20  C   UNL     1       4.774   4.220  -4.373  0.00  0.00    +0.002 C 
ATOM     21  C   UNL     1       3.925   5.087  -3.443  0.00  0.00    +0.022 C 
ENDBRANCH  15  16
BRANCH  15  22
ATOM     22  C   UNL     1       3.458   7.552  -1.812  0.00  0.00    +0.133 C 
ATOM     23  S   UNL     1       3.652   8.002  -3.452  0.00  0.00    -0.019 S 
BRANCH  22  24
ATOM     24  N   UNL     1       2.800   8.367  -0.963  0.00  0.00    -0.329 N 
ATOM     25  C   UNL     1       2.154   9.582  -1.466  0.00  0.00    +0.127 C 
ATOM     26  H   UNL     1       2.754   8.148  -0.019  0.00  0.00    +0.147 HD
ENDBRANCH  22  24
ENDBRANCH  15  22
ENDBRANCH  14  15
ENDBRANCH  12  14
TORSDOF 5
