REMARK  Name = ZINC07779816
REMARK  9 active torsions:
REMARK  status: ('A' for Active; 'I' for Inactive)
REMARK    1  A    between atoms: C_1  and  C_2
REMARK    2  A    between atoms: C_2  and  C_3
REMARK    3  A    between atoms: C_3  and  C_5
REMARK    4  A    between atoms: C_3  and  N_6
REMARK    5  A    between atoms: C_7  and  C_9
REMARK    6  A    between atoms: C_14  and  S_15
REMARK    7  A    between atoms: S_15  and  C_16
REMARK    8  A    between atoms: C_16  and  C_17
REMARK    9  A    between atoms: N_19  and  C_20
REMARK                            x       y       z     vdW  Elec       q    Type
REMARK                         _______ _______ _______ _____ _____    ______ ____
ROOT
ATOM      1  S   UNL     1      -3.315  -0.898   3.927  0.00  0.00    -0.115 S 
ENDROOT
BRANCH   1   7
ATOM      2  C   UNL     1      -3.411  -1.165   1.191  0.00  0.00    +0.050 A 
ATOM      3  C   UNL     1      -4.048  -1.496  -0.008  0.00  0.00    +0.014 A 
ATOM      4  C   UNL     1      -5.339  -1.976   0.009  0.00  0.00    +0.001 A 
ATOM      5  C   UNL     1      -6.016  -2.126   1.210  0.00  0.00    +0.001 A 
ATOM      6  C   UNL     1      -5.404  -1.800   2.402  0.00  0.00    +0.015 A 
ATOM      7  C   UNL     1      -4.099  -1.317   2.406  0.00  0.00    +0.020 A 
BRANCH   2   9
ATOM      8  N   UNL     1      -1.372  -0.511   0.012  0.00  0.00    -0.309 N 
ATOM      9  C   UNL     1      -2.029  -0.655   1.181  0.00  0.00    +0.245 C 
ATOM     10  O   UNL     1      -1.480  -0.364   2.226  0.00  0.00    -0.270 OA
ATOM     11  H   UNL     1      -1.810  -0.743  -0.822  0.00  0.00    +0.149 HD
BRANCH   8  12
ATOM     12  C   UNL     1       0.002  -0.004   0.002  0.00  0.00    +0.070 C 
ATOM     13  C   UNL     1      -0.019   1.526   0.010  0.00  0.00    +0.028 C 
BRANCH  12  15
ATOM     14  C   UNL     1       0.849  -2.021  -1.205  0.00  0.00    +0.005 C 
ATOM     15  C   UNL     1       0.718  -0.497  -1.257  0.00  0.00    +0.018 C 
ENDBRANCH  12  15
ENDBRANCH   8  12
ENDBRANCH   2   9
ENDBRANCH   1   7
BRANCH   1  16
ATOM     16  C   UNL     1      -4.573  -1.258   5.183  0.00  0.00    +0.170 C 
BRANCH  16  17
ATOM     17  C   UNL     1      -4.023  -0.939   6.550  0.00  0.00    +0.224 C 
ATOM     18  O   UNL     1      -2.894  -0.511   6.665  0.00  0.00    -0.275 OA
ATOM     19  N   UNL     1      -4.787  -1.129   7.644  0.00  0.00    -0.309 N 
ATOM     20  H   UNL     1      -5.690  -1.471   7.552  0.00  0.00    +0.149 HD
BRANCH  19  21
ATOM     21  C   UNL     1      -4.253  -0.819   8.973  0.00  0.00    +0.035 C 
ATOM     22  C   UNL     1      -3.011  -1.673   9.235  0.00  0.00    +0.029 C 
ATOM     23  C   UNL     1      -2.453  -1.350  10.623  0.00  0.00    -0.008 C 
ATOM     24  C   UNL     1      -3.514  -1.653  11.682  0.00  0.00    +0.007 C 
ATOM     25  C   UNL     1      -4.756  -0.798  11.420  0.00  0.00    -0.008 C 
ATOM     26  C   UNL     1      -5.314  -1.122  10.033  0.00  0.00    +0.029 C 
ATOM     27  C   UNL     1      -4.379   0.683  11.485  0.00  0.00    +0.007 C 
ATOM     28  C   UNL     1      -3.317   0.986  10.425  0.00  0.00    -0.008 C 
ATOM     29  C   UNL     1      -2.076   0.132  10.688  0.00  0.00    +0.007 C 
ATOM     30  C   UNL     1      -3.875   0.663   9.038  0.00  0.00    +0.029 C 
ENDBRANCH  19  21
ENDBRANCH  16  17
ENDBRANCH   1  16
TORSDOF 7
