REMARK  Name = ZINC12698637
REMARK  6 active torsions:
REMARK  status: ('A' for Active; 'I' for Inactive)
REMARK    1  A    between atoms: C_3  and  O_24
REMARK    2  A    between atoms: C_6  and  C_7
REMARK    3  A    between atoms: N_9  and  N_10
REMARK    4  A    between atoms: C_11  and  C_13
REMARK    5  A    between atoms: O_24  and  C_25
REMARK    6  A    between atoms: C_25  and  C_26
REMARK                            x       y       z     vdW  Elec       q    Type
REMARK                         _______ _______ _______ _____ _____    ______ ____
ROOT
ATOM      1  C   UNL     1      -1.187   1.624   0.017  0.00  0.00    +0.260 C 
ATOM      2  O   UNL     1      -1.204   2.840   0.023  0.00  0.00    -0.269 OA
ATOM      3  N   UNL     1      -0.011   0.966   0.007  0.00  0.00    -0.230 N 
ATOM      4  H   UNL     1       0.002  -0.004   0.002  0.00  0.00    +0.173 HD
ENDROOT
BRANCH   1  10
ATOM      5  C   UNL     1      -2.439  -0.529   0.005  0.00  0.00    +0.016 A 
ATOM      6  C   UNL     1      -3.624  -1.230   0.012  0.00  0.00    +0.046 A 
ATOM      7  C   UNL     1      -4.836  -0.549   0.021  0.00  0.00    +0.121 A 
ATOM      8  C   UNL     1      -4.857   0.841   0.029  0.00  0.00    +0.046 A 
ATOM      9  C   UNL     1      -3.676   1.549   0.028  0.00  0.00    +0.016 A 
ATOM     10  C   UNL     1      -2.455   0.869   0.018  0.00  0.00    +0.038 A 
BRANCH   7  11
ATOM     11  O   UNL     1      -6.002  -1.244   0.021  0.00  0.00    -0.483 OA
BRANCH  11  12
ATOM     12  C   UNL     1      -5.908  -2.670   0.012  0.00  0.00    +0.324 C 
BRANCH  12  13
ATOM     13  C   UNL     1      -7.292  -3.264   0.015  0.00  0.00    +0.248 C 
ATOM     14  O   UNL     1      -8.264  -2.539   0.023  0.00  0.00    -0.272 OA
ATOM     15  N   UNL     1      -7.451  -4.603   0.007  0.00  0.00    -0.327 N 
ATOM     16  H   UNL     1      -6.674  -5.183   0.000  0.00  0.00    +0.145 HD
ATOM     17  H   UNL     1      -8.342  -4.986   0.009  0.00  0.00    +0.145 HD
ENDBRANCH  12  13
ENDBRANCH  11  12
ENDBRANCH   7  11
ENDBRANCH   1  10
BRANCH   3  18
ATOM     18  N   UNL     1       1.193   1.683  -0.000  0.00  0.00    -0.230 N 
ATOM     19  C   UNL     1       2.369   1.025  -0.015  0.00  0.00    +0.267 C 
ATOM     20  O   UNL     1       2.385  -0.192  -0.022  0.00  0.00    -0.268 OA
ATOM     21  H   UNL     1       1.179   2.653   0.005  0.00  0.00    +0.173 HD
BRANCH  19  22
ATOM     22  C   UNL     1       3.628   1.775  -0.023  0.00  0.00    +0.076 A 
ATOM     23  C   UNL     1       4.923   1.304  -0.032  0.00  0.00    +0.024 A 
ATOM     24  C   UNL     1       5.966   2.233  -0.057  0.00  0.00    -0.036 A 
ATOM     25  C   UNL     1       5.627   3.536   0.000  0.00  0.00    -0.006 A 
ATOM     26  S   UNL     1       3.890   3.537  -0.015  0.00  0.00    -0.088 S 
ATOM     27  C   UNL     1       6.437   4.799   0.133  0.00  0.00    +0.043 C 
ATOM     28  C   UNL     1       7.937   4.519   0.237  0.00  0.00    +0.005 C 
ATOM     29  C   UNL     1       8.530   4.246  -1.136  0.00  0.00    +0.000 C 
ATOM     30  C   UNL     1       7.601   3.447  -2.029  0.00  0.00    +0.000 C 
ATOM     31  C   UNL     1       7.814   1.969  -1.688  0.00  0.00    +0.005 C 
ATOM     32  C   UNL     1       7.390   1.729  -0.239  0.00  0.00    +0.036 C 
ENDBRANCH  19  22
ENDBRANCH   3  18
TORSDOF 6
