REMARK  Name = ZINC02328558
REMARK  12 active torsions:
REMARK  status: ('A' for Active; 'I' for Inactive)
REMARK    1  A    between atoms: C_1  and  C_2
REMARK    2  A    between atoms: C_2  and  C_3
REMARK    3  A    between atoms: C_2  and  N_4
REMARK    4  A    between atoms: N_4  and  C_5
REMARK    5  A    between atoms: C_6  and  C_16
REMARK    6  A    between atoms: N_20  and  C_24
REMARK    7  A    between atoms: C_24  and  C_25
REMARK    8  A    between atoms: C_25  and  C_26
REMARK    9  A    between atoms: C_29  and  O_34
REMARK   10  A    between atoms: C_30  and  O_32
REMARK   11  A    between atoms: O_32  and  C_33
REMARK   12  A    between atoms: O_34  and  C_35
REMARK                            x       y       z     vdW  Elec       q    Type
REMARK                         _______ _______ _______ _____ _____    ______ ____
ROOT
ATOM      1  C   UNL     1       2.451   3.212  -0.004  0.00  0.00    +0.037 C 
ATOM      2  C   UNL     1       1.748   2.042  -0.032  0.00  0.00    +0.077 C 
ATOM      3  C   UNL     1       2.204   0.707   0.162  0.00  0.00    +0.258 C 
ATOM      4  O   UNL     1       3.377   0.472   0.392  0.00  0.00    -0.269 OA
ATOM      5  N   UNL     1       1.317  -0.271   0.085  0.00  0.00    -0.255 N 
ATOM      6  C   UNL     1       0.016  -0.010  -0.170  0.00  0.00    +0.121 C 
ATOM      7  S   UNL     1      -1.291  -1.107  -0.313  0.00  0.00    -0.027 S 
ATOM      8  S   UNL     1       0.005   1.770  -0.321  0.00  0.00    -0.061 S 
ENDROOT
BRANCH   1  10
ATOM      9  C   UNL     1       0.748   4.784   0.821  0.00  0.00    +0.134 A 
ATOM     10  C   UNL     1       1.771   4.448  -0.097  0.00  0.00    +0.081 A 
ATOM     11  C   UNL     1       2.092   5.378  -1.115  0.00  0.00    +0.267 A 
ATOM     12  O   UNL     1       2.963   5.128  -1.930  0.00  0.00    -0.267 OA
ATOM     13  N   UNL     1       1.417   6.546  -1.167  0.00  0.00    -0.268 N 
ATOM     14  C   UNL     1       1.719   7.448  -2.144  0.00  0.00    +0.096 A 
ATOM     15  C   UNL     1       1.063   8.627  -2.225  0.00  0.00    +0.018 A 
ATOM     16  C   UNL     1       0.057   8.937  -1.299  0.00  0.00    +0.005 A 
ATOM     17  C   UNL     1      -0.253   8.042  -0.319  0.00  0.00    +0.047 A 
ATOM     18  C   UNL     1       0.441   6.820  -0.250  0.00  0.00    +0.142 A 
ATOM     19  N   UNL     1       0.131   5.951   0.713  0.00  0.00    -0.214 NA
BRANCH   9  20
ATOM     20  N   UNL     1       0.400   3.906   1.824  0.00  0.00    -0.326 N 
ATOM     21  H   UNL     1       0.857   3.054   1.902  0.00  0.00    +0.148 HD
BRANCH  20  23
ATOM     22  C   UNL     1      -1.277   2.982   3.345  0.00  0.00    +0.027 C 
ATOM     23  C   UNL     1      -0.659   4.259   2.772  0.00  0.00    +0.066 C 
ATOM     24  C   UNL     1      -0.068   5.094   3.909  0.00  0.00    +0.027 C 
ENDBRANCH  20  23
ENDBRANCH   9  20
ENDBRANCH   1  10
BRANCH   5  25
ATOM     25  C   UNL     1       1.752  -1.656   0.279  0.00  0.00    +0.119 C 
BRANCH  25  26
ATOM     26  C   UNL     1       2.158  -2.257  -1.068  0.00  0.00    +0.054 C 
BRANCH  26  27
ATOM     27  C   UNL     1       2.604  -3.682  -0.869  0.00  0.00    -0.042 A 
ATOM     28  C   UNL     1       1.685  -4.711  -0.948  0.00  0.00    +0.007 A 
ATOM     29  C   UNL     1       2.090  -6.020  -0.765  0.00  0.00    +0.049 A 
ATOM     30  C   UNL     1       3.421  -6.304  -0.503  0.00  0.00    +0.161 A 
ATOM     31  C   UNL     1       4.347  -5.268  -0.424  0.00  0.00    +0.162 A 
ATOM     32  C   UNL     1       3.935  -3.958  -0.613  0.00  0.00    +0.053 A 
BRANCH  31  33
ATOM     33  O   UNL     1       5.654  -5.541  -0.167  0.00  0.00    -0.491 OA
ATOM     34  C   UNL     1       6.548  -4.428  -0.100  0.00  0.00    +0.277 C 
ENDBRANCH  31  33
BRANCH  30  35
ATOM     35  O   UNL     1       3.821  -7.591  -0.324  0.00  0.00    -0.491 OA
ATOM     36  C   UNL     1       2.816  -8.602  -0.420  0.00  0.00    +0.277 C 
ENDBRANCH  30  35
ENDBRANCH  26  27
ENDBRANCH  25  26
ENDBRANCH   5  25
TORSDOF 8
