REMARK  Name = ZINC59410648
REMARK  8 active torsions:
REMARK  status: ('A' for Active; 'I' for Inactive)
REMARK    1  A    between atoms: C_4  and  C_7
REMARK    2  A    between atoms: C_7  and  C_8
REMARK    3  A    between atoms: C_7  and  C_14
REMARK    4  A    between atoms: N_16  and  N_17
REMARK    5  A    between atoms: C_18  and  C_19
REMARK    6  A    between atoms: C_23  and  O_25
REMARK    7  A    between atoms: O_25  and  C_26
REMARK    8  A    between atoms: C_26  and  C_27
REMARK                            x       y       z     vdW  Elec       q    Type
REMARK                         _______ _______ _______ _____ _____    ______ ____
ROOT
ATOM      1  N   UNL     1       3.557  -2.077  -3.544  0.00  0.00    -0.188 NA
ATOM      2  C   UNL     1       3.430  -1.623  -4.752  0.00  0.00    +0.138 C 
ENDROOT
BRANCH   2   3
ATOM      3  C   UNL     1       3.418  -2.557  -5.894  0.00  0.00    -0.002 A 
ATOM      4  C   UNL     1       3.539  -3.932  -5.676  0.00  0.00    +0.010 A 
ATOM      5  C   UNL     1       3.529  -4.802  -6.746  0.00  0.00    +0.004 A 
ATOM      6  C   UNL     1       3.398  -4.318  -8.036  0.00  0.00    +0.046 A 
ATOM      7  C   UNL     1       3.278  -2.954  -8.262  0.00  0.00    +0.122 A 
ATOM      8  C   UNL     1       3.282  -2.071  -7.195  0.00  0.00    +0.055 A 
BRANCH   7   9
ATOM      9  O   UNL     1       3.151  -2.485  -9.531  0.00  0.00    -0.487 OA
BRANCH   9  10
ATOM     10  C   UNL     1       3.149  -3.452 -10.583  0.00  0.00    +0.265 C 
BRANCH  10  11
ATOM     11  C   UNL     1       3.001  -2.751 -11.909  0.00  0.00    -0.003 A 
ATOM     12  C   UNL     1       2.899  -1.395 -11.959  0.00  0.00    +0.007 A 
ATOM     13  C   UNL     1       2.761  -0.730 -13.175  0.00  0.00    +0.001 A 
ATOM     14  C   UNL     1       2.723  -1.417 -14.350  0.00  0.00    +0.008 A 
ATOM     15  C   UNL     1       2.825  -2.819 -14.338  0.00  0.00    -0.018 A 
ATOM     16  C   UNL     1       2.971  -3.495 -13.101  0.00  0.00    -0.011 A 
ATOM     17  C   UNL     1       3.079  -4.896 -13.090  0.00  0.00    +0.009 A 
ATOM     18  C   UNL     1       3.047  -5.583 -14.265  0.00  0.00    +0.001 A 
ATOM     19  C   UNL     1       2.909  -4.918 -15.482  0.00  0.00    +0.001 A 
ATOM     20  C   UNL     1       2.789  -3.563 -15.530  0.00  0.00    +0.008 A 
ENDBRANCH  10  11
ENDBRANCH   9  10
ENDBRANCH   7   9
ENDBRANCH   2   3
BRANCH   1  23
ATOM     21  C   UNL     1       3.700  -1.661  -1.204  0.00  0.00    +0.244 C 
ATOM     22  O   UNL     1       3.810  -2.854  -1.013  0.00  0.00    -0.273 OA
ATOM     23  N   UNL     1       3.567  -1.190  -2.459  0.00  0.00    -0.206 N 
ATOM     24  H   UNL     1       3.479  -0.236  -2.612  0.00  0.00    +0.177 HD
BRANCH  21  25
ATOM     25  C   UNL     1       3.711  -0.707  -0.038  0.00  0.00    +0.136 C 
BRANCH  25  29
ATOM     26  C   UNL     1       0.035   1.467   0.061  0.00  0.00    +0.000 A 
ATOM     27  C   UNL     1       0.020   0.087  -0.022  0.00  0.00    +0.000 A 
ATOM     28  C   UNL     1       1.210  -0.617  -0.054  0.00  0.00    +0.005 A 
ATOM     29  C   UNL     1       2.414   0.060  -0.004  0.00  0.00    -0.031 A 
ATOM     30  C   UNL     1       2.429   1.440   0.079  0.00  0.00    +0.005 A 
ATOM     31  C   UNL     1       1.240   2.143   0.112  0.00  0.00    +0.000 A 
ENDBRANCH  25  29
BRANCH  25  32
ATOM     32  C   UNL     1       3.870  -1.483   1.245  0.00  0.00    -0.031 A 
ATOM     33  C   UNL     1       3.012  -2.528   1.531  0.00  0.00    +0.005 A 
ATOM     34  C   UNL     1       3.158  -3.240   2.707  0.00  0.00    +0.000 A 
ATOM     35  C   UNL     1       4.161  -2.906   3.597  0.00  0.00    +0.000 A 
ATOM     36  C   UNL     1       5.020  -1.861   3.310  0.00  0.00    +0.000 A 
ATOM     37  C   UNL     1       4.877  -1.153   2.132  0.00  0.00    +0.005 A 
ENDBRANCH  25  32
ENDBRANCH  21  25
ENDBRANCH   1  23
TORSDOF 8
