REMARK  Name = ZINC13148732
REMARK  13 active torsions:
REMARK  status: ('A' for Active; 'I' for Inactive)
REMARK    1  A    between atoms: C_1  and  C_2
REMARK    2  A    between atoms: C_3  and  N_11
REMARK    3  A    between atoms: C_7  and  N_8
REMARK    4  A    between atoms: C_12  and  C_14
REMARK    5  A    between atoms: C_14  and  O_15
REMARK    6  A    between atoms: O_15  and  C_16
REMARK    7  A    between atoms: C_16  and  C_18
REMARK    8  A    between atoms: C_18  and  C_20
REMARK    9  A    between atoms: C_18  and  N_24
REMARK   10  A    between atoms: C_20  and  C_22
REMARK   11  A    between atoms: C_20  and  O_23
REMARK   12  A    between atoms: N_24  and  S_25
REMARK   13  A    between atoms: S_25  and  C_28
REMARK                            x       y       z     vdW  Elec       q    Type
REMARK                         _______ _______ _______ _____ _____    ______ ____
ROOT
ATOM      1  C   UNL     1      -0.773   1.114   0.746  0.00  0.00    +0.213 C 
ENDROOT
BRANCH   1   2
ATOM      2  C   UNL     1       0.544   1.767   1.080  0.00  0.00    +0.329 C 
ATOM      3  O   UNL     1       0.629   2.499   2.037  0.00  0.00    -0.249 OA
BRANCH   2   4
ATOM      4  O   UNL     1       1.621   1.534   0.315  0.00  0.00    -0.454 OA
BRANCH   4   5
ATOM      5  C   UNL     1       2.856   2.196   0.696  0.00  0.00    +0.328 C 
BRANCH   5   7
ATOM      6  N   UNL     1       5.190   2.318  -0.114  0.00  0.00    -0.282 N 
ATOM      7  C   UNL     1       3.948   1.819  -0.272  0.00  0.00    +0.255 C 
ATOM      8  O   UNL     1       3.709   1.065  -1.192  0.00  0.00    -0.272 OA
ATOM      9  H   UNL     1       5.364   2.977   0.576  0.00  0.00    +0.155 HD
BRANCH   6  12
ATOM     10  C   UNL     1       7.499   3.965  -0.349  0.00  0.00    +0.048 C 
ATOM     11  C   UNL     1       7.373   2.658  -1.089  0.00  0.00    +0.001 A 
ATOM     12  C   UNL     1       6.229   1.885  -0.946  0.00  0.00    +0.039 A 
ATOM     13  C   UNL     1       6.114   0.685  -1.635  0.00  0.00    +0.024 A 
ATOM     14  C   UNL     1       7.141   0.260  -2.455  0.00  0.00    +0.004 A 
ATOM     15  C   UNL     1       8.282   1.029  -2.591  0.00  0.00    +0.033 A 
ATOM     16  C   UNL     1       8.399   2.226  -1.907  0.00  0.00    +0.131 A 
BRANCH  16  17
ATOM     17  N   UNL     1       9.622   3.046  -2.056  0.00  0.00    +0.057 N 
ATOM     18  O   UNL     1      10.464   2.740  -2.882  0.00  0.00    -0.126 OA
ATOM     19  O   UNL     1       9.786   4.027  -1.353  0.00  0.00    -0.126 OA
ENDBRANCH  16  17
ENDBRANCH   6  12
ENDBRANCH   5   7
ENDBRANCH   4   5
ENDBRANCH   2   4
ENDBRANCH   1   2
BRANCH   1  20
ATOM     20  C   UNL     1      -1.214   1.544  -0.654  0.00  0.00    +0.141 C 
ATOM     21  C   UNL     1      -0.223   1.008  -1.689  0.00  0.00    +0.040 C 
BRANCH  20  22
ATOM     22  O   UNL     1      -1.252   2.970  -0.725  0.00  0.00    -0.390 OA
ATOM     23  H   UNL     1      -1.524   3.315  -1.587  0.00  0.00    +0.210 HD
ENDBRANCH  20  22
ENDBRANCH   1  20
BRANCH   1  24
ATOM     24  N   UNL     1      -1.784   1.524   1.724  0.00  0.00    -0.174 NA
ATOM     25  H   UNL     1      -1.764   2.421   2.094  0.00  0.00    +0.149 HD
BRANCH  24  26
ATOM     26  S   UNL     1      -2.959   0.458   2.198  0.00  0.00    +0.059 S 
ATOM     27  O   UNL     1      -3.758   1.134   3.159  0.00  0.00    -0.153 OA
ATOM     28  O   UNL     1      -3.504  -0.099   1.010  0.00  0.00    -0.153 OA
BRANCH  26  29
ATOM     29  C   UNL     1      -2.155  -0.859   3.048  0.00  0.00    +0.106 A 
ATOM     30  C   UNL     1      -1.724  -1.976   2.334  0.00  0.00    +0.029 A 
ATOM     31  C   UNL     1      -1.095  -3.008   2.959  0.00  0.00    +0.010 A 
ATOM     32  C   UNL     1      -0.886  -2.955   4.348  0.00  0.00    -0.018 A 
ATOM     33  C   UNL     1      -0.246  -4.005   5.030  0.00  0.00    +0.008 A 
ATOM     34  C   UNL     1      -0.061  -3.920   6.375  0.00  0.00    +0.001 A 
ATOM     35  C   UNL     1      -0.497  -2.806   7.091  0.00  0.00    +0.001 A 
ATOM     36  C   UNL     1      -1.121  -1.771   6.464  0.00  0.00    +0.008 A 
ATOM     37  C   UNL     1      -1.329  -1.823   5.075  0.00  0.00    -0.016 A 
ATOM     38  C   UNL     1      -1.970  -0.774   4.394  0.00  0.00    +0.037 A 
ENDBRANCH  26  29
ENDBRANCH  24  26
ENDBRANCH   1  24
TORSDOF 11
