REMARK  Name = ZINC38672838
REMARK  7 active torsions:
REMARK  status: ('A' for Active; 'I' for Inactive)
REMARK    1  A    between atoms: C_1  and  N_2
REMARK    2  A    between atoms: N_5  and  C_8
REMARK    3  A    between atoms: C_8  and  C_10
REMARK    4  A    between atoms: C_8  and  C_25
REMARK    5  A    between atoms: C_10  and  N_11
REMARK    6  A    between atoms: C_12  and  C_14
REMARK    7  A    between atoms: N_34  and  C_35
REMARK                            x       y       z     vdW  Elec       q    Type
REMARK                         _______ _______ _______ _____ _____    ______ ____
ROOT
ATOM      1  C   UNL     1       1.485  -4.103  -0.172  0.00  0.00    +0.104 C 
ENDROOT
BRANCH   1   2
ATOM      2  C   UNL     1       2.213  -4.654   1.027  0.00  0.00    -0.028 A 
ATOM      3  C   UNL     1       3.388  -4.061   1.454  0.00  0.00    +0.007 A 
ATOM      4  C   UNL     1       4.055  -4.566   2.551  0.00  0.00    +0.024 A 
ATOM      5  C   UNL     1       3.546  -5.670   3.227  0.00  0.00    +0.033 A 
ATOM      6  C   UNL     1       2.367  -6.262   2.801  0.00  0.00    -0.026 A 
ATOM      7  C   UNL     1       1.703  -5.746   1.701  0.00  0.00    +0.010 A 
ATOM      8  C   UNL     1       1.781  -7.452   3.514  0.00  0.00    +0.038 C 
ATOM      9  C   UNL     1       2.854  -8.162   4.340  0.00  0.00    +0.024 C 
ATOM     10  C   UNL     1       3.567  -7.129   5.221  0.00  0.00    +0.105 C 
ATOM     11  N   UNL     1       4.240  -6.170   4.334  0.00  0.00    -0.333 N 
ATOM     12  C   UNL     1       5.616  -5.746   4.604  0.00  0.00    +0.129 C 
ENDBRANCH   1   2
BRANCH   1  17
ATOM     13  C   UNL     1       0.473   1.438  -0.043  0.00  0.00    -0.096 C 
ATOM     14  N   UNL     1       0.370  -0.027  -0.073  0.00  0.00    +0.379 N 
ATOM     15  C   UNL     1       1.012  -0.537  -1.291  0.00  0.00    -0.064 C 
ATOM     16  C   UNL     1       0.888  -2.062  -1.332  0.00  0.00    +0.066 C 
ATOM     17  N   UNL     1       1.533  -2.635  -0.142  0.00  0.00    -0.297 NA
ATOM     18  C   UNL     1       0.917  -2.113   1.087  0.00  0.00    +0.066 C 
ATOM     19  C   UNL     1       1.040  -0.588   1.108  0.00  0.00    -0.064 C 
ATOM     20  H   UNL     1      -0.602  -0.296  -0.067  0.00  0.00    -0.082 HD
ENDBRANCH   1  17
BRANCH   1  21
ATOM     21  C   UNL     1       2.155  -4.608  -1.452  0.00  0.00    +0.128 C 
BRANCH  21  22
ATOM     22  N   UNL     1       2.036  -6.067  -1.522  0.00  0.00    -0.310 N 
ATOM     23  C   UNL     1       2.654  -6.747  -2.507  0.00  0.00    +0.257 C 
ATOM     24  O   UNL     1       3.308  -6.151  -3.337  0.00  0.00    -0.272 OA
ATOM     25  H   UNL     1       1.512  -6.543  -0.858  0.00  0.00    +0.149 HD
BRANCH  23  26
ATOM     26  C   UNL     1       2.531  -8.247  -2.579  0.00  0.00    +0.296 C 
ATOM     27  C   UNL     1       1.075  -8.634  -2.872  0.00  0.00    +0.283 C 
ATOM     28  O   UNL     1       0.998 -10.062  -2.947  0.00  0.00    -0.484 OA
ATOM     29  C   UNL     1       1.953 -10.688  -3.688  0.00  0.00    +0.162 A 
ATOM     30  C   UNL     1       1.744 -11.995  -4.103  0.00  0.00    +0.049 A 
ATOM     31  C   UNL     1       2.706 -12.645  -4.853  0.00  0.00    +0.004 A 
ATOM     32  C   UNL     1       3.878 -11.995  -5.191  0.00  0.00    +0.004 A 
ATOM     33  C   UNL     1       4.092 -10.692  -4.782  0.00  0.00    +0.049 A 
ATOM     34  C   UNL     1       3.130 -10.034  -4.030  0.00  0.00    +0.163 A 
ATOM     35  O   UNL     1       3.352  -8.748  -3.640  0.00  0.00    -0.473 OA
ENDBRANCH  23  26
ENDBRANCH  21  22
ENDBRANCH   1  21
TORSDOF 5
