REMARK  Name = ZINC06547132
REMARK  6 active torsions:
REMARK  status: ('A' for Active; 'I' for Inactive)
REMARK    1  A    between atoms: C_1  and  C_2
REMARK    2  A    between atoms: C_9  and  O_12
REMARK    3  A    between atoms: O_12  and  C_13
REMARK    4  A    between atoms: C_13  and  C_14
REMARK    5  A    between atoms: N_16  and  C_17
REMARK    6  A    between atoms: C_23  and  C_25
REMARK                            x       y       z     vdW  Elec       q    Type
REMARK                         _______ _______ _______ _____ _____    ______ ____
ROOT
ATOM      1  C   UNL     1      -4.834   1.236   0.051  0.00  0.00    +0.065 C 
ATOM      2  C   UNL     1      -3.552   2.028   0.044  0.00  0.00    +0.039 A 
ATOM      3  C   UNL     1      -3.614   3.420   0.051  0.00  0.00    +0.024 A 
ATOM      4  C   UNL     1      -2.462   4.154   0.045  0.00  0.00    +0.013 A 
ATOM      5  C   UNL     1      -1.235   3.465   0.031  0.00  0.00    +0.022 A 
ATOM      6  C   UNL     1      -0.011   4.154   0.024  0.00  0.00    +0.052 A 
ATOM      7  C   UNL     1       1.160   3.457   0.009  0.00  0.00    +0.044 A 
ATOM      8  C   UNL     1       1.163   2.064   0.002  0.00  0.00    +0.086 A 
ATOM      9  C   UNL     1      -0.016   1.355   0.009  0.00  0.00    +0.165 A 
ATOM     10  C   UNL     1      -1.244   2.048   0.019  0.00  0.00    +0.116 A 
ATOM     11  N   UNL     1      -2.407   1.389   0.031  0.00  0.00    -0.248 NA
ATOM     12 CL   UNL     1       2.675   1.211  -0.016  0.00  0.00    -0.080 Cl
ATOM     13 CL   UNL     1       0.010   5.890   0.032  0.00  0.00    -0.083 Cl
ENDROOT
BRANCH   9  14
ATOM     14  O   UNL     1       0.002  -0.004   0.002  0.00  0.00    -0.479 OA
BRANCH  14  15
ATOM     15  C   UNL     1       0.023  -0.660   1.272  0.00  0.00    +0.324 C 
BRANCH  15  16
ATOM     16  C   UNL     1       0.041  -2.152   1.066  0.00  0.00    +0.251 C 
ATOM     17  O   UNL     1       0.037  -2.610  -0.057  0.00  0.00    -0.272 OA
ATOM     18  N   UNL     1       0.063  -2.979   2.130  0.00  0.00    -0.309 N 
ATOM     19  H   UNL     1       0.066  -2.613   3.029  0.00  0.00    +0.149 HD
BRANCH  18  20
ATOM     20  C   UNL     1       0.081  -4.430   1.930  0.00  0.00    +0.076 C 
ATOM     21  C   UNL     1       1.522  -4.899   1.722  0.00  0.00    +0.022 C 
ATOM     22  C   UNL     1       2.357  -4.543   2.955  0.00  0.00    +0.002 C 
ATOM     23  C   UNL     1       1.768  -5.235   4.186  0.00  0.00    +0.000 C 
ATOM     24  C   UNL     1       0.326  -4.767   4.394  0.00  0.00    +0.005 C 
ATOM     25  C   UNL     1      -0.508  -5.122   3.162  0.00  0.00    +0.006 C 
ATOM     26  C   UNL     1      -1.950  -4.654   3.369  0.00  0.00    +0.009 C 
ENDBRANCH  18  20
ENDBRANCH  15  16
ENDBRANCH  14  15
ENDBRANCH   9  14
TORSDOF 4
