REMARK  Name = ZINC28057209
REMARK  4 active torsions:
REMARK  status: ('A' for Active; 'I' for Inactive)
REMARK    1  A    between atoms: C_1  and  O_2
REMARK    2  A    between atoms: O_2  and  C_3
REMARK    3  A    between atoms: C_7  and  C_9
REMARK    4  A    between atoms: C_26  and  C_28
REMARK                            x       y       z     vdW  Elec       q    Type
REMARK                         _______ _______ _______ _____ _____    ______ ____
ROOT
ATOM      1  C   UNL     1      -0.065   5.351   0.032  0.00  0.00    +0.234 C 
ATOM      2  C   UNL     1       0.054   5.843   1.456  0.00  0.00    +0.026 C 
ATOM      3  C   UNL     1       1.266   6.037   1.979  0.00  0.00    +0.050 C 
ATOM      4  C   UNL     1       2.451   5.770   1.130  0.00  0.00    +0.038 A 
ATOM      5  C   UNL     1       3.717   5.612   1.678  0.00  0.00    +0.013 A 
ATOM      6  C   UNL     1       4.794   5.367   0.847  0.00  0.00    +0.001 A 
ATOM      7  C   UNL     1       4.613   5.280  -0.523  0.00  0.00    +0.004 A 
ATOM      8  C   UNL     1       3.355   5.436  -1.077  0.00  0.00    +0.046 A 
ATOM      9  C   UNL     1       2.269   5.680  -0.257  0.00  0.00    +0.131 A 
ATOM     10  O   UNL     1       1.019   5.837  -0.759  0.00  0.00    -0.479 OA
ATOM     11  N   UNL     1       1.451   6.490   3.291  0.00  0.00    -0.282 N 
ATOM     12  C   UNL     1       0.346   7.000   3.948  0.00  0.00    +0.240 A 
ATOM     13  N   UNL     1       0.243   7.689   5.048  0.00  0.00    -0.092 NA
ATOM     14  N   UNL     1      -0.993   7.968   5.286  0.00  0.00    -0.021 NA
ATOM     15  N   UNL     1      -1.752   7.476   4.361  0.00  0.00    -0.042 NA
ATOM     16  N   UNL     1      -0.910   6.825   3.460  0.00  0.00    -0.201 N 
ATOM     17  C   UNL     1      -1.211   6.090   2.240  0.00  0.00    +0.177 C 
ATOM     18  H   UNL     1       2.445   6.431   3.758  0.00  0.00    +0.155 HD
ENDROOT
BRANCH  17  19
ATOM     19  C   UNL     1      -1.846   4.771   2.595  0.00  0.00    +0.017 A 
ATOM     20  C   UNL     1      -1.151   3.854   3.361  0.00  0.00    +0.009 A 
ATOM     21  C   UNL     1      -1.733   2.643   3.688  0.00  0.00    +0.001 A 
ATOM     22  C   UNL     1      -3.010   2.348   3.249  0.00  0.00    +0.003 A 
ATOM     23  C   UNL     1      -3.706   3.263   2.483  0.00  0.00    +0.039 A 
ATOM     24  C   UNL     1      -3.127   4.478   2.159  0.00  0.00    +0.129 A 
ATOM     25  F   UNL     1      -3.809   5.376   1.415  0.00  0.00    -0.205 F 
ENDBRANCH  17  19
BRANCH   1  30
ATOM     26  C   UNL     1       1.148   1.778   0.234  0.00  0.00    +0.120 A 
ATOM     27  C   UNL     1      -0.027   1.076   0.007  0.00  0.00    +0.045 A 
ATOM     28  C   UNL     1      -1.208   1.759  -0.205  0.00  0.00    +0.004 A 
ATOM     29  C   UNL     1      -1.220   3.142  -0.197  0.00  0.00    +0.008 A 
ATOM     30  C   UNL     1      -0.049   3.844   0.023  0.00  0.00    +0.000 A 
ATOM     31  C   UNL     1       1.135   3.165   0.236  0.00  0.00    +0.053 A 
BRANCH  26  33
ATOM     32  C   UNL     1       2.251  -0.320   0.426  0.00  0.00    +0.277 C 
ATOM     33  O   UNL     1       2.311   1.108   0.449  0.00  0.00    -0.495 OA
ENDBRANCH  26  33
ENDBRANCH   1  30
TORSDOF 3
