REMARK  Name = ZINC32600414
REMARK  7 active torsions:
REMARK  status: ('A' for Active; 'I' for Inactive)
REMARK    1  A    between atoms: C_1  and  C_2
REMARK    2  A    between atoms: C_2  and  C_4
REMARK    3  A    between atoms: C_4  and  O_6
REMARK    4  A    between atoms: O_6  and  C_7
REMARK    5  A    between atoms: C_10  and  N_13
REMARK    6  A    between atoms: C_22  and  C_37
REMARK    7  A    between atoms: C_29  and  C_36
REMARK                            x       y       z     vdW  Elec       q    Type
REMARK                         _______ _______ _______ _____ _____    ______ ____
ROOT
ATOM      1  N   UNL     1       5.295   1.303   3.003  0.00  0.00    -0.210 N 
ATOM      2  C   UNL     1       5.031   0.071   2.448  0.00  0.00    +0.231 C 
ATOM      3  O   UNL     1       5.426  -1.016   2.810  0.00  0.00    -0.274 OA
ATOM      4  C   UNL     1       4.156   0.389   1.315  0.00  0.00    +0.103 C 
ATOM      5  C   UNL     1       4.793   1.721   0.832  0.00  0.00    +0.103 C 
ATOM      6  C   UNL     1       4.954   2.348   2.181  0.00  0.00    +0.231 C 
ATOM      7  O   UNL     1       4.814   3.515   2.481  0.00  0.00    -0.274 OA
ATOM      8  C   UNL     1       3.827   2.301  -0.217  0.00  0.00    +0.030 C 
ATOM      9  C   UNL     1       2.447   1.657  -0.088  0.00  0.00    -0.032 A 
ATOM     10  C   UNL     1       1.295   2.409  -0.092  0.00  0.00    +0.005 A 
ATOM     11  C   UNL     1       0.068   1.766  -0.088  0.00  0.00    +0.000 A 
ATOM     12  C   UNL     1      -0.016   0.385  -0.068  0.00  0.00    +0.000 A 
ATOM     13  C   UNL     1       1.148  -0.376  -0.020  0.00  0.00    +0.005 A 
ATOM     14  C   UNL     1       2.340   0.270  -0.021  0.00  0.00    -0.032 A 
ATOM     15  C   UNL     1       3.719  -0.411   0.127  0.00  0.00    +0.030 C 
ATOM     16  C   UNL     1       4.392   0.079  -1.149  0.00  0.00    -0.032 A 
ATOM     17  C   UNL     1       4.410   1.453  -1.385  0.00  0.00    -0.032 A 
ATOM     18  C   UNL     1       4.909   1.985  -2.531  0.00  0.00    +0.005 A 
ATOM     19  C   UNL     1       5.458   1.125  -3.475  0.00  0.00    +0.000 A 
ATOM     20  C   UNL     1       5.492  -0.236  -3.234  0.00  0.00    +0.000 A 
ATOM     21  C   UNL     1       4.957  -0.767  -2.070  0.00  0.00    +0.005 A 
ATOM     22  C   UNL     1       3.709  -1.928   0.330  0.00  0.00    +0.022 C 
ATOM     23  C   UNL     1       3.852   3.822  -0.381  0.00  0.00    +0.022 C 
ENDROOT
BRANCH   1  27
ATOM     24  C   UNL     1       6.963   1.808   6.793  0.00  0.00    +0.132 A 
ATOM     25  C   UNL     1       6.727   0.531   6.304  0.00  0.00    +0.048 A 
ATOM     26  C   UNL     1       6.175   0.364   5.049  0.00  0.00    +0.027 A 
ATOM     27  C   UNL     1       5.856   1.473   4.278  0.00  0.00    +0.044 A 
ATOM     28  C   UNL     1       6.098   2.750   4.765  0.00  0.00    +0.027 A 
ATOM     29  C   UNL     1       6.645   2.917   6.022  0.00  0.00    +0.048 A 
BRANCH  24  30
ATOM     30  O   UNL     1       7.507   1.973   8.028  0.00  0.00    -0.423 OA
BRANCH  30  31
ATOM     31  C   UNL     1       6.710   2.490   8.984  0.00  0.00    +0.340 C 
ATOM     32  O   UNL     1       5.533   2.689   8.752  0.00  0.00    -0.245 OA
BRANCH  31  34
ATOM     33  C   UNL     1       8.722   2.568  10.593  0.00  0.00    +0.050 C 
ATOM     34  C   UNL     1       7.263   2.815  10.306  0.00  0.00    +0.027 C 
ATOM     35  C   UNL     1       6.476   3.326  11.249  0.00  0.00    +0.019 C 
ENDBRANCH  31  34
ENDBRANCH  30  31
ENDBRANCH  24  30
ENDBRANCH   1  27
TORSDOF 4
