REMARK  Name = ZINC13064032
REMARK  11 active torsions:
REMARK  status: ('A' for Active; 'I' for Inactive)
REMARK    1  A    between atoms: C_1  and  C_2
REMARK    2  A    between atoms: C_2  and  C_3
REMARK    3  A    between atoms: C_3  and  C_5
REMARK    4  A    between atoms: C_3  and  N_67
REMARK    5  A    between atoms: N_9  and  C_10
REMARK    6  A    between atoms: C_15  and  C_16
REMARK    7  A    between atoms: C_15  and  N_67
REMARK    8  A    between atoms: C_22  and  C_23
REMARK    9  A    between atoms: C_22  and  N_67
REMARK   10  A    between atoms: C_27  and  O_35
REMARK   11  A    between atoms: O_35  and  C_36
REMARK                            x       y       z     vdW  Elec       q    Type
REMARK                         _______ _______ _______ _____ _____    ______ ____
ROOT
ATOM      1  N   UNL     1       4.058  -0.778  -1.319  0.00  0.00    +0.392 N 
ATOM      2  H   UNL     1       4.097   0.034  -1.946  0.00  0.00    -0.080 HD
ENDROOT
BRANCH   1   3
ATOM      3  C   UNL     1       5.352  -1.491  -1.376  0.00  0.00    +0.003 C 
BRANCH   3   4
ATOM      4  C   UNL     1       6.405  -0.658  -0.693  0.00  0.00    +0.138 A 
ATOM      5  N   UNL     1       6.591   0.632  -0.828  0.00  0.00    -0.115 NA
ATOM      6  N   UNL     1       7.585   0.971  -0.081  0.00  0.00    -0.023 NA
ATOM      7  N   UNL     1       8.044  -0.071   0.519  0.00  0.00    -0.044 NA
ATOM      8  N   UNL     1       7.343  -1.096   0.168  0.00  0.00    -0.228 N 
BRANCH   8   9
ATOM      9  C   UNL     1       7.531  -2.476   0.621  0.00  0.00    +0.111 C 
ATOM     10  C   UNL     1       7.426  -2.546   2.159  0.00  0.00    +0.027 C 
ATOM     11  C   UNL     1       8.487  -3.600   2.564  0.00  0.00    +0.002 C 
ATOM     12  C   UNL     1       9.649  -3.312   1.580  0.00  0.00    +0.002 C 
ATOM     13  C   UNL     1       8.944  -2.963   0.254  0.00  0.00    +0.027 C 
ENDBRANCH   8   9
ENDBRANCH   3   4
BRANCH   3  15
ATOM     14  C   UNL     1       7.043  -2.489  -2.921  0.00  0.00    +0.002 C 
ATOM     15  C   UNL     1       5.736  -1.698  -2.843  0.00  0.00    -0.011 C 
ENDBRANCH   3  15
ENDBRANCH   1   3
BRANCH   1  16
ATOM     16  C   UNL     1       3.801  -0.309   0.059  0.00  0.00    -0.042 C 
BRANCH  16  17
ATOM     17  C   UNL     1       2.751   0.771   0.013  0.00  0.00    -0.064 A 
ATOM     18  C   UNL     1       1.411   0.432  -0.004  0.00  0.00    +0.002 A 
ATOM     19  C   UNL     1       0.447   1.422  -0.046  0.00  0.00    +0.000 A 
ATOM     20  C   UNL     1       0.824   2.752  -0.071  0.00  0.00    +0.000 A 
ATOM     21  C   UNL     1       2.164   3.091  -0.054  0.00  0.00    +0.000 A 
ATOM     22  C   UNL     1       3.127   2.100  -0.012  0.00  0.00    +0.002 A 
ENDBRANCH  16  17
ENDBRANCH   1  16
BRANCH   1  23
ATOM     23  C   UNL     1       2.968  -1.674  -1.760  0.00  0.00    -0.036 C 
BRANCH  23  24
ATOM     24  C   UNL     1       2.901  -2.897  -0.883  0.00  0.00    +0.001 A 
ATOM     25  C   UNL     1       2.072  -2.916   0.190  0.00  0.00    +0.017 A 
ATOM     26  C   UNL     1       2.027  -4.121   1.020  0.00  0.00    +0.002 A 
ATOM     27  C   UNL     1       1.187  -4.199   2.136  0.00  0.00    +0.055 A 
ATOM     28  C   UNL     1       1.174  -5.349   2.899  0.00  0.00    +0.121 A 
ATOM     29  C   UNL     1       1.990  -6.426   2.562  0.00  0.00    +0.047 A 
ATOM     30  C   UNL     1       2.821  -6.361   1.467  0.00  0.00    +0.030 A 
ATOM     31  C   UNL     1       2.850  -5.212   0.683  0.00  0.00    +0.049 A 
ATOM     32  N   UNL     1       3.676  -5.128  -0.419  0.00  0.00    -0.322 N 
ATOM     33  H   UNL     1       4.243  -5.880  -0.650  0.00  0.00    +0.169 HD
ATOM     34  C   UNL     1       3.707  -4.018  -1.177  0.00  0.00    +0.251 A 
ATOM     35  O   UNL     1       4.449  -3.979  -2.144  0.00  0.00    -0.268 OA
BRANCH  28  36
ATOM     36  O   UNL     1       0.359  -5.430   3.985  0.00  0.00    -0.495 OA
ATOM     37  C   UNL     1       0.394  -6.648   4.732  0.00  0.00    +0.277 C 
ENDBRANCH  28  36
ENDBRANCH  23  24
ENDBRANCH   1  23
TORSDOF 9
