REMARK  Name = ZINC60512211
REMARK  6 active torsions:
REMARK  status: ('A' for Active; 'I' for Inactive)
REMARK    1  A    between atoms: C_4  and  C_7
REMARK    2  A    between atoms: C_7  and  C_8
REMARK    3  A    between atoms: C_10  and  C_13
REMARK    4  A    between atoms: C_13  and  S_14
REMARK    5  A    between atoms: S_14  and  C_15
REMARK    6  A    between atoms: C_15  and  C_16
REMARK                            x       y       z     vdW  Elec       q    Type
REMARK                         _______ _______ _______ _____ _____    ______ ____
ROOT
ATOM      1  C   UNL     1       4.096  -3.259   4.250  0.00  0.00    +0.125 C 
ENDROOT
BRANCH   1   4
ATOM      2  C   UNL     1       4.164  -0.959   1.377  0.00  0.00    +0.083 A 
ATOM      3  N   UNL     1       3.913  -1.994   2.140  0.00  0.00    -0.248 NA
ATOM      4  C   UNL     1       4.384  -2.071   3.369  0.00  0.00    +0.059 A 
ATOM      5  C   UNL     1       5.141  -1.031   3.804  0.00  0.00    +0.071 A 
ATOM      6  S   UNL     1       5.123   0.016   2.358  0.00  0.00    -0.080 S 
BRANCH   2   7
ATOM      7  C   UNL     1       3.711  -0.707  -0.038  0.00  0.00    +0.098 C 
BRANCH   7  11
ATOM      8  C   UNL     1      -0.017   1.378   0.010  0.00  0.00    +0.000 A 
ATOM      9  C   UNL     1       1.171   2.086   0.002  0.00  0.00    +0.000 A 
ATOM     10  C   UNL     1       2.377   1.411  -0.013  0.00  0.00    +0.004 A 
ATOM     11  C   UNL     1       2.396   0.029  -0.020  0.00  0.00    -0.041 A 
ATOM     12  C   UNL     1       1.208  -0.679  -0.012  0.00  0.00    +0.004 A 
ATOM     13  C   UNL     1       0.002  -0.004   0.002  0.00  0.00    +0.000 A 
ENDBRANCH   7  11
ENDBRANCH   2   7
ENDBRANCH   1   4
BRANCH   1  14
ATOM     14  S   UNL     1       5.386  -4.513   4.015  0.00  0.00    -0.148 S 
BRANCH  14  15
ATOM     15  C   UNL     1       4.899  -5.858   5.131  0.00  0.00    +0.125 C 
BRANCH  15  16
ATOM     16  C   UNL     1       5.901  -6.980   5.032  0.00  0.00    +0.059 A 
ATOM     17  C   UNL     1       6.819  -7.190   6.039  0.00  0.00    +0.094 A 
ATOM     18  C   UNL     1       7.738  -8.234   5.930  0.00  0.00    +0.259 A 
ATOM     19  O   UNL     1       8.553  -8.426   6.819  0.00  0.00    -0.267 OA
ATOM     20  N   UNL     1       7.725  -9.042   4.829  0.00  0.00    -0.262 N 
ATOM     21  C   UNL     1       8.560 -10.105   4.578  0.00  0.00    +0.104 A 
ATOM     22  C   UNL     1       8.447 -10.820   3.459  0.00  0.00    +0.067 A 
ATOM     23  S   UNL     1       7.085 -10.005   2.640  0.00  0.00    -0.058 S 
ATOM     24  C   UNL     1       6.780  -8.762   3.877  0.00  0.00    +0.180 A 
ATOM     25  N   UNL     1       5.911  -7.787   3.975  0.00  0.00    -0.227 NA
ENDBRANCH  15  16
ENDBRANCH  14  15
ENDBRANCH   1  14
TORSDOF 6
