REMARK  Name = ZINC21024368
REMARK  12 active torsions:
REMARK  status: ('A' for Active; 'I' for Inactive)
REMARK    1  A    between atoms: C_1  and  C_2
REMARK    2  A    between atoms: C_7  and  C_8
REMARK    3  A    between atoms: C_8  and  N_9
REMARK    4  A    between atoms: C_12  and  C_15
REMARK    5  A    between atoms: C_15  and  N_16
REMARK    6  A    between atoms: N_16  and  C_17
REMARK    7  A    between atoms: C_17  and  C_18
REMARK    8  A    between atoms: C_19  and  C_35
REMARK    9  A    between atoms: N_20  and  C_27
REMARK   10  A    between atoms: C_21  and  C_26
REMARK   11  A    between atoms: C_22  and  C_23
REMARK   12  A    between atoms: C_27  and  C_28
REMARK                            x       y       z     vdW  Elec       q    Type
REMARK                         _______ _______ _______ _____ _____    ______ ____
ROOT
ATOM      1  N   UNL     1       3.059   3.919   0.345  0.00  0.00    +0.382 N 
ATOM      2  H   UNL     1       3.435   3.535   1.305  0.00  0.00    -0.085 HD
ATOM      3  H   UNL     1       3.674   3.521  -0.475  0.00  0.00    -0.085 HD
ENDROOT
BRANCH   1   4
ATOM      4  C   UNL     1       1.665   3.495   0.162  0.00  0.00    -0.079 C 
BRANCH   4   8
ATOM      5  N   UNL     1       0.789  -0.479  -1.144  0.00  0.00    +0.382 N 
ATOM      6  C   UNL     1       0.062  -0.003   0.039  0.00  0.00    -0.078 C 
ATOM      7  C   UNL     1       0.126   1.525   0.098  0.00  0.00    -0.017 C 
ATOM      8  C   UNL     1       1.591   1.967   0.164  0.00  0.00    -0.032 C 
ATOM      9  C   UNL     1       2.337   1.417  -1.054  0.00  0.00    -0.017 C 
ATOM     10  C   UNL     1       2.209  -0.108  -1.080  0.00  0.00    -0.078 C 
ATOM     11  H   UNL     1       0.354   0.012  -2.026  0.00  0.00    -0.081 HD
BRANCH   5  12
ATOM     12  C   UNL     1       0.632  -1.931  -1.309  0.00  0.00    -0.043 C 
BRANCH  12  19
ATOM     13  C   UNL     1      -0.217  -1.349  -4.008  0.00  0.00    +0.044 C 
ATOM     14  C   UNL     1       1.057  -2.118  -3.768  0.00  0.00    -0.049 A 
ATOM     15  C   UNL     1       1.819  -2.545  -4.840  0.00  0.00    +0.003 A 
ATOM     16  C   UNL     1       2.987  -3.250  -4.620  0.00  0.00    +0.000 A 
ATOM     17  C   UNL     1       3.393  -3.528  -3.328  0.00  0.00    +0.000 A 
ATOM     18  C   UNL     1       2.634  -3.097  -2.257  0.00  0.00    +0.002 A 
ATOM     19  C   UNL     1       1.463  -2.396  -2.477  0.00  0.00    -0.061 A 
ENDBRANCH  12  19
ENDBRANCH   5  12
ENDBRANCH   4   8
ENDBRANCH   1   4
BRANCH   1  20
ATOM     20  C   UNL     1       3.169   5.384   0.348  0.00  0.00    -0.044 C 
BRANCH  20  21
ATOM     21  C   UNL     1       4.610   5.779   0.538  0.00  0.00    -0.030 A 
ATOM     22  C   UNL     1       5.236   6.005   1.706  0.00  0.00    +0.018 A 
ATOM     23  N   UNL     1       6.536   6.337   1.459  0.00  0.00    -0.343 N 
ATOM     24  C   UNL     1       6.774   6.343   0.134  0.00  0.00    +0.031 A 
ATOM     25  C   UNL     1       5.607   6.001  -0.515  0.00  0.00    +0.085 A 
ATOM     26  C   UNL     1       8.090   6.668  -0.525  0.00  0.00    +0.064 C 
ATOM     27  C   UNL     1       4.604   5.903   3.071  0.00  0.00    +0.064 C 
BRANCH  25  28
ATOM     28  C   UNL     1       5.404   5.883  -1.967  0.00  0.00    +0.388 C 
ATOM     29  O   UNL     1       5.046   6.849  -2.612  0.00  0.00    -0.241 OA
ATOM     30  O   UNL     1       5.613   4.702  -2.583  0.00  0.00    -0.241 OA
ENDBRANCH  25  28
BRANCH  23  31
ATOM     31  C   UNL     1       7.530   6.649   2.489  0.00  0.00    +0.157 C 
BRANCH  31  32
ATOM     32  C   UNL     1       7.503   8.127   2.782  0.00  0.00    -0.025 A 
ATOM     33  C   UNL     1       8.318   8.988   2.070  0.00  0.00    +0.005 A 
ATOM     34  C   UNL     1       8.291  10.345   2.334  0.00  0.00    +0.003 A 
ATOM     35  C   UNL     1       7.456  10.841   3.318  0.00  0.00    +0.038 A 
ATOM     36  C   UNL     1       6.643   9.980   4.035  0.00  0.00    +0.124 A 
ATOM     37  C   UNL     1       6.668   8.621   3.766  0.00  0.00    +0.043 A 
ATOM     38  F   UNL     1       5.827  10.464   4.997  0.00  0.00    -0.205 F 
ENDBRANCH  31  32
ENDBRANCH  23  31
ENDBRANCH  20  21
ENDBRANCH   1  20
TORSDOF 9
