REMARK  Name = ZINC19881107
REMARK  10 active torsions:
REMARK  status: ('A' for Active; 'I' for Inactive)
REMARK    1  A    between atoms: C_1  and  C_2
REMARK    2  A    between atoms: C_3  and  C_30
REMARK    3  A    between atoms: C_4  and  C_21
REMARK    4  A    between atoms: C_10  and  C_15
REMARK    5  A    between atoms: C_24  and  O_29
REMARK    6  A    between atoms: C_25  and  O_27
REMARK    7  A    between atoms: O_27  and  C_28
REMARK    8  A    between atoms: C_30  and  O_32
REMARK    9  A    between atoms: O_32  and  C_33
REMARK   10  A    between atoms: C_33  and  C_34
REMARK                            x       y       z     vdW  Elec       q    Type
REMARK                         _______ _______ _______ _____ _____    ______ ____
ROOT
ATOM      1  C   UNL     1      -0.013   1.086   0.008  0.00  0.00    +0.061 C 
ATOM      2  C   UNL     1      -0.718   1.572   1.248  0.00  0.00    +0.016 C 
ATOM      3  C   UNL     1      -0.849   2.892   1.467  0.00  0.00    +0.065 C 
ATOM      4  C   UNL     1      -1.556   3.412   2.685  0.00  0.00    +0.092 C 
ATOM      5  C   UNL     1      -1.658   2.345   3.746  0.00  0.00    +0.024 C 
ATOM      6  C   UNL     1      -1.495   1.042   3.431  0.00  0.00    +0.016 C 
ATOM      7  N   UNL     1      -1.215   0.668   2.145  0.00  0.00    -0.321 N 
ATOM      8  C   UNL     1      -1.619  -0.032   4.483  0.00  0.00    +0.059 C 
ATOM      9  C   UNL     1      -1.170   0.521   5.838  0.00  0.00    +0.032 C 
ATOM     10  C   UNL     1      -2.038   1.737   6.178  0.00  0.00    +0.088 C 
ATOM     11  C   UNL     1      -1.929   2.744   5.066  0.00  0.00    +0.162 C 
ATOM     12  O   UNL     1      -2.079   3.924   5.314  0.00  0.00    -0.292 OA
ATOM     13  H   UNL     1      -1.394  -0.372   1.835  0.00  0.00    +0.152 HD
ENDROOT
BRANCH   9  14
ATOM     14  C   UNL     1      -1.341  -0.536   6.898  0.00  0.00    -0.044 A 
ATOM     15  C   UNL     1      -2.595  -1.059   7.157  0.00  0.00    +0.004 A 
ATOM     16  C   UNL     1      -2.751  -2.032   8.127  0.00  0.00    +0.000 A 
ATOM     17  C   UNL     1      -1.655  -2.475   8.844  0.00  0.00    +0.000 A 
ATOM     18  C   UNL     1      -0.402  -1.949   8.588  0.00  0.00    +0.000 A 
ATOM     19  C   UNL     1      -0.246  -0.979   7.615  0.00  0.00    +0.004 A 
ENDBRANCH   9  14
BRANCH   4  20
ATOM     20  C   UNL     1      -2.942   3.864   2.303  0.00  0.00    -0.032 A 
ATOM     21  C   UNL     1      -3.843   2.956   1.779  0.00  0.00    +0.008 A 
ATOM     22  C   UNL     1      -5.118   3.364   1.432  0.00  0.00    +0.049 A 
ATOM     23  C   UNL     1      -5.490   4.688   1.599  0.00  0.00    +0.158 A 
ATOM     24  C   UNL     1      -4.581   5.603   2.121  0.00  0.00    +0.162 A 
ATOM     25  C   UNL     1      -3.307   5.186   2.472  0.00  0.00    +0.054 A 
BRANCH  24  26
ATOM     26  O   UNL     1      -4.942   6.904   2.286  0.00  0.00    -0.491 OA
ATOM     27  C   UNL     1      -3.957   7.787   2.826  0.00  0.00    +0.277 C 
ENDBRANCH  24  26
BRANCH  23  28
ATOM     28  O   UNL     1      -6.742   5.093   1.253  0.00  0.00    -0.503 OA
ATOM     29  H   UNL     1      -7.036   6.144   1.385  0.00  0.00    +0.292 HD
ENDBRANCH  23  28
ENDBRANCH   4  20
BRANCH   3  30
ATOM     30  C   UNL     1      -0.315   3.807   0.530  0.00  0.00    +0.338 C 
ATOM     31  O   UNL     1       0.256   3.398  -0.463  0.00  0.00    -0.245 OA
BRANCH  30  32
ATOM     32  O   UNL     1      -0.440   5.135   0.738  0.00  0.00    -0.457 OA
BRANCH  32  33
ATOM     33  C   UNL     1       0.123   6.001  -0.249  0.00  0.00    +0.268 C 
BRANCH  33  34
ATOM     34  C   UNL     1      -0.112   7.436   0.150  0.00  0.00    -0.010 A 
ATOM     35  C   UNL     1      -1.255   8.091  -0.268  0.00  0.00    +0.007 A 
ATOM     36  C   UNL     1      -1.472   9.405   0.102  0.00  0.00    +0.000 A 
ATOM     37  C   UNL     1      -0.541  10.067   0.880  0.00  0.00    +0.000 A 
ATOM     38  C   UNL     1       0.604   9.414   1.294  0.00  0.00    +0.000 A 
ATOM     39  C   UNL     1       0.819   8.098   0.928  0.00  0.00    +0.007 A 
ENDBRANCH  33  34
ENDBRANCH  32  33
ENDBRANCH  30  32
ENDBRANCH   3  30
TORSDOF 8
