REMARK  Name = ZINC21130431
REMARK  4 active torsions:
REMARK  status: ('A' for Active; 'I' for Inactive)
REMARK    1  A    between atoms: C_6  and  S_11
REMARK    2  A    between atoms: S_11  and  O_14
REMARK    3  A    between atoms: O_14  and  C_15
REMARK    4  A    between atoms: C_19  and  C_26
REMARK                            x       y       z     vdW  Elec       q    Type
REMARK                         _______ _______ _______ _____ _____    ______ ____
ROOT
ATOM      1  C   UNL     1       4.945  -4.031   2.010  0.00  0.00    +0.160 A 
ATOM      2  C   UNL     1       3.763  -3.724   2.681  0.00  0.00    +0.049 A 
ATOM      3  C   UNL     1       3.053  -4.702   3.314  0.00  0.00    +0.016 A 
ATOM      4  C   UNL     1       3.514  -6.023   3.289  0.00  0.00    +0.029 A 
ATOM      5  C   UNL     1       2.773  -7.094   3.959  0.00  0.00    +0.072 A 
ATOM      6  C   UNL     1       3.272  -8.356   3.898  0.00  0.00    +0.105 A 
ATOM      7  C   UNL     1       4.474  -8.602   3.202  0.00  0.00    +0.338 A 
ATOM      8  O   UNL     1       4.911  -9.738   3.155  0.00  0.00    -0.245 OA
ATOM      9  O   UNL     1       5.149  -7.616   2.590  0.00  0.00    -0.422 OA
ATOM     10  C   UNL     1       4.707  -6.340   2.613  0.00  0.00    +0.143 A 
ATOM     11  C   UNL     1       5.414  -5.334   1.970  0.00  0.00    +0.095 A 
ENDROOT
BRANCH   5  12
ATOM     12  C   UNL     1       1.491  -6.804   4.696  0.00  0.00    +0.418 C 
ATOM     13  F   UNL     1       0.988  -7.990   5.241  0.00  0.00    -0.166 F 
ATOM     14  F   UNL     1       1.741  -5.888   5.723  0.00  0.00    -0.166 F 
ATOM     15  F   UNL     1       0.554  -6.264   3.808  0.00  0.00    -0.166 F 
ENDBRANCH   5  12
BRANCH   1  16
ATOM     16  O   UNL     1       5.641  -3.047   1.386  0.00  0.00    -0.342 OA
BRANCH  16  17
ATOM     17  S   UNL     1       5.231  -2.823  -0.063  0.00  0.00    +0.151 S 
ATOM     18  O   UNL     1       4.984  -4.107  -0.618  0.00  0.00    -0.131 OA
ATOM     19  O   UNL     1       6.181  -1.923  -0.619  0.00  0.00    -0.131 OA
BRANCH  17  25
ATOM     20  C   UNL     1      -0.016   1.357   0.009  0.00  0.00    +0.001 A 
ATOM     21  C   UNL     1       1.169   2.091   0.002  0.00  0.00    +0.001 A 
ATOM     22  C   UNL     1       2.378   1.468  -0.013  0.00  0.00    +0.008 A 
ATOM     23  C   UNL     1       2.438   0.063  -0.021  0.00  0.00    -0.016 A 
ATOM     24  C   UNL     1       3.668  -0.615  -0.036  0.00  0.00    +0.039 A 
ATOM     25  C   UNL     1       3.687  -1.976  -0.043  0.00  0.00    +0.129 A 
ATOM     26  C   UNL     1       2.502  -2.710  -0.036  0.00  0.00    +0.031 A 
ATOM     27  C   UNL     1       1.292  -2.087  -0.021  0.00  0.00    +0.010 A 
ATOM     28  C   UNL     1       1.233  -0.683  -0.013  0.00  0.00    -0.018 A 
ATOM     29  C   UNL     1       0.002  -0.004   0.002  0.00  0.00    +0.008 A 
ENDBRANCH  17  25
ENDBRANCH  16  17
ENDBRANCH   1  16
TORSDOF 4
