REMARK  Name = ZINC04773109
REMARK  15 active torsions:
REMARK  status: ('A' for Active; 'I' for Inactive)
REMARK    1  A    between atoms: C_1  and  C_2
REMARK    2  A    between atoms: C_2  and  C_3
REMARK    3  A    between atoms: C_2  and  C_4
REMARK    4  A    between atoms: C_2  and  O_5
REMARK    5  A    between atoms: O_5  and  C_6
REMARK    6  A    between atoms: N_8  and  C_9
REMARK    7  A    between atoms: C_9  and  C_11
REMARK    8  A    between atoms: C_9  and  C_22
REMARK    9  A    between atoms: C_11  and  C_12
REMARK   10  A    between atoms: N_24  and  C_25
REMARK   11  A    between atoms: C_25  and  C_27
REMARK   12  A    between atoms: C_25  and  C_29
REMARK   13  A    between atoms: C_27  and  S_28
REMARK   14  A    between atoms: C_29  and  O_31
REMARK   15  A    between atoms: O_31  and  C_32
REMARK                            x       y       z     vdW  Elec       q    Type
REMARK                         _______ _______ _______ _____ _____    ______ ____
ROOT
ATOM      1  C   UNL     1      -2.449   1.119   0.020  0.00  0.00    +0.166 C 
ENDROOT
BRANCH   1   4
ATOM      2  C   UNL     1      -0.014   1.211   0.009  0.00  0.00    +0.401 C 
ATOM      3  O   UNL     1       0.002  -0.004   0.002  0.00  0.00    -0.226 OA
ATOM      4  N   UNL     1      -1.191   1.869   0.018  0.00  0.00    -0.269 N 
ATOM      5  H   UNL     1      -1.204   2.839   0.023  0.00  0.00    +0.153 HD
BRANCH   2   6
ATOM      6  O   UNL     1       1.142   1.900   0.001  0.00  0.00    -0.445 OA
BRANCH   6   8
ATOM      7  C   UNL     1       2.405   0.250  -1.269  0.00  0.00    +0.055 C 
ATOM      8  C   UNL     1       2.371   1.126  -0.015  0.00  0.00    +0.107 C 
ATOM      9  C   UNL     1       3.571   2.074  -0.021  0.00  0.00    +0.055 C 
ATOM     10  C   UNL     1       2.429   0.237   1.229  0.00  0.00    +0.055 C 
ENDBRANCH   6   8
ENDBRANCH   2   6
ENDBRANCH   1   4
BRANCH   1  11
ATOM     11  C   UNL     1      -2.523   0.259  -1.215  0.00  0.00    +0.234 C 
ATOM     12  O   UNL     1      -1.511  -0.020  -1.822  0.00  0.00    -0.274 OA
ATOM     13  N   UNL     1      -3.715  -0.202  -1.645  0.00  0.00    -0.300 N 
ATOM     14  H   UNL     1      -4.524   0.020  -1.160  0.00  0.00    +0.150 HD
BRANCH  13  15
ATOM     15  C   UNL     1      -3.786  -1.039  -2.845  0.00  0.00    +0.191 C 
BRANCH  15  16
ATOM     16  C   UNL     1      -5.021  -1.901  -2.784  0.00  0.00    +0.328 C 
ATOM     17  O   UNL     1      -5.765  -1.824  -1.835  0.00  0.00    -0.249 OA
BRANCH  16  18
ATOM     18  O   UNL     1      -5.295  -2.754  -3.784  0.00  0.00    -0.467 OA
ATOM     19  C   UNL     1      -6.501  -3.552  -3.657  0.00  0.00    +0.280 C 
ENDBRANCH  16  18
ENDBRANCH  15  16
BRANCH  15  20
ATOM     20  C   UNL     1      -3.849  -0.146  -4.087  0.00  0.00    +0.099 C 
BRANCH  20  21
ATOM     21  S   UNL     1      -2.299   0.783  -4.241  0.00  0.00    -0.176 S 
ATOM     22  H   UNL     1      -2.472   1.521  -5.353  0.00  0.00    +0.102 HD
ENDBRANCH  20  21
ENDBRANCH  15  20
ENDBRANCH  13  15
ENDBRANCH   1  11
BRANCH   1  23
ATOM     23  C   UNL     1      -2.513   0.232   1.264  0.00  0.00    +0.069 C 
BRANCH  23  24
ATOM     24  C   UNL     1      -2.562   1.098   2.497  0.00  0.00    -0.020 A 
ATOM     25  C   UNL     1      -1.519   1.467   3.256  0.00  0.00    +0.087 A 
ATOM     26  N   UNL     1      -1.949   2.255   4.289  0.00  0.00    -0.360 N 
ATOM     27  H   UNL     1      -1.376   2.644   4.969  0.00  0.00    +0.165 HD
ATOM     28  C   UNL     1      -3.315   2.409   4.222  0.00  0.00    +0.047 A 
ATOM     29  C   UNL     1      -3.760   1.691   3.097  0.00  0.00    +0.003 A 
ATOM     30  C   UNL     1      -5.118   1.668   2.777  0.00  0.00    +0.010 A 
ATOM     31  C   UNL     1      -6.011   2.345   3.560  0.00  0.00    +0.001 A 
ATOM     32  C   UNL     1      -5.578   3.054   4.671  0.00  0.00    +0.002 A 
ATOM     33  C   UNL     1      -4.242   3.090   5.005  0.00  0.00    +0.026 A 
ENDBRANCH  23  24
ENDBRANCH   1  23
TORSDOF 11
