REMARK  Name = ZINC39979655
REMARK  8 active torsions:
REMARK  status: ('A' for Active; 'I' for Inactive)
REMARK    1  A    between atoms: C_1  and  O_2
REMARK    2  A    between atoms: O_2  and  C_3
REMARK    3  A    between atoms: C_6  and  O_31
REMARK    4  A    between atoms: C_7  and  N_9
REMARK    5  A    between atoms: N_9  and  C_10
REMARK    6  A    between atoms: N_13  and  S_14
REMARK    7  A    between atoms: S_14  and  C_17
REMARK    8  A    between atoms: O_31  and  C_32
REMARK                            x       y       z     vdW  Elec       q    Type
REMARK                         _______ _______ _______ _____ _____    ______ ____
ROOT
ATOM      1  C   UNL     1       0.823  -4.815  -1.175  0.00  0.00    +0.237 C 
ATOM      2  C   UNL     1       1.928  -5.763  -0.764  0.00  0.00    +0.192 C 
ATOM      3  N   UNL     1       3.086  -5.304  -0.391  0.00  0.00    -0.110 NA
ATOM      4  N   UNL     1       1.696  -7.085  -0.790  0.00  0.00    -0.226 NA
ATOM      5  C   UNL     1       0.532  -7.574  -1.164  0.00  0.00    +0.089 A 
ATOM      6  C   UNL     1       0.322  -8.976  -1.180  0.00  0.00    +0.030 A 
ATOM      7  C   UNL     1      -0.870  -9.484  -1.563  0.00  0.00    +0.002 A 
ATOM      8  C   UNL     1      -1.948  -8.675  -1.960  0.00  0.00    +0.002 A 
ATOM      9  C   UNL     1      -1.855  -7.327  -1.982  0.00  0.00    +0.027 A 
ATOM     10  C   UNL     1      -0.590  -6.696  -1.579  0.00  0.00    +0.063 A 
ATOM     11  N   UNL     1      -0.463  -5.399  -1.587  0.00  0.00    -0.359 N 
ATOM     12  H   UNL     1      -1.201  -4.831  -1.859  0.00  0.00    +0.162 HD
ENDROOT
BRANCH   3  13
ATOM     13  S   UNL     1       4.287  -6.352   0.057  0.00  0.00    +0.100 S 
ATOM     14  O   UNL     1       3.847  -6.989   1.248  0.00  0.00    -0.146 OA
ATOM     15  O   UNL     1       4.645  -7.081  -1.109  0.00  0.00    -0.146 OA
BRANCH  13  16
ATOM     16  C   UNL     1       5.691  -5.380   0.493  0.00  0.00    +0.113 A 
ATOM     17  C   UNL     1       6.622  -5.039  -0.470  0.00  0.00    +0.029 A 
ATOM     18  C   UNL     1       7.723  -4.277  -0.128  0.00  0.00    +0.002 A 
ATOM     19  C   UNL     1       7.893  -3.856   1.178  0.00  0.00    +0.000 A 
ATOM     20  C   UNL     1       6.962  -4.196   2.141  0.00  0.00    +0.002 A 
ATOM     21  C   UNL     1       5.858  -4.955   1.798  0.00  0.00    +0.029 A 
ENDBRANCH  13  16
ENDBRANCH   3  13
BRANCH   1  22
ATOM     22  N   UNL     1       1.322  -4.002  -2.286  0.00  0.00    -0.315 N 
ATOM     23  H   UNL     1       1.721  -4.430  -3.060  0.00  0.00    +0.149 HD
BRANCH  22  28
ATOM     24  C   UNL     1       0.437  -0.617  -1.143  0.00  0.00    +0.122 A 
ATOM     25  C   UNL     1       1.030   0.157  -2.129  0.00  0.00    +0.049 A 
ATOM     26  C   UNL     1       1.719  -0.446  -3.165  0.00  0.00    +0.051 A 
ATOM     27  C   UNL     1       1.818  -1.827  -3.221  0.00  0.00    +0.141 A 
ATOM     28  C   UNL     1       1.224  -2.607  -2.232  0.00  0.00    +0.075 A 
ATOM     29  C   UNL     1       0.538  -1.999  -1.191  0.00  0.00    +0.072 A 
BRANCH  24  31
ATOM     30  C   UNL     1      -0.305   1.407  -0.140  0.00  0.00    +0.277 C 
ATOM     31  O   UNL     1      -0.240  -0.020  -0.126  0.00  0.00    -0.495 OA
ENDBRANCH  24  31
BRANCH  27  32
ATOM     32  O   UNL     1       2.495  -2.420  -4.241  0.00  0.00    -0.493 OA
ATOM     33  C   UNL     1       3.079  -1.558  -5.220  0.00  0.00    +0.277 C 
ENDBRANCH  27  32
ENDBRANCH  22  28
ENDBRANCH   1  22
TORSDOF 6
