REMARK  Name = ZINC64198851
REMARK  10 active torsions:
REMARK  status: ('A' for Active; 'I' for Inactive)
REMARK    1  A    between atoms: CD1_1  and  CG1_2
REMARK    2  A    between atoms: CG1_2  and  CB_3
REMARK    3  A    between atoms: CB_3  and  CG2_5
REMARK    4  A    between atoms: CB_3  and  CA_6
REMARK    5  A    between atoms: CA_6  and  C_8
REMARK    6  A    between atoms: CA_6  and  N_17
REMARK    7  A    between atoms: N_10  and  CA_11
REMARK    8  A    between atoms: CA_11  and  CB_13
REMARK    9  A    between atoms: CA_11  and  C_14
REMARK   10  A    between atoms: C_18  and  C_20
REMARK                            x       y       z     vdW  Elec       q    Type
REMARK                         _______ _______ _______ _____ _____    ______ ____
ROOT
ATOM      1  C   UNK A   0      -1.626  -3.728  -3.960  0.00  0.00    +0.167 C 
ATOM      2  C   UNK A   0      -1.314  -5.210  -3.677  0.00  0.00    +0.065 C 
ATOM      3  C   UNK A   0      -1.052  -5.868  -5.008  0.00  0.00    -0.034 C 
ATOM      4  C   UNK A   0      -1.569  -6.971  -5.543  0.00  0.00    -0.001 A 
ATOM      5  C   UNK A   0      -2.494  -7.979  -4.999  0.00  0.00    +0.010 A 
ATOM      6  C   UNK A   0      -2.838  -8.991  -5.839  0.00  0.00    +0.001 A 
ATOM      7  C   UNK A   0      -2.360  -9.101  -7.148  0.00  0.00    +0.002 A 
ATOM      8  C   UNK A   0      -1.501  -8.224  -7.727  0.00  0.00    +0.026 A 
ATOM      9  C   UNK A   0      -1.063  -7.119  -6.940  0.00  0.00    +0.043 A 
ATOM     10  N   UNK A   0      -0.242  -6.153  -7.230  0.00  0.00    -0.375 N 
ATOM     11  C   UNK A   0      -0.084  -5.311  -6.043  0.00  0.00    +0.131 C 
ATOM     12  C   UNK A   0      -0.488  -3.862  -6.309  0.00  0.00    +0.134 C 
ATOM     13  N   UNK A   0      -1.616  -3.529  -5.415  0.00  0.00    -0.276 N 
ATOM     14  C   UNK A   0      -2.623  -3.033  -6.161  0.00  0.00    +0.248 C 
ATOM     15  O   UNK A   0      -3.646  -2.550  -5.717  0.00  0.00    -0.270 OA
ATOM     16  C   UNK A   0      -2.303  -3.163  -7.584  0.00  0.00    +0.042 A 
ATOM     17  C   UNK A   0      -0.972  -3.674  -7.709  0.00  0.00    -0.013 A 
ATOM     18  C   UNK A   0      -0.375  -3.906  -8.928  0.00  0.00    +0.006 A 
ATOM     19  C   UNK A   0      -1.121  -3.606 -10.064  0.00  0.00    +0.000 A 
ATOM     20  C   UNK A   0      -2.401  -3.096  -9.981  0.00  0.00    +0.001 A 
ATOM     21  C   UNK A   0      -3.058  -2.861  -8.720  0.00  0.00    +0.013 A 
ATOM     22  H   UNK A   0       0.192  -6.014  -8.086  0.00  0.00    +0.160 HD
ENDROOT
BRANCH   1  24
ATOM     23  N   ALA A   1      -0.400  -2.886  -1.984  0.00  0.00    -0.302 N 
ATOM     24  C   UNK A   0      -0.578  -2.855  -3.320  0.00  0.00    +0.235 C 
ATOM     25  O   UNK A   0       0.105  -2.126  -4.006  0.00  0.00    -0.274 OA
ATOM     26  H   ALA A   1      -0.947  -3.470  -1.435  0.00  0.00    +0.150 HD
BRANCH  23  27
ATOM     27  CA  ALA A   1       0.619  -2.037  -1.361  0.00  0.00    +0.162 C 
BRANCH  27  28
ATOM     28  C   ALA A   1       1.052  -2.650  -0.054  0.00  0.00    +0.234 C 
ATOM     29  O   ALA A   1       0.309  -3.405   0.537  0.00  0.00    -0.274 OA
ATOM     30  N   ALA A   1       2.264  -2.358   0.458  0.00  0.00    -0.301 N 
ATOM     31  H   ALA A   1       2.884  -1.808  -0.047  0.00  0.00    +0.150 HD
BRANCH  30  32
ATOM     32  CA  ALA A   1       2.646  -2.873   1.775  0.00  0.00    +0.183 C 
ATOM     33  CB  ALA A   1       3.211  -4.287   1.627  0.00  0.00    +0.040 C 
BRANCH  32  34
ATOM     34  C   ALA A   1       3.693  -1.974   2.381  0.00  0.00    +0.376 C 
ATOM     35  O   ALA A   1       4.085  -0.995   1.768  0.00  0.00    -0.244 OA
ATOM     36  OXT ALA A   1       4.150  -2.227   3.483  0.00  0.00    -0.244 OA
ENDBRANCH  32  34
ENDBRANCH  30  32
ENDBRANCH  27  28
BRANCH  27  37
ATOM     37  CB  ALA A   1       0.036  -0.646  -1.105  0.00  0.00    +0.015 C 
ATOM     38  CG2 ALA A   1      -1.253  -0.775  -0.291  0.00  0.00    +0.010 C 
BRANCH  37  40
ATOM     39  CD1 ALA A   1      -0.734   1.469  -2.189  0.00  0.00    +0.004 C 
ATOM     40  CG1 ALA A   1      -0.269   0.033  -2.441  0.00  0.00    +0.002 C 
ENDBRANCH  37  40
ENDBRANCH  27  37
ENDBRANCH  23  27
ENDBRANCH   1  24
TORSDOF 7
