REMARK  Name = ZINC23428748
REMARK  4 active torsions:
REMARK  status: ('A' for Active; 'I' for Inactive)
REMARK    1  A    between atoms: C_6  and  C_7
REMARK    2  A    between atoms: C_7  and  N_8
REMARK    3  A    between atoms: C_12  and  C_14
REMARK    4  A    between atoms: C_17  and  C_19
REMARK                            x       y       z     vdW  Elec       q    Type
REMARK                         _______ _______ _______ _____ _____    ______ ____
ROOT
ATOM      1  N   UNL     1      -2.234   5.573  -0.924  0.00  0.00    +0.387 N 
ATOM      2  C   UNL     1      -3.450   5.893  -0.147  0.00  0.00    -0.078 C 
ATOM      3  C   UNL     1      -2.929   6.592   1.133  0.00  0.00    -0.020 C 
ATOM      4  C   UNL     1      -1.626   5.796   1.420  0.00  0.00    -0.012 C 
ATOM      5  C   UNL     1      -1.092   5.488   0.005  0.00  0.00    -0.030 C 
ATOM      6  H   UNL     1      -2.047   6.362  -1.668  0.00  0.00    -0.080 HD
ENDROOT
BRANCH   5   7
ATOM      7  C   UNL     1      -0.505   4.101  -0.030  0.00  0.00    -0.023 A 
ATOM      8  C   UNL     1       0.710   3.710  -0.498  0.00  0.00    +0.010 A 
ATOM      9  C   UNL     1       1.056   2.383  -0.437  0.00  0.00    +0.021 A 
ATOM     10  C   UNL     1       0.126   1.512   0.107  0.00  0.00    +0.074 A 
ATOM     11  S   UNL     1      -1.217   2.615   0.510  0.00  0.00    -0.090 S 
BRANCH  10  12
ATOM     12  C   UNL     1       0.218   0.062   0.297  0.00  0.00    +0.248 C 
ATOM     13  O   UNL     1       1.222  -0.534  -0.047  0.00  0.00    -0.270 OA
ATOM     14  N   UNL     1      -0.808  -0.612   0.852  0.00  0.00    -0.325 N 
ATOM     15  H   UNL     1      -0.739  -1.701   0.995  0.00  0.00    +0.145 HD
ATOM     16  H   UNL     1      -1.716  -0.074   1.163  0.00  0.00    +0.145 HD
ENDBRANCH  10  12
ENDBRANCH   5   7
BRANCH   1  17
ATOM     17  C   UNL     1      -2.400   4.318  -1.670  0.00  0.00    -0.042 C 
BRANCH  17  23
ATOM     18  C   UNL     1      -3.495   4.898  -3.844  0.00  0.00    +0.005 A 
ATOM     19  C   UNL     1      -4.608   4.990  -4.658  0.00  0.00    +0.049 A 
ATOM     20  C   UNL     1      -5.851   4.602  -4.182  0.00  0.00    +0.162 A 
ATOM     21  C   UNL     1      -5.973   4.116  -2.885  0.00  0.00    +0.162 A 
ATOM     22  C   UNL     1      -4.852   4.021  -2.075  0.00  0.00    +0.051 A 
ATOM     23  C   UNL     1      -3.617   4.417  -2.554  0.00  0.00    -0.060 A 
ATOM     24  O   UNL     1      -7.183   3.722  -2.400  0.00  0.00    -0.485 OA
ATOM     25  C   UNL     1      -8.340   4.179  -3.109  0.00  0.00    +0.270 C 
ATOM     26  C   UNL     1      -8.101   3.960  -4.609  0.00  0.00    +0.270 C 
ATOM     27  O   UNL     1      -6.940   4.706  -4.992  0.00  0.00    -0.485 OA
ENDBRANCH  17  23
ENDBRANCH   1  17
TORSDOF 4
