REMARK  Name = ZINC15106433
REMARK  9 active torsions:
REMARK  status: ('A' for Active; 'I' for Inactive)
REMARK    1  A    between atoms: C_1  and  C_2
REMARK    2  A    between atoms: C_2  and  C_3
REMARK    3  A    between atoms: C_2  and  C_4
REMARK    4  A    between atoms: C_2  and  C_5
REMARK    5  A    between atoms: C_14  and  C_20
REMARK    6  A    between atoms: C_23  and  O_28
REMARK    7  A    between atoms: C_24  and  O_26
REMARK    8  A    between atoms: O_26  and  C_27
REMARK    9  A    between atoms: O_28  and  C_29
REMARK                            x       y       z     vdW  Elec       q    Type
REMARK                         _______ _______ _______ _____ _____    ______ ____
ROOT
ATOM      1  C   UNL     1      -4.936   0.183  -4.134  0.00  0.00    -0.000 C 
ATOM      2  C   UNL     1      -3.840   1.182  -4.516  0.00  0.00    +0.009 C 
ATOM      3  C   UNL     1      -2.631   1.010  -3.594  0.00  0.00    +0.036 C 
ATOM      4  C   UNL     1      -3.103   1.085  -2.144  0.00  0.00    -0.032 A 
ATOM      5  C   UNL     1      -4.414   0.896  -1.841  0.00  0.00    -0.005 A 
ATOM      6  S   UNL     1      -4.476   1.075  -0.076  0.00  0.00    -0.078 S 
ATOM      7  C   UNL     1      -2.755   1.393   0.181  0.00  0.00    +0.076 A 
ATOM      8  C   UNL     1      -2.225   1.347  -1.081  0.00  0.00    -0.008 A 
ATOM      9  C   UNL     1      -0.727   1.580  -1.249  0.00  0.00    +0.060 C 
ATOM     10  C   UNL     1      -0.013   1.086   0.008  0.00  0.00    +0.109 C 
ATOM     11  C   UNL     1      -0.691   1.558   1.262  0.00  0.00    +0.218 C 
ATOM     12  O   UNL     1      -0.021   1.872   2.223  0.00  0.00    -0.275 OA
ATOM     13  N   UNL     1      -2.041   1.638   1.339  0.00  0.00    -0.280 N 
ATOM     14  C   UNL     1      -5.536   0.604  -2.784  0.00  0.00    +0.046 C 
ATOM     15  H   UNL     1      -2.489   1.858   2.171  0.00  0.00    +0.155 HD
ENDROOT
BRANCH   9  16
ATOM     16  C   UNL     1      -0.462   3.051  -1.436  0.00  0.00    -0.036 A 
ATOM     17  C   UNL     1      -0.846   3.951  -0.459  0.00  0.00    +0.008 A 
ATOM     18  C   UNL     1      -0.605   5.302  -0.626  0.00  0.00    +0.050 A 
ATOM     19  C   UNL     1       0.024   5.757  -1.774  0.00  0.00    +0.162 A 
ATOM     20  C   UNL     1       0.411   4.851  -2.757  0.00  0.00    +0.162 A 
ATOM     21  C   UNL     1       0.171   3.498  -2.581  0.00  0.00    +0.053 A 
BRANCH  20  22
ATOM     22  O   UNL     1       1.028   5.293  -3.886  0.00  0.00    -0.491 OA
ATOM     23  C   UNL     1       1.398   4.306  -4.851  0.00  0.00    +0.277 C 
ENDBRANCH  20  22
BRANCH  19  24
ATOM     24  O   UNL     1       0.262   7.085  -1.940  0.00  0.00    -0.491 OA
ATOM     25  C   UNL     1      -0.163   7.957  -0.890  0.00  0.00    +0.277 C 
ENDBRANCH  19  24
ENDBRANCH   9  16
BRANCH   1  27
ATOM     26  C   UNL     1      -6.619   1.591  -5.328  0.00  0.00    +0.011 C 
ATOM     27  C   UNL     1      -6.028   0.185  -5.205  0.00  0.00    -0.035 C 
ATOM     28  C   UNL     1      -5.427  -0.235  -6.547  0.00  0.00    +0.011 C 
ATOM     29  C   UNL     1      -7.131  -0.799  -4.810  0.00  0.00    +0.011 C 
ENDBRANCH   1  27
TORSDOF 4
