REMARK  Name = ZINC22681784
REMARK  13 active torsions:
REMARK  status: ('A' for Active; 'I' for Inactive)
REMARK    1  A    between atoms: C_1  and  C_2
REMARK    2  A    between atoms: C_2  and  N_3
REMARK    3  A    between atoms: N_3  and  C_4
REMARK    4  A    between atoms: N_3  and  C_6
REMARK    5  A    between atoms: C_4  and  C_5
REMARK    6  A    between atoms: C_6  and  C_8
REMARK    7  A    between atoms: C_6  and  C_24
REMARK    8  A    between atoms: C_8  and  N_9
REMARK    9  A    between atoms: C_10  and  C_12
REMARK   10  A    between atoms: C_12  and  C_13
REMARK   11  A    between atoms: C_13  and  C_14
REMARK   12  A    between atoms: C_17  and  S_20
REMARK   13  A    between atoms: S_20  and  N_23
REMARK                            x       y       z     vdW  Elec       q    Type
REMARK                         _______ _______ _______ _____ _____    ______ ____
ROOT
ATOM      1  N   UNL     1      -0.929   2.336  -3.722  0.00  0.00    -0.317 N 
ATOM      2  C   UNL     1      -0.530   2.247  -2.438  0.00  0.00    +0.213 C 
ATOM      3  O   UNL     1       0.542   1.750  -2.169  0.00  0.00    -0.276 OA
ATOM      4  H   UNL     1      -1.902   2.786  -3.967  0.00  0.00    +0.149 HD
ENDROOT
BRANCH   1   5
ATOM      5  C   UNL     1      -0.066   1.831  -4.793  0.00  0.00    +0.093 C 
BRANCH   5   6
ATOM      6  C   UNL     1      -0.810   1.911  -6.128  0.00  0.00    -0.019 C 
BRANCH   6   7
ATOM      7  C   UNL     1       0.088   1.416  -7.233  0.00  0.00    -0.041 A 
ATOM      8  C   UNL     1      -0.123   0.168  -7.788  0.00  0.00    +0.003 A 
ATOM      9  C   UNL     1       0.697  -0.284  -8.805  0.00  0.00    +0.000 A 
ATOM     10  C   UNL     1       1.734   0.508  -9.261  0.00  0.00    +0.001 A 
ATOM     11  C   UNL     1       1.949   1.754  -8.703  0.00  0.00    +0.020 A 
ATOM     12  C   UNL     1       1.126   2.209  -7.689  0.00  0.00    +0.043 A 
ATOM     13 CL   UNL     1       1.395   3.774  -6.987  0.00  0.00    -0.083 Cl
ENDBRANCH   6   7
BRANCH   6  14
ATOM     14  N   UNL     1      -2.017   1.076  -6.066  0.00  0.00    +0.385 N 
ATOM     15  H   UNL     1      -2.132   0.576  -7.040  0.00  0.00    -0.081 HD
BRANCH  14  17
ATOM     16  C   UNL     1      -0.985  -1.087  -5.559  0.00  0.00    -0.017 C 
ATOM     17  C   UNL     1      -1.885   0.035  -5.038  0.00  0.00    -0.081 C 
ENDBRANCH  14  17
BRANCH  14  18
ATOM     18  C   UNL     1      -3.213   1.896  -5.835  0.00  0.00    -0.081 C 
ATOM     19  C   UNL     1      -3.579   2.638  -7.122  0.00  0.00    -0.017 C 
ENDBRANCH  14  18
ENDBRANCH   6  14
ENDBRANCH   5   6
ENDBRANCH   1   5
BRANCH   2  20
ATOM     20  C   UNL     1      -1.418   2.766  -1.336  0.00  0.00    +0.100 C 
BRANCH  20  21
ATOM     21  C   UNL     1      -0.736   2.546   0.015  0.00  0.00    +0.044 C 
BRANCH  21  22
ATOM     22  C   UNL     1      -1.624   3.065   1.117  0.00  0.00    -0.047 A 
ATOM     23  C   UNL     1      -1.507   4.376   1.539  0.00  0.00    +0.005 A 
ATOM     24  C   UNL     1      -2.325   4.853   2.546  0.00  0.00    +0.029 A 
ATOM     25  C   UNL     1      -3.252   4.016   3.138  0.00  0.00    +0.105 A 
ATOM     26  C   UNL     1      -3.365   2.704   2.720  0.00  0.00    +0.029 A 
ATOM     27  C   UNL     1      -2.551   2.228   1.709  0.00  0.00    +0.005 A 
BRANCH  25  28
ATOM     28  S   UNL     1      -4.291   4.623   4.425  0.00  0.00    +0.056 S 
ATOM     29  O   UNL     1      -4.364   6.032   4.258  0.00  0.00    -0.153 OA
ATOM     30  O   UNL     1      -5.447   3.797   4.438  0.00  0.00    -0.153 OA
BRANCH  28  31
ATOM     31  N   UNL     1      -3.503   4.357   5.857  0.00  0.00    -0.204 NA
ATOM     32  H   UNL     1      -4.122   4.724   6.690  0.00  0.00    +0.144 HD
ATOM     33  H   UNL     1      -2.542   4.892   5.851  0.00  0.00    +0.144 HD
ENDBRANCH  28  31
ENDBRANCH  25  28
ENDBRANCH  21  22
ENDBRANCH  20  21
ENDBRANCH   2  20
TORSDOF 11
