REMARK  Name = ZINC19168137
REMARK  15 active torsions:
REMARK  status: ('A' for Active; 'I' for Inactive)
REMARK    1  A    between atoms: C_1  and  C_2
REMARK    2  A    between atoms: C_2  and  O_3
REMARK    3  A    between atoms: O_3  and  C_4
REMARK    4  A    between atoms: C_7  and  S_10
REMARK    5  A    between atoms: S_10  and  C_11
REMARK    6  A    between atoms: C_11  and  C_12
REMARK    7  A    between atoms: N_14  and  C_15
REMARK    8  A    between atoms: N_14  and  C_20
REMARK    9  A    between atoms: C_15  and  C_16
REMARK   10  A    between atoms: C_16  and  C_17
REMARK   11  A    between atoms: C_17  and  C_18
REMARK   12  A    between atoms: C_17  and  C_19
REMARK   13  A    between atoms: C_21  and  N_36
REMARK   14  A    between atoms: N_22  and  C_29
REMARK   15  A    between atoms: C_29  and  C_30
REMARK                            x       y       z     vdW  Elec       q    Type
REMARK                         _______ _______ _______ _____ _____    ______ ____
ROOT
ATOM      1  C   UNL     1       2.936   5.885   0.258  0.00  0.00    +0.230 C 
ATOM      2  O   UNL     1       2.000   6.627   0.472  0.00  0.00    -0.274 OA
ATOM      3  N   UNL     1       4.168   6.396   0.053  0.00  0.00    -0.264 N 
ENDROOT
BRANCH   3   4
ATOM      4  C   UNL     1       4.351   7.793  -0.009  0.00  0.00    +0.140 A 
ATOM      5  C   UNL     1       3.756   8.536  -1.008  0.00  0.00    +0.128 A 
ATOM      6  N   UNL     1       3.950   9.897  -1.039  0.00  0.00    -0.276 N 
ATOM      7  C   UNL     1       4.719  10.497  -0.111  0.00  0.00    +0.331 A 
ATOM      8  O   UNL     1       4.881  11.701  -0.159  0.00  0.00    -0.246 OA
ATOM      9  N   UNL     1       5.311   9.789   0.867  0.00  0.00    -0.273 N 
ATOM     10  H   UNL     1       5.878  10.258   1.543  0.00  0.00    +0.173 HD
ATOM     11  C   UNL     1       5.149   8.453   0.945  0.00  0.00    +0.277 A 
ATOM     12  O   UNL     1       5.691   7.821   1.836  0.00  0.00    -0.266 OA
BRANCH   5  13
ATOM     13  N   UNL     1       2.975   7.923  -1.958  0.00  0.00    -0.343 N 
ATOM     14  H   UNL     1       2.926   6.955  -1.994  0.00  0.00    +0.144 HD
ATOM     15  H   UNL     1       2.473   8.459  -2.592  0.00  0.00    +0.144 HD
ENDBRANCH   5  13
BRANCH   6  16
ATOM     16  C   UNL     1       3.320  10.699  -2.091  0.00  0.00    +0.163 C 
BRANCH  16  17
ATOM     17  C   UNL     1       4.245  10.787  -3.277  0.00  0.00    -0.028 A 
ATOM     18  C   UNL     1       5.159  11.821  -3.365  0.00  0.00    +0.005 A 
ATOM     19  C   UNL     1       6.011  11.899  -4.451  0.00  0.00    +0.000 A 
ATOM     20  C   UNL     1       5.942  10.950  -5.454  0.00  0.00    +0.000 A 
ATOM     21  C   UNL     1       5.024   9.919  -5.368  0.00  0.00    +0.000 A 
ATOM     22  C   UNL     1       4.176   9.838  -4.280  0.00  0.00    +0.005 A 
ENDBRANCH  16  17
ENDBRANCH   6  16
ENDBRANCH   3   4
BRANCH   1  23
ATOM     23  C   UNL     1       2.723   4.394   0.220  0.00  0.00    +0.170 C 
BRANCH  23  24
ATOM     24  S   UNL     1       0.974   4.025   0.529  0.00  0.00    -0.116 S 
BRANCH  24  28
ATOM     25  C   UNL     1       0.755  -0.496   0.336  0.00  0.00    +0.121 A 
ATOM     26  C   UNL     1      -0.391   0.243   0.589  0.00  0.00    +0.047 A 
ATOM     27  C   UNL     1      -0.326   1.621   0.648  0.00  0.00    +0.018 A 
ATOM     28  C   UNL     1       0.888   2.267   0.454  0.00  0.00    +0.009 A 
ATOM     29  C   UNL     1       2.036   1.526   0.201  0.00  0.00    +0.018 A 
ATOM     30  C   UNL     1       1.968   0.148   0.142  0.00  0.00    +0.047 A 
BRANCH  25  31
ATOM     31  O   UNL     1       0.689  -1.853   0.278  0.00  0.00    -0.492 OA
BRANCH  31  33
ATOM     32  C   UNL     1       1.638  -4.057  -0.014  0.00  0.00    +0.048 C 
ATOM     33  C   UNL     1       1.908  -2.551   0.013  0.00  0.00    +0.225 C 
ENDBRANCH  31  33
ENDBRANCH  25  31
ENDBRANCH  24  28
ENDBRANCH  23  24
ENDBRANCH   1  23
BRANCH   3  34
ATOM     34  C   UNL     1       5.316   5.499  -0.106  0.00  0.00    +0.114 C 
BRANCH  34  35
ATOM     35  C   UNL     1       5.519   5.188  -1.590  0.00  0.00    +0.022 C 
BRANCH  35  36
ATOM     36  C   UNL     1       6.717   4.252  -1.756  0.00  0.00    -0.016 C 
ATOM     37  C   UNL     1       6.407   2.905  -1.099  0.00  0.00    +0.007 C 
ATOM     38  C   UNL     1       6.998   4.040  -3.245  0.00  0.00    +0.007 C 
ENDBRANCH  35  36
ENDBRANCH  34  35
ENDBRANCH   3  34
TORSDOF 12
