REMARK  Name = ZINC39918046
REMARK  5 active torsions:
REMARK  status: ('A' for Active; 'I' for Inactive)
REMARK    1  A    between atoms: C_1  and  C_2
REMARK    2  A    between atoms: C_6  and  N_25
REMARK    3  A    between atoms: C_7  and  N_8
REMARK    4  A    between atoms: C_9  and  C_11
REMARK    5  A    between atoms: N_16  and  C_18
REMARK                            x       y       z     vdW  Elec       q    Type
REMARK                         _______ _______ _______ _____ _____    ______ ____
ROOT
ATOM      1  N   UNL     1      -0.205  -0.002   2.420  0.00  0.00    -0.283 N 
ATOM      2  C   UNL     1      -0.398  -0.678   3.570  0.00  0.00    +0.222 C 
ATOM      3  O   UNL     1      -0.582  -1.877   3.545  0.00  0.00    -0.275 OA
ATOM      4  H   UNL     1      -0.106   0.963   2.436  0.00  0.00    +0.155 HD
ENDROOT
BRANCH   1  11
ATOM      5  C   UNL     1       1.680  -2.118   2.162  0.00  0.00    +0.046 C 
ATOM      6  C   UNL     1       0.757  -1.731   1.035  0.00  0.00    -0.027 A 
ATOM      7  C   UNL     1       0.807  -2.413  -0.165  0.00  0.00    +0.005 A 
ATOM      8  C   UNL     1      -0.039  -2.059  -1.199  0.00  0.00    +0.003 A 
ATOM      9  C   UNL     1      -0.938  -1.020  -1.036  0.00  0.00    +0.034 A 
ATOM     10  C   UNL     1      -0.994  -0.335   0.161  0.00  0.00    +0.148 A 
ATOM     11  C   UNL     1      -0.148  -0.692   1.204  0.00  0.00    +0.067 A 
BRANCH  10  12
ATOM     12  N   UNL     1      -1.956   0.777   0.334  0.00  0.00    +0.058 N 
ATOM     13  O   UNL     1      -2.754   1.027  -0.538  0.00  0.00    -0.126 OA
ATOM     14  O   UNL     1      -1.942   1.435   1.349  0.00  0.00    -0.126 OA
ENDBRANCH  10  12
ENDBRANCH   1  11
BRANCH   2  15
ATOM     15  C   UNL     1      -0.387   0.055   4.886  0.00  0.00    +0.102 C 
ATOM     16  C   UNL     1       1.007   0.661   5.170  0.00  0.00    +0.110 C 
ATOM     17  C   UNL     1       1.187   0.495   6.663  0.00  0.00    +0.221 C 
ATOM     18  O   UNL     1       2.012   1.081   7.332  0.00  0.00    -0.275 OA
ATOM     19  N   UNL     1       0.300  -0.395   7.139  0.00  0.00    -0.271 N 
ATOM     20  C   UNL     1      -0.550  -0.927   6.067  0.00  0.00    +0.127 C 
BRANCH  19  21
ATOM     21  C   UNL     1       0.198  -0.766   8.485  0.00  0.00    +0.036 A 
ATOM     22  C   UNL     1       0.961  -0.115   9.446  0.00  0.00    +0.024 A 
ATOM     23  C   UNL     1       0.859  -0.482  10.773  0.00  0.00    +0.017 A 
ATOM     24  C   UNL     1      -0.003  -1.499  11.146  0.00  0.00    +0.018 A 
ATOM     25  C   UNL     1      -0.764  -2.149  10.191  0.00  0.00    +0.017 A 
ATOM     26  C   UNL     1      -0.669  -1.782   8.863  0.00  0.00    +0.024 A 
ATOM     27 BR   UNL     1      -0.139  -2.000  12.964  0.00  0.00    -0.050 Br
ENDBRANCH  19  21
ENDBRANCH   2  15
TORSDOF 4
