REMARK  Name = ZINC16222914
REMARK  8 active torsions:
REMARK  status: ('A' for Active; 'I' for Inactive)
REMARK    1  A    between atoms: C_1  and  C_2
REMARK    2  A    between atoms: C_5  and  N_9
REMARK    3  A    between atoms: C_6  and  C_8
REMARK    4  A    between atoms: C_10  and  S_14
REMARK    5  A    between atoms: S_14  and  C_15
REMARK    6  A    between atoms: C_15  and  C_16
REMARK    7  A    between atoms: C_20  and  C_27
REMARK    8  A    between atoms: C_23  and  C_26
REMARK                            x       y       z     vdW  Elec       q    Type
REMARK                         _______ _______ _______ _____ _____    ______ ____
ROOT
ATOM      1  N   UNL     1       0.192  -0.298   0.262  0.00  0.00    -0.187 N 
ATOM      2  C   UNL     1       0.335   1.038   0.489  0.00  0.00    +0.214 A 
ATOM      3  N   UNL     1       1.627   1.283   0.534  0.00  0.00    -0.101 NA
ATOM      4  N   UNL     1       2.297   0.203   0.352  0.00  0.00    -0.022 NA
ATOM      5  N   UNL     1       1.503  -0.798   0.180  0.00  0.00    -0.038 NA
ENDROOT
BRANCH   1  10
ATOM      6  C   UNL     1      -4.652  -3.213  -0.243  0.00  0.00    +0.044 C 
ATOM      7  C   UNL     1      -3.366  -2.439  -0.109  0.00  0.00    -0.050 A 
ATOM      8  C   UNL     1      -3.198  -1.557   0.943  0.00  0.00    +0.005 A 
ATOM      9  C   UNL     1      -2.019  -0.850   1.071  0.00  0.00    +0.028 A 
ATOM     10  C   UNL     1      -1.005  -1.018   0.137  0.00  0.00    +0.073 A 
ATOM     11  C   UNL     1      -1.177  -1.904  -0.917  0.00  0.00    -0.025 A 
ATOM     12  C   UNL     1      -2.357  -2.612  -1.038  0.00  0.00    +0.008 A 
ATOM     13  C   UNL     1      -0.077  -2.092  -1.930  0.00  0.00    +0.046 C 
ENDBRANCH   1  10
BRANCH   2  14
ATOM     14  S   UNL     1      -0.963   2.215   0.680  0.00  0.00    -0.075 S 
BRANCH  14  15
ATOM     15  C   UNL     1       0.011   3.717   0.941  0.00  0.00    +0.173 C 
BRANCH  15  16
ATOM     16  C   UNL     1      -0.915   4.890   1.133  0.00  0.00    +0.226 C 
ATOM     17  O   UNL     1      -2.117   4.726   1.097  0.00  0.00    -0.275 OA
ATOM     18  N   UNL     1      -0.410   6.121   1.345  0.00  0.00    -0.300 N 
ATOM     19  C   UNL     1       1.043   6.335   1.398  0.00  0.00    +0.111 C 
ATOM     20  C   UNL     1       1.410   7.442   0.398  0.00  0.00    +0.004 C 
ATOM     21  C   UNL     1       0.580   8.691   0.702  0.00  0.00    +0.009 C 
ATOM     22  C   UNL     1      -0.907   8.370   0.539  0.00  0.00    +0.004 C 
ATOM     23  C   UNL     1      -1.301   7.274   1.534  0.00  0.00    +0.111 C 
ATOM     24  C   UNL     1      -1.171   7.883  -0.887  0.00  0.00    +0.009 C 
ATOM     25  C   UNL     1       2.898   7.773   0.529  0.00  0.00    +0.009 C 
ENDBRANCH  15  16
ENDBRANCH  14  15
ENDBRANCH   2  14
TORSDOF 4
