REMARK  Name = ZINC00759400
REMARK  8 active torsions:
REMARK  status: ('A' for Active; 'I' for Inactive)
REMARK    1  A    between atoms: C_1  and  C_2
REMARK    2  A    between atoms: C_2  and  O_3
REMARK    3  A    between atoms: O_3  and  C_4
REMARK    4  A    between atoms: C_4  and  C_6
REMARK    5  A    between atoms: C_7  and  C_32
REMARK    6  A    between atoms: C_14  and  C_15
REMARK    7  A    between atoms: C_18  and  O_21
REMARK    8  A    between atoms: C_23  and  C_25
REMARK                            x       y       z     vdW  Elec       q    Type
REMARK                         _______ _______ _______ _____ _____    ______ ____
ROOT
ATOM      1  C   UNL     1       0.118  -1.275   1.468  0.00  0.00    +0.085 C 
ATOM      2  C   UNL     1      -0.107  -2.595   1.744  0.00  0.00    +0.053 C 
ATOM      3  N   UNL     1      -0.207  -3.482   0.762  0.00  0.00    -0.228 NA
ATOM      4  C   UNL     1      -0.105  -3.200  -0.513  0.00  0.00    +0.178 A 
ATOM      5  N   UNL     1       0.121  -1.936  -1.006  0.00  0.00    -0.275 N 
ATOM      6  C   UNL     1       0.206  -1.770  -2.333  0.00  0.00    +0.268 A 
ATOM      7  O   UNL     1       0.405  -0.670  -2.815  0.00  0.00    -0.266 OA
ATOM      8  C   UNL     1       0.052  -2.955  -3.188  0.00  0.00    +0.081 A 
ATOM      9  C   UNL     1       0.096  -3.054  -4.542  0.00  0.00    +0.028 C 
ATOM     10  S   UNL     1      -0.208  -4.229  -1.964  0.00  0.00    -0.046 S 
ATOM     11  C   UNL     1       0.248  -0.863   0.020  0.00  0.00    +0.162 C 
ATOM     12  C   UNL     1      -0.244  -3.046   3.175  0.00  0.00    +0.066 C 
ENDROOT
BRANCH  11  13
ATOM     13  C   UNL     1       1.595  -0.211  -0.157  0.00  0.00    -0.020 A 
ATOM     14  C   UNL     1       1.697   1.168  -0.184  0.00  0.00    +0.007 A 
ATOM     15  C   UNL     1       2.932   1.767  -0.346  0.00  0.00    +0.020 A 
ATOM     16  C   UNL     1       4.067   0.986  -0.480  0.00  0.00    +0.041 A 
ATOM     17  C   UNL     1       3.964  -0.393  -0.453  0.00  0.00    +0.020 A 
ATOM     18  C   UNL     1       2.728  -0.991  -0.291  0.00  0.00    +0.007 A 
ATOM     19 CL   UNL     1       5.618   1.738  -0.684  0.00  0.00    -0.084 Cl
ENDBRANCH  11  13
BRANCH   9  20
ATOM     20  C   UNL     1       0.084  -4.375  -5.181  0.00  0.00    -0.024 A 
ATOM     21  C   UNL     1       0.369  -5.522  -4.430  0.00  0.00    +0.011 A 
ATOM     22  C   UNL     1       0.351  -6.760  -5.034  0.00  0.00    +0.046 A 
ATOM     23  C   UNL     1       0.062  -6.870  -6.389  0.00  0.00    +0.117 A 
ATOM     24  C   UNL     1      -0.216  -5.734  -7.141  0.00  0.00    +0.046 A 
ATOM     25  C   UNL     1      -0.207  -4.493  -6.546  0.00  0.00    +0.011 A 
BRANCH  23  26
ATOM     26  O   UNL     1       0.051  -8.092  -6.981  0.00  0.00    -0.507 OA
ATOM     27  H   UNL     1       0.906  -8.361  -7.343  0.00  0.00    +0.292 HD
ENDBRANCH  23  26
ENDBRANCH   9  20
BRANCH   1  28
ATOM     28  C   UNL     1       0.225  -0.329   2.501  0.00  0.00    +0.339 C 
ATOM     29  O   UNL     1       0.226  -0.694   3.663  0.00  0.00    -0.245 OA
BRANCH  28  30
ATOM     30  O   UNL     1       0.328   0.985   2.205  0.00  0.00    -0.462 OA
BRANCH  30  32
ATOM     31  C   UNL     1       0.541   3.323   2.778  0.00  0.00    +0.048 C 
ATOM     32  C   UNL     1       0.434   1.891   3.305  0.00  0.00    +0.229 C 
ENDBRANCH  30  32
ENDBRANCH  28  30
ENDBRANCH   1  28
TORSDOF 6
