REMARK  Name = ZINC28892017
REMARK  11 active torsions:
REMARK  status: ('A' for Active; 'I' for Inactive)
REMARK    1  A    between atoms: C_1  and  C_2
REMARK    2  A    between atoms: C_2  and  O_3
REMARK    3  A    between atoms: O_3  and  C_4
REMARK    4  A    between atoms: C_4  and  C_6
REMARK    5  A    between atoms: C_7  and  C_24
REMARK    6  A    between atoms: C_12  and  C_14
REMARK    7  A    between atoms: C_19  and  O_20
REMARK    8  A    between atoms: O_20  and  C_21
REMARK    9  A    between atoms: C_24  and  N_25
REMARK   10  A    between atoms: N_25  and  C_26
REMARK   11  A    between atoms: N_25  and  C_27
REMARK                            x       y       z     vdW  Elec       q    Type
REMARK                         _______ _______ _______ _____ _____    ______ ____
ROOT
ATOM      1  C   UNL     1       1.505   1.844   0.356  0.00  0.00    +0.076 C 
ATOM      2  C   UNL     1       0.383   1.150   0.642  0.00  0.00    +0.008 C 
ATOM      3  N   UNL     1       0.305  -0.193   0.405  0.00  0.00    -0.274 N 
ATOM      4  C   UNL     1       1.305  -0.914  -0.117  0.00  0.00    +0.304 C 
ATOM      5  O   UNL     1       1.142  -2.106  -0.292  0.00  0.00    -0.252 OA
ATOM      6  N   UNL     1       2.487  -0.362  -0.453  0.00  0.00    -0.288 N 
ATOM      7  C   UNL     1       2.674   1.083  -0.237  0.00  0.00    +0.147 C 
ATOM      8  H   UNL     1      -0.618  -0.741   0.645  0.00  0.00    +0.156 HD
ATOM      9  H   UNL     1       3.303  -0.963  -0.881  0.00  0.00    +0.151 HD
ENDROOT
BRANCH   7  10
ATOM     10  C   UNL     1       3.012   1.712  -1.563  0.00  0.00    +0.019 A 
ATOM     11  C   UNL     1       2.549   1.145  -2.736  0.00  0.00    +0.009 A 
ATOM     12  C   UNL     1       2.858   1.722  -3.953  0.00  0.00    +0.001 A 
ATOM     13  C   UNL     1       3.632   2.867  -4.001  0.00  0.00    +0.004 A 
ATOM     14  C   UNL     1       4.098   3.438  -2.833  0.00  0.00    +0.046 A 
ATOM     15  C   UNL     1       3.784   2.863  -1.609  0.00  0.00    +0.132 A 
BRANCH  15  16
ATOM     16  O   UNL     1       4.236   3.426  -0.457  0.00  0.00    -0.434 OA
BRANCH  16  17
ATOM     17  C   UNL     1       5.031   4.607  -0.581  0.00  0.00    +0.541 C 
ATOM     18  F   UNL     1       6.197   4.312  -1.294  0.00  0.00    -0.166 F 
ATOM     19  F   UNL     1       4.303   5.589  -1.261  0.00  0.00    -0.166 F 
ENDBRANCH  16  17
ENDBRANCH  15  16
ENDBRANCH   7  10
BRANCH   1  20
ATOM     20  C   UNL     1       1.587   3.235   0.601  0.00  0.00    +0.339 C 
ATOM     21  O   UNL     1       2.205   3.648   1.564  0.00  0.00    -0.245 OA
BRANCH  20  22
ATOM     22  O   UNL     1       0.979   4.104  -0.234  0.00  0.00    -0.462 OA
BRANCH  22  24
ATOM     23  C   UNL     1       0.197   6.300  -0.872  0.00  0.00    +0.048 C 
ATOM     24  C   UNL     1       1.035   5.488   0.118  0.00  0.00    +0.229 C 
ENDBRANCH  22  24
ENDBRANCH  20  22
ENDBRANCH   1  20
BRANCH   2  25
ATOM     25  C   UNL     1      -0.805   1.869   1.227  0.00  0.00    -0.026 C 
BRANCH  25  26
ATOM     26  N   UNL     1      -1.068   1.361   2.580  0.00  0.00    +0.383 N 
ATOM     27  C   UNL     1      -0.065   1.857   3.533  0.00  0.00    -0.095 C 
ATOM     28  H   UNL     1      -0.992   0.264   2.550  0.00  0.00    -0.081 HD
BRANCH  26  29
ATOM     29  C   UNL     1      -2.427   1.708   3.018  0.00  0.00    -0.068 C 
ATOM     30  C   UNL     1      -2.549   3.228   3.146  0.00  0.00    -0.015 C 
ATOM     31  C   UNL     1      -3.964   3.588   3.602  0.00  0.00    -0.002 C 
ATOM     32  C   UNL     1      -4.244   2.939   4.958  0.00  0.00    -0.000 C 
ATOM     33  C   UNL     1      -4.122   1.419   4.831  0.00  0.00    -0.002 C 
ATOM     34  C   UNL     1      -2.707   1.058   4.375  0.00  0.00    -0.015 C 
ENDBRANCH  26  29
ENDBRANCH  25  26
ENDBRANCH   2  25
TORSDOF 9
