REMARK  Name = ZINC17074841
REMARK  4 active torsions:
REMARK  status: ('A' for Active; 'I' for Inactive)
REMARK    1  A    between atoms: C_5  and  C_7
REMARK    2  A    between atoms: N_9  and  C_10
REMARK    3  A    between atoms: C_10  and  N_12
REMARK    4  A    between atoms: C_18  and  O_22
REMARK                            x       y       z     vdW  Elec       q    Type
REMARK                         _______ _______ _______ _____ _____    ______ ____
ROOT
ATOM      1  C   UNL     1       0.122  -4.205  -0.026  0.00  0.00    +0.163 C 
ATOM      2  S   UNL     1       1.619  -5.036  -0.057  0.00  0.00    -0.016 S 
ENDROOT
BRANCH   1   3
ATOM      3  N   UNL     1      -1.024  -4.893  -0.017  0.00  0.00    -0.169 NA
ATOM      4  C   UNL     1      -1.243  -5.806   0.922  0.00  0.00    +0.163 A 
ATOM      5  N   UNL     1      -0.479  -6.114   2.008  0.00  0.00    -0.335 N 
ATOM      6  C   UNL     1      -0.880  -7.111   2.883  0.00  0.00    +0.055 A 
ATOM      7  C   UNL     1      -0.215  -7.550   4.041  0.00  0.00    +0.030 A 
ATOM      8  C   UNL     1      -0.737  -8.557   4.817  0.00  0.00    +0.047 A 
ATOM      9  C   UNL     1      -1.936  -9.173   4.484  0.00  0.00    +0.118 A 
ATOM     10  C   UNL     1      -2.614  -8.758   3.346  0.00  0.00    +0.062 A 
ATOM     11  C   UNL     1      -2.088  -7.751   2.573  0.00  0.00    +0.042 A 
ATOM     12  S   UNL     1      -2.616  -6.935   1.085  0.00  0.00    -0.052 S 
ATOM     13  H   UNL     1       0.349  -5.635   2.168  0.00  0.00    +0.168 HD
BRANCH   9  14
ATOM     14  O   UNL     1      -2.439 -10.169   5.262  0.00  0.00    -0.507 OA
ATOM     15  H   UNL     1      -3.025  -9.860   5.967  0.00  0.00    +0.292 HD
ENDBRANCH   9  14
ENDBRANCH   1   3
BRANCH   1  18
ATOM     16  C   UNL     1       1.256  -2.164  -0.020  0.00  0.00    +0.251 C 
ATOM     17  O   UNL     1       2.318  -2.754  -0.042  0.00  0.00    -0.270 OA
ATOM     18  N   UNL     1       0.100  -2.858  -0.011  0.00  0.00    -0.262 N 
ATOM     19  H   UNL     1      -0.748  -2.387   0.007  0.00  0.00    +0.157 HD
BRANCH  16  24
ATOM     20  C   UNL     1      -0.004   1.372   0.036  0.00  0.00    +0.001 A 
ATOM     21  C   UNL     1       1.185   2.082   0.027  0.00  0.00    +0.001 A 
ATOM     22  C   UNL     1       2.396   1.416   0.003  0.00  0.00    +0.021 A 
ATOM     23  C   UNL     1       2.427   0.035  -0.013  0.00  0.00    +0.053 A 
ATOM     24  C   UNL     1       1.231  -0.688  -0.003  0.00  0.00    +0.055 A 
ATOM     25  C   UNL     1       0.012  -0.006   0.022  0.00  0.00    +0.014 A 
ATOM     26 CL   UNL     1       3.949  -0.801  -0.044  0.00  0.00    -0.083 Cl
ENDBRANCH  16  24
ENDBRANCH   1  18
TORSDOF 4
