REMARK  Name = ZINC35300106
REMARK  10 active torsions:
REMARK  status: ('A' for Active; 'I' for Inactive)
REMARK    1  A    between atoms: C_1  and  C_2
REMARK    2  A    between atoms: C_2  and  C_3
REMARK    3  A    between atoms: C_3  and  C_5
REMARK    4  A    between atoms: C_3  and  C_6
REMARK    5  A    between atoms: C_6  and  C_8
REMARK    6  A    between atoms: C_6  and  N_23
REMARK    7  A    between atoms: C_14  and  C_16
REMARK    8  A    between atoms: C_24  and  C_26
REMARK    9  A    between atoms: C_26  and  S_27
REMARK   10  A    between atoms: S_27  and  C_28
REMARK                            x       y       z     vdW  Elec       q    Type
REMARK                         _______ _______ _______ _____ _____    ______ ____
ROOT
ATOM      1  C   UNL     1      -0.170  -0.218  -2.606  0.00  0.00    +0.162 C 
ENDROOT
BRANCH   1   2
ATOM      2  C   UNL     1      -0.209   1.268  -2.851  0.00  0.00    +0.239 C 
ATOM      3  O   UNL     1       0.278   1.729  -3.862  0.00  0.00    -0.273 OA
ATOM      4  N   UNL     1      -0.784   2.085  -1.947  0.00  0.00    -0.262 N 
ATOM      5  C   UNL     1      -0.915   3.441  -2.220  0.00  0.00    +0.188 A 
ATOM      6  N   UNL     1      -0.556   4.133  -3.294  0.00  0.00    -0.125 NA
ATOM      7  N   UNL     1      -0.751   5.376  -3.382  0.00  0.00    -0.140 NA
ATOM      8  C   UNL     1      -1.329   6.066  -2.406  0.00  0.00    +0.134 A 
ATOM      9  S   UNL     1      -1.625   4.751  -1.228  0.00  0.00    -0.030 S 
ATOM     10  H   UNL     1      -1.106   1.727  -1.105  0.00  0.00    +0.157 HD
BRANCH   8  11
ATOM     11  C   UNL     1      -1.642   7.508  -2.319  0.00  0.00    +0.009 A 
ATOM     12  C   UNL     1      -2.255   8.024  -1.177  0.00  0.00    +0.012 A 
ATOM     13  C   UNL     1      -2.545   9.371  -1.101  0.00  0.00    +0.016 A 
ATOM     14  C   UNL     1      -2.228  10.210  -2.156  0.00  0.00    +0.018 A 
ATOM     15  C   UNL     1      -1.620   9.704  -3.292  0.00  0.00    +0.016 A 
ATOM     16  C   UNL     1      -1.320   8.360  -3.377  0.00  0.00    +0.012 A 
ATOM     17 BR   UNL     1      -2.629  12.055  -2.045  0.00  0.00    -0.050 Br
ENDBRANCH   8  11
ENDBRANCH   1   2
BRANCH   1  18
ATOM     18  N   UNL     1       0.087  -0.915  -3.869  0.00  0.00    -0.303 N 
ATOM     19  C   UNL     1      -0.316  -2.191  -4.029  0.00  0.00    +0.224 C 
ATOM     20  O   UNL     1      -0.892  -2.762  -3.128  0.00  0.00    -0.275 OA
ATOM     21  H   UNL     1       0.548  -0.458  -4.590  0.00  0.00    +0.149 HD
BRANCH  19  22
ATOM     22  C   UNL     1      -0.051  -2.907  -5.329  0.00  0.00    +0.170 C 
BRANCH  22  23
ATOM     23  S   UNL     1      -0.710  -4.595  -5.234  0.00  0.00    -0.116 S 
BRANCH  23  24
ATOM     24  C   UNL     1      -0.327  -5.291  -6.806  0.00  0.00    +0.008 A 
ATOM     25  C   UNL     1       0.345  -4.534  -7.758  0.00  0.00    +0.015 A 
ATOM     26  C   UNL     1       0.643  -5.083  -8.990  0.00  0.00    +0.001 A 
ATOM     27  C   UNL     1       0.275  -6.385  -9.276  0.00  0.00    +0.000 A 
ATOM     28  C   UNL     1      -0.394  -7.141  -8.331  0.00  0.00    +0.001 A 
ATOM     29  C   UNL     1      -0.691  -6.601  -7.095  0.00  0.00    +0.015 A 
ENDBRANCH  23  24
ENDBRANCH  22  23
ENDBRANCH  19  22
ENDBRANCH   1  18
BRANCH   1  30
ATOM     30  C   UNL     1       0.945  -0.542  -1.609  0.00  0.00    +0.015 C 
ATOM     31  C   UNL     1       2.303  -0.244  -2.248  0.00  0.00    +0.010 C 
BRANCH  30  33
ATOM     32  C   UNL     1      -0.421  -2.290  -0.459  0.00  0.00    +0.004 C 
ATOM     33  C   UNL     1       0.874  -2.022  -1.228  0.00  0.00    +0.002 C 
ENDBRANCH  30  33
ENDBRANCH   1  30
TORSDOF 8
