REMARK  Name = ZINC37603940
REMARK  11 active torsions:
REMARK  status: ('A' for Active; 'I' for Inactive)
REMARK    1  A    between atoms: C_1  and  C_2
REMARK    2  A    between atoms: C_2  and  C_3
REMARK    3  A    between atoms: C_2  and  C_4
REMARK    4  A    between atoms: C_12  and  O_24
REMARK    5  A    between atoms: C_15  and  C_17
REMARK    6  A    between atoms: O_24  and  C_25
REMARK    7  A    between atoms: C_25  and  C_26
REMARK    8  A    between atoms: C_29  and  C_31
REMARK    9  A    between atoms: N_33  and  C_34
REMARK   10  A    between atoms: C_34  and  C_35
REMARK   11  A    between atoms: C_35  and  N_36
REMARK                            x       y       z     vdW  Elec       q    Type
REMARK                         _______ _______ _______ _____ _____    ______ ____
ROOT
ATOM      1  C   UNL     1      -1.742   0.035   0.583  0.00  0.00    +0.219 C 
ATOM      2  O   UNL     1      -2.120  -0.632   1.522  0.00  0.00    -0.275 OA
ATOM      3  N   UNL     1      -2.445   0.039  -0.567  0.00  0.00    -0.290 N 
ATOM      4  C   UNL     1      -1.971   0.774  -1.752  0.00  0.00    +0.113 C 
ATOM      5  C   UNL     1      -1.681  -0.246  -2.852  0.00  0.00    +0.054 C 
ATOM      6  C   UNL     1      -2.821  -1.221  -2.993  0.00  0.00    -0.040 A 
ATOM      7  C   UNL     1      -2.922  -1.923  -4.189  0.00  0.00    +0.007 A 
ATOM      8  C   UNL     1      -3.934  -2.838  -4.382  0.00  0.00    +0.046 A 
ATOM      9  C   UNL     1      -4.862  -3.063  -3.376  0.00  0.00    +0.121 A 
ATOM     10  C   UNL     1      -4.764  -2.361  -2.186  0.00  0.00    +0.051 A 
ATOM     11  C   UNL     1      -3.747  -1.436  -1.997  0.00  0.00    -0.016 A 
ATOM     12  C   UNL     1      -3.710  -0.692  -0.690  0.00  0.00    +0.137 C 
ENDROOT
BRANCH  12  13
ATOM     13  C   UNL     1      -3.836  -1.672   0.448  0.00  0.00    -0.022 A 
ATOM     14  C   UNL     1      -2.929  -2.709   0.569  0.00  0.00    +0.008 A 
ATOM     15  C   UNL     1      -3.043  -3.608   1.613  0.00  0.00    +0.038 A 
ATOM     16  C   UNL     1      -4.065  -3.470   2.537  0.00  0.00    +0.123 A 
ATOM     17  C   UNL     1      -4.972  -2.431   2.414  0.00  0.00    +0.038 A 
ATOM     18  C   UNL     1      -4.853  -1.530   1.373  0.00  0.00    +0.008 A 
ATOM     19  F   UNL     1      -4.178  -4.349   3.557  0.00  0.00    -0.205 F 
ENDBRANCH  12  13
BRANCH   1  21
ATOM     20  C   UNL     1      -0.845   2.277   1.146  0.00  0.00    +0.017 C 
ATOM     21  C   UNL     1      -0.485   0.858   0.701  0.00  0.00    +0.069 C 
ATOM     22  C   UNL     1       0.448   0.221   1.733  0.00  0.00    +0.017 C 
ENDBRANCH   1  21
BRANCH   9  23
ATOM     23  O   UNL     1      -5.861  -3.966  -3.556  0.00  0.00    -0.484 OA
BRANCH  23  24
ATOM     24  C   UNL     1      -5.898  -4.652  -4.809  0.00  0.00    +0.303 C 
BRANCH  24  25
ATOM     25  C   UNL     1      -7.064  -5.605  -4.826  0.00  0.00    +0.143 A 
ATOM     26  C   UNL     1      -8.313  -5.314  -5.254  0.00  0.00    +0.049 A 
ATOM     27  C   UNL     1      -9.084  -6.477  -5.100  0.00  0.00    +0.055 A 
ATOM     28  C   UNL     1      -8.257  -7.430  -4.580  0.00  0.00    +0.190 A 
ATOM     29  O   UNL     1      -7.034  -6.883  -4.425  0.00  0.00    -0.452 OA
BRANCH  28  30
ATOM     30  C   UNL     1      -8.632  -8.810  -4.250  0.00  0.00    +0.279 C 
ATOM     31  O   UNL     1      -9.771  -9.192  -4.438  0.00  0.00    -0.267 OA
ATOM     32  N   UNL     1      -7.713  -9.654  -3.740  0.00  0.00    -0.311 N 
ATOM     33  H   UNL     1      -6.805  -9.349  -3.590  0.00  0.00    +0.149 HD
BRANCH  32  34
ATOM     34  C   UNL     1      -8.088 -11.031  -3.411  0.00  0.00    +0.086 C 
BRANCH  34  35
ATOM     35  C   UNL     1      -6.870 -11.771  -2.852  0.00  0.00    -0.060 C 
BRANCH  35  36
ATOM     36  N   UNL     1      -7.246 -13.152  -2.522  0.00  0.00    +0.381 N 
ATOM     37  C   UNL     1      -7.528 -13.917  -3.764  0.00  0.00    -0.079 C 
ATOM     38  C   UNL     1      -7.343 -15.390  -3.323  0.00  0.00    -0.020 C 
ATOM     39  C   UNL     1      -6.148 -15.311  -2.345  0.00  0.00    -0.020 C 
ATOM     40  C   UNL     1      -6.114 -13.846  -1.870  0.00  0.00    -0.079 C 
ATOM     41  H   UNL     1      -8.053 -13.159  -1.917  0.00  0.00    -0.082 HD
ENDBRANCH  35  36
ENDBRANCH  34  35
ENDBRANCH  32  34
ENDBRANCH  28  30
ENDBRANCH  24  25
ENDBRANCH  23  24
ENDBRANCH   9  23
TORSDOF 9
