REMARK  Name = ZINC65356939
REMARK  5 active torsions:
REMARK  status: ('A' for Active; 'I' for Inactive)
REMARK    1  A    between atoms: C_1  and  N_2
REMARK    2  A    between atoms: C_18  and  C_23
REMARK    3  A    between atoms: C_25  and  O_30
REMARK    4  A    between atoms: C_28  and  O_29
REMARK    5  A    between atoms: O_30  and  C_31
REMARK                            x       y       z     vdW  Elec       q    Type
REMARK                         _______ _______ _______ _____ _____    ______ ____
ROOT
ATOM      1  C   UNL     1      -0.093   1.418   0.636  0.00  0.00    +0.140 C 
ATOM      2  N   UNL     1      -0.053  -0.035   0.455  0.00  0.00    -0.255 N 
ATOM      3  C   UNL     1      -1.146  -0.825   0.414  0.00  0.00    +0.242 C 
ATOM      4  O   UNL     1      -2.301  -0.483   0.549  0.00  0.00    -0.273 OA
ATOM      5  C   UNL     1      -0.629  -2.225   0.165  0.00  0.00    +0.166 C 
ATOM      6  C   UNL     1      -1.065  -3.157   1.310  0.00  0.00    +0.065 C 
ATOM      7  C   UNL     1      -0.077  -4.300   1.327  0.00  0.00    -0.034 C 
ATOM      8  C   UNL     1      -0.271  -5.613   1.272  0.00  0.00    -0.001 A 
ATOM      9  C   UNL     1      -1.502  -6.421   1.275  0.00  0.00    +0.010 A 
ATOM     10  C   UNL     1      -1.335  -7.767   1.187  0.00  0.00    +0.001 A 
ATOM     11  C   UNL     1      -0.083  -8.383   1.099  0.00  0.00    +0.002 A 
ATOM     12  C   UNL     1       1.100  -7.719   1.098  0.00  0.00    +0.026 A 
ATOM     13  C   UNL     1       1.055  -6.298   1.192  0.00  0.00    +0.043 A 
ATOM     14  N   UNL     1       2.018  -5.426   1.232  0.00  0.00    -0.375 N 
ATOM     15  C   UNL     1       1.431  -4.095   1.396  0.00  0.00    +0.131 C 
ATOM     16  C   UNL     1       1.810  -3.164   0.235  0.00  0.00    +0.136 C 
ATOM     17  N   UNL     1       0.837  -2.058   0.214  0.00  0.00    -0.291 N 
ATOM     18  C   UNL     1       1.075  -0.744   0.304  0.00  0.00    +0.143 C 
ATOM     19  S   UNL     1       2.638  -0.049   0.237  0.00  0.00    -0.018 S 
ATOM     20  H   UNL     1       2.966  -5.624   1.164  0.00  0.00    +0.160 HD
ENDROOT
BRANCH  16  21
ATOM     21  C   UNL     1       3.202  -2.624   0.440  0.00  0.00    +0.020 A 
ATOM     22  C   UNL     1       3.712  -2.497   1.717  0.00  0.00    +0.054 A 
ATOM     23  C   UNL     1       4.993  -2.001   1.906  0.00  0.00    +0.121 A 
ATOM     24  C   UNL     1       5.762  -1.633   0.812  0.00  0.00    +0.049 A 
ATOM     25  C   UNL     1       5.252  -1.760  -0.465  0.00  0.00    +0.049 A 
ATOM     26  C   UNL     1       3.973  -2.261  -0.654  0.00  0.00    +0.122 A 
BRANCH  26  27
ATOM     27  O   UNL     1       3.472  -2.392  -1.912  0.00  0.00    -0.506 OA
ATOM     28  H   UNL     1       3.003  -1.609  -2.232  0.00  0.00    +0.292 HD
ENDBRANCH  26  27
BRANCH  23  29
ATOM     29  O   UNL     1       5.495  -1.876   3.163  0.00  0.00    -0.495 OA
ATOM     30  C   UNL     1       6.821  -1.358   3.284  0.00  0.00    +0.277 C 
ENDBRANCH  23  29
ENDBRANCH  16  21
TORSDOF 3
