REMARK  Name = ZINC39792110
REMARK  9 active torsions:
REMARK  status: ('A' for Active; 'I' for Inactive)
REMARK    1  A    between atoms: C_1  and  C_2
REMARK    2  A    between atoms: C_4  and  C_9
REMARK    3  A    between atoms: C_5  and  C_8
REMARK    4  A    between atoms: C_9  and  S_10
REMARK    5  A    between atoms: S_10  and  C_11
REMARK    6  A    between atoms: C_12  and  C_17
REMARK    7  A    between atoms: N_19  and  N_20
REMARK    8  A    between atoms: C_21  and  C_23
REMARK    9  A    between atoms: C_26  and  C_28
REMARK                            x       y       z     vdW  Elec       q    Type
REMARK                         _______ _______ _______ _____ _____    ______ ____
ROOT
ATOM      1  C   UNL     1      -3.321  -2.510  -4.748  0.00  0.00    +0.263 C 
ATOM      2  O   UNL     1      -3.104  -2.791  -3.585  0.00  0.00    -0.269 OA
ATOM      3  N   UNL     1      -4.340  -3.099  -5.405  0.00  0.00    -0.230 N 
ATOM      4  H   UNL     1      -4.513  -2.875  -6.332  0.00  0.00    +0.173 HD
ENDROOT
BRANCH   1   6
ATOM      5  C   UNL     1      -1.404  -0.902  -4.767  0.00  0.00    +0.109 A 
ATOM      6  C   UNL     1      -2.470  -1.525  -5.439  0.00  0.00    +0.070 A 
ATOM      7  C   UNL     1      -2.708  -1.192  -6.778  0.00  0.00    +0.017 A 
ATOM      8  C   UNL     1      -1.881  -0.262  -7.381  0.00  0.00    +0.020 A 
ATOM      9  C   UNL     1      -0.851   0.308  -6.654  0.00  0.00    +0.112 A 
ATOM     10  N   UNL     1      -0.645  -0.014  -5.392  0.00  0.00    -0.248 NA
BRANCH   5  11
ATOM     11  S   UNL     1      -1.079  -1.300  -3.081  0.00  0.00    -0.101 S 
BRANCH  11  12
ATOM     12  C   UNL     1       0.349  -0.266  -2.654  0.00  0.00    +0.111 C 
BRANCH  12  15
ATOM     13  C   UNL     1      -0.019   1.526   0.010  0.00  0.00    +0.045 C 
ATOM     14  C   UNL     1       0.002  -0.004   0.002  0.00  0.00    +0.174 C 
ATOM     15  C   UNL     1       0.735  -0.512  -1.218  0.00  0.00    -0.008 C 
ATOM     16  C   UNL     1       1.772  -1.208  -0.801  0.00  0.00    +0.038 C 
ATOM     17  N   UNL     1       1.832  -1.235   0.581  0.00  0.00    -0.269 N 
ATOM     18  O   UNL     1       0.748  -0.498   1.124  0.00  0.00    -0.267 OA
ATOM     19  C   UNL     1       2.763  -1.888  -1.710  0.00  0.00    +0.065 C 
ATOM     20  H   UNL     1       2.513  -1.690   1.100  0.00  0.00    +0.194 HD
ENDBRANCH  12  15
ENDBRANCH  11  12
ENDBRANCH   5  11
ENDBRANCH   1   6
BRANCH   3  21
ATOM     21  N   UNL     1      -5.148  -4.036  -4.748  0.00  0.00    -0.229 N 
ATOM     22  C   UNL     1      -6.167  -4.625  -5.404  0.00  0.00    +0.276 C 
ATOM     23  O   UNL     1      -6.384  -4.344  -6.568  0.00  0.00    -0.267 OA
ATOM     24  H   UNL     1      -4.975  -4.260  -3.820  0.00  0.00    +0.173 HD
BRANCH  22  25
ATOM     25  C   UNL     1      -7.014  -5.606  -4.716  0.00  0.00    +0.132 C 
ATOM     26  N   UNL     1      -6.917  -6.010  -3.477  0.00  0.00    -0.148 NA
ATOM     27  N   UNL     1      -7.790  -6.876  -3.135  0.00  0.00    -0.153 NA
ATOM     28  C   UNL     1      -8.627  -7.204  -4.091  0.00  0.00    +0.077 C 
ATOM     29  C   UNL     1      -8.198  -6.368  -5.287  0.00  0.00    +0.120 C 
BRANCH  28  30
ATOM     30  C   UNL     1      -9.736  -8.163  -4.020  0.00  0.00    -0.002 A 
ATOM     31  C   UNL     1     -10.534  -8.401  -5.146  0.00  0.00    +0.010 A 
ATOM     32  C   UNL     1     -11.573  -9.303  -5.071  0.00  0.00    +0.001 A 
ATOM     33  C   UNL     1     -11.829  -9.973  -3.886  0.00  0.00    +0.000 A 
ATOM     34  C   UNL     1     -11.045  -9.744  -2.769  0.00  0.00    +0.001 A 
ATOM     35  C   UNL     1      -9.998  -8.850  -2.828  0.00  0.00    +0.010 A 
ENDBRANCH  28  30
ENDBRANCH  22  25
ENDBRANCH   3  21
TORSDOF 7
