REMARK  Name = ZINC22135258
REMARK  6 active torsions:
REMARK  status: ('A' for Active; 'I' for Inactive)
REMARK    1  A    between atoms: C_6  and  S_7
REMARK    2  A    between atoms: S_7  and  C_10
REMARK    3  A    between atoms: C_10  and  C_11
REMARK    4  A    between atoms: C_11  and  N_12
REMARK    5  A    between atoms: N_15  and  C_18
REMARK    6  A    between atoms: C_18  and  C_19
REMARK                            x       y       z     vdW  Elec       q    Type
REMARK                         _______ _______ _______ _____ _____    ______ ____
ROOT
ATOM      1  N   UNL     1      -0.806   3.062  -1.200  0.00  0.00    -0.304 NA
ATOM      2  C   UNL     1      -0.754   1.593  -1.231  0.00  0.00    +0.066 C 
ATOM      3  C   UNL     1      -0.013   1.086   0.008  0.00  0.00    -0.063 C 
ATOM      4  N   UNL     1      -0.701   1.560   1.216  0.00  0.00    +0.384 N 
ATOM      5  C   UNL     1      -0.754   3.029   1.247  0.00  0.00    -0.063 C 
ATOM      6  C   UNL     1      -1.495   3.536   0.008  0.00  0.00    +0.066 C 
ATOM      7  H   UNL     1      -1.735   1.184   1.189  0.00  0.00    -0.081 HD
ENDROOT
BRANCH   1   8
ATOM      8  C   UNL     1      -1.445   3.591  -2.413  0.00  0.00    +0.107 C 
BRANCH   8   9
ATOM      9  C   UNL     1      -1.707   5.088  -2.239  0.00  0.00    +0.187 C 
BRANCH   9  10
ATOM     10  S   UNL     1      -2.495   5.742  -3.736  0.00  0.00    -0.002 S 
ATOM     11  O   UNL     1      -1.582   5.708  -4.824  0.00  0.00    -0.169 OA
ATOM     12  O   UNL     1      -3.805   5.209  -3.872  0.00  0.00    -0.169 OA
BRANCH  10  18
ATOM     13  C   UNL     1      -3.916   7.886  -2.822  0.00  0.00    +0.028 A 
ATOM     14  C   UNL     1      -4.106   9.230  -2.560  0.00  0.00    +0.017 A 
ATOM     15  C   UNL     1      -3.124  10.145  -2.893  0.00  0.00    +0.018 A 
ATOM     16  C   UNL     1      -1.950   9.715  -3.483  0.00  0.00    +0.017 A 
ATOM     17  C   UNL     1      -1.758   8.370  -3.740  0.00  0.00    +0.028 A 
ATOM     18  C   UNL     1      -2.740   7.456  -3.407  0.00  0.00    +0.088 A 
ATOM     19 BR   UNL     1      -3.386  11.985  -2.540  0.00  0.00    -0.050 Br
ENDBRANCH  10  18
ENDBRANCH   9  10
ENDBRANCH   8   9
ENDBRANCH   1   8
BRANCH   4  20
ATOM     20  C   UNL     1      -0.062   1.031   2.429  0.00  0.00    -0.043 C 
BRANCH  20  21
ATOM     21  C   UNL     1      -0.631   1.724   3.640  0.00  0.00    -0.060 A 
ATOM     22  C   UNL     1      -0.038   2.878   4.116  0.00  0.00    +0.005 A 
ATOM     23  C   UNL     1      -0.559   3.520   5.224  0.00  0.00    +0.050 A 
ATOM     24  C   UNL     1      -1.672   3.002   5.866  0.00  0.00    +0.166 A 
ATOM     25  C   UNL     1      -2.266   1.836   5.390  0.00  0.00    +0.166 A 
ATOM     26  C   UNL     1      -1.742   1.201   4.276  0.00  0.00    +0.051 A 
ATOM     27  O   UNL     1      -3.333   1.534   6.185  0.00  0.00    -0.453 OA
ATOM     28  C   UNL     1      -3.141   2.295   7.392  0.00  0.00    +0.466 C 
ATOM     29  O   UNL     1      -2.366   3.429   6.961  0.00  0.00    -0.453 OA
ENDBRANCH  20  21
ENDBRANCH   4  20
TORSDOF 6
