REMARK  Name = ZINC39521441
REMARK  6 active torsions:
REMARK  status: ('A' for Active; 'I' for Inactive)
REMARK    1  A    between atoms: C_1  and  C_2
REMARK    2  A    between atoms: C_2  and  C_3
REMARK    3  A    between atoms: C_2  and  S_4
REMARK    4  A    between atoms: S_4  and  C_7
REMARK    5  A    between atoms: N_19  and  C_20
REMARK    6  A    between atoms: C_25  and  O_26
REMARK                            x       y       z     vdW  Elec       q    Type
REMARK                         _______ _______ _______ _____ _____    ______ ____
ROOT
ATOM      1  C   UNL     1      -2.490   0.262  -1.135  0.00  0.00    +0.133 C 
ATOM      2  C   UNL     1      -1.710  -0.467  -2.231  0.00  0.00    +0.026 C 
ATOM      3  C   UNL     1      -2.325  -0.146  -3.595  0.00  0.00    +0.004 C 
ATOM      4  C   UNL     1      -3.785  -0.606  -3.616  0.00  0.00    +0.026 C 
ATOM      5  C   UNL     1      -4.564   0.119  -2.519  0.00  0.00    +0.038 C 
ATOM      6  C   UNL     1      -3.949  -0.199  -1.155  0.00  0.00    +0.052 C 
ATOM      7  C   UNL     1      -6.026  -0.334  -2.541  0.00  0.00    +0.026 C 
ATOM      8  C   UNL     1      -6.828   0.496  -1.536  0.00  0.00    +0.005 C 
ATOM      9  C   UNL     1      -6.771   1.974  -1.933  0.00  0.00    +0.039 C 
ATOM     10  C   UNL     1      -5.316   2.451  -1.901  0.00  0.00    +0.166 C 
ATOM     11  N   UNL     1      -4.510   1.567  -2.754  0.00  0.00    -0.305 N 
ATOM     12 CL   UNL     1      -5.222   4.143  -2.518  0.00  0.00    -0.101 Cl
ENDROOT
BRANCH  11  13
ATOM     13  C   UNL     1      -3.707   2.095  -3.771  0.00  0.00    +0.073 A 
ATOM     14  C   UNL     1      -3.960   1.772  -5.096  0.00  0.00    +0.027 A 
ATOM     15  C   UNL     1      -3.165   2.295  -6.099  0.00  0.00    +0.002 A 
ATOM     16  C   UNL     1      -2.118   3.140  -5.785  0.00  0.00    +0.004 A 
ATOM     17  C   UNL     1      -1.859   3.467  -4.467  0.00  0.00    +0.047 A 
ATOM     18  C   UNL     1      -2.654   2.951  -3.456  0.00  0.00    +0.138 A 
BRANCH  18  19
ATOM     19  O   UNL     1      -2.404   3.276  -2.159  0.00  0.00    -0.505 OA
ATOM     20  H   UNL     1      -1.717   2.737  -1.744  0.00  0.00    +0.292 HD
ENDBRANCH  18  19
ENDBRANCH  11  13
BRANCH   1  21
ATOM     21  S   UNL     1      -1.759  -0.118   0.481  0.00  0.00    -0.026 S 
ATOM     22  O   UNL     1      -1.855  -1.519   0.700  0.00  0.00    -0.174 OA
ATOM     23  O   UNL     1      -2.309   0.771   1.444  0.00  0.00    -0.174 OA
BRANCH  21  25
ATOM     24  C   UNL     1       0.125   1.819   0.057  0.00  0.00    +0.031 C 
ATOM     25  C   UNL     1      -0.011   0.306   0.240  0.00  0.00    +0.125 C 
ATOM     26  C   UNL     1       0.794  -0.133   1.465  0.00  0.00    +0.031 C 
ENDBRANCH  21  25
ENDBRANCH   1  21
TORSDOF 4
