REMARK  Name = ZINC13768247
REMARK  13 active torsions:
REMARK  status: ('A' for Active; 'I' for Inactive)
REMARK    1  A    between atoms: C_1  and  C_2
REMARK    2  A    between atoms: C_7  and  N_8
REMARK    3  A    between atoms: C_13  and  C_27
REMARK    4  A    between atoms: N_15  and  C_21
REMARK    5  A    between atoms: C_29  and  C_38
REMARK    6  A    between atoms: C_30  and  O_37
REMARK    7  A    between atoms: C_31  and  C_33
REMARK    8  A    between atoms: C_33  and  C_34
REMARK    9  A    between atoms: C_33  and  C_35
REMARK   10  A    between atoms: C_33  and  C_36
REMARK   11  A    between atoms: C_38  and  C_39
REMARK   12  A    between atoms: C_38  and  C_40
REMARK   13  A    between atoms: C_38  and  C_41
REMARK                            x       y       z     vdW  Elec       q    Type
REMARK                         _______ _______ _______ _____ _____    ______ ____
ROOT
ATOM      1  N   UNL     1       0.592   0.282   2.226  0.00  0.00    -0.208 N 
ATOM      2  C   UNL     1      -0.492   0.328   3.009  0.00  0.00    +0.235 C 
ATOM      3  O   UNL     1      -1.582  -0.120   2.724  0.00  0.00    -0.274 OA
ATOM      4  C   UNL     1      -0.146   1.026   4.303  0.00  0.00    +0.145 C 
ATOM      5  C   UNL     1      -0.885   2.382   4.368  0.00  0.00    +0.157 C 
ATOM      6  N   UNL     1       0.193   3.322   4.762  0.00  0.00    -0.244 N 
ATOM      7  O   UNL     1       1.343   2.870   4.045  0.00  0.00    -0.257 OA
ATOM      8  C   UNL     1       1.346   1.414   4.116  0.00  0.00    +0.249 C 
ATOM      9  C   UNL     1       1.683   0.849   2.753  0.00  0.00    +0.259 C 
ATOM     10  O   UNL     1       2.771   0.904   2.221  0.00  0.00    -0.272 OA
ENDROOT
BRANCH   1  17
ATOM     11  C   UNL     1       0.273   1.956  -0.054  0.00  0.00    +0.045 C 
ATOM     12  C   UNL     1       0.434   0.463  -0.179  0.00  0.00    -0.029 A 
ATOM     13  C   UNL     1       0.435  -0.130  -1.427  0.00  0.00    +0.005 A 
ATOM     14  C   UNL     1       0.583  -1.500  -1.543  0.00  0.00    +0.000 A 
ATOM     15  C   UNL     1       0.730  -2.281  -0.411  0.00  0.00    +0.002 A 
ATOM     16  C   UNL     1       0.730  -1.694   0.839  0.00  0.00    +0.024 A 
ATOM     17  C   UNL     1       0.587  -0.318   0.958  0.00  0.00    +0.047 A 
ENDBRANCH   1  17
BRANCH   6  18
ATOM     18  C   UNL     1       0.103   4.407   5.637  0.00  0.00    +0.065 A 
ATOM     19  C   UNL     1      -1.105   4.704   6.256  0.00  0.00    +0.028 A 
ATOM     20  C   UNL     1      -1.190   5.777   7.121  0.00  0.00    +0.002 A 
ATOM     21  C   UNL     1      -0.075   6.556   7.370  0.00  0.00    +0.000 A 
ATOM     22  C   UNL     1       1.128   6.264   6.755  0.00  0.00    +0.002 A 
ATOM     23  C   UNL     1       1.222   5.189   5.894  0.00  0.00    +0.028 A 
ENDBRANCH   6  18
BRANCH   5  24
ATOM     24  C   UNL     1      -1.451   2.747   3.020  0.00  0.00    -0.021 A 
ATOM     25  C   UNL     1      -2.542   2.060   2.521  0.00  0.00    +0.013 A 
ATOM     26  C   UNL     1      -3.062   2.392   1.285  0.00  0.00    +0.000 A 
ATOM     27  C   UNL     1      -2.490   3.416   0.544  0.00  0.00    +0.124 A 
ATOM     28  C   UNL     1      -1.395   4.104   1.048  0.00  0.00    +0.000 A 
ATOM     29  C   UNL     1      -0.882   3.772   2.286  0.00  0.00    +0.013 A 
BRANCH  28  30
ATOM     30  C   UNL     1      -0.771   5.217   0.246  0.00  0.00    -0.009 C 
ATOM     31  C   UNL     1       0.409   5.804   1.023  0.00  0.00    +0.015 C 
ATOM     32  C   UNL     1      -0.277   4.666  -1.093  0.00  0.00    +0.015 C 
ATOM     33  C   UNL     1      -1.811   6.311  -0.005  0.00  0.00    +0.015 C 
ENDBRANCH  28  30
BRANCH  26  34
ATOM     34  C   UNL     1      -4.251   1.642   0.741  0.00  0.00    -0.009 C 
ATOM     35  C   UNL     1      -4.645   0.533   1.718  0.00  0.00    +0.015 C 
ATOM     36  C   UNL     1      -5.425   2.606   0.564  0.00  0.00    +0.015 C 
ATOM     37  C   UNL     1      -3.889   1.025  -0.612  0.00  0.00    +0.015 C 
ENDBRANCH  26  34
BRANCH  27  38
ATOM     38  O   UNL     1      -3.000   3.744  -0.672  0.00  0.00    -0.506 OA
ATOM     39  H   UNL     1      -3.690   4.420  -0.639  0.00  0.00    +0.292 HD
ENDBRANCH  27  38
ENDBRANCH   5  24
TORSDOF 6
