REMARK  Name = ZINC01224245
REMARK  7 active torsions:
REMARK  status: ('A' for Active; 'I' for Inactive)
REMARK    1  A    between atoms: C_1  and  C_2
REMARK    2  A    between atoms: C_7  and  C_14
REMARK    3  A    between atoms: C_14  and  N_15
REMARK    4  A    between atoms: N_15  and  C_16
REMARK    5  A    between atoms: N_15  and  C_21
REMARK    6  A    between atoms: C_21  and  N_23
REMARK    7  A    between atoms: N_23  and  C_24
REMARK                            x       y       z     vdW  Elec       q    Type
REMARK                         _______ _______ _______ _____ _____    ______ ____
ROOT
ATOM      1  N   UNL     1       3.537   0.733  -0.664  0.00  0.00    -0.305 N 
ENDROOT
BRANCH   1   2
ATOM      2  C   UNL     1       2.106   0.876  -0.943  0.00  0.00    +0.075 C 
ATOM      3  C   UNL     1       1.495   2.005  -0.075  0.00  0.00    +0.022 C 
ATOM      4  C   UNL     1      -0.005   1.623  -0.025  0.00  0.00    +0.002 C 
ATOM      5  C   UNL     1      -0.001   0.083   0.075  0.00  0.00    +0.002 C 
ATOM      6  C   UNL     1       1.342  -0.391  -0.508  0.00  0.00    +0.022 C 
ENDBRANCH   1   2
BRANCH   1   7
ATOM      7  C   UNL     1       3.962   0.549   0.602  0.00  0.00    +0.134 C 
ATOM      8  S   UNL     1       5.639   0.505   0.944  0.00  0.00    -0.019 S 
BRANCH   7   9
ATOM      9  N   UNL     1       3.067   0.400   1.598  0.00  0.00    -0.324 N 
ATOM     10  H   UNL     1       1.992   0.345   1.368  0.00  0.00    +0.148 HD
BRANCH   9  11
ATOM     11  C   UNL     1       3.524   0.309   2.987  0.00  0.00    +0.072 C 
ATOM     12  C   UNL     1       3.901  -1.139   3.306  0.00  0.00    +0.022 C 
ATOM     13  C   UNL     1       4.379  -1.234   4.756  0.00  0.00    +0.002 C 
ATOM     14  C   UNL     1       3.258  -0.780   5.694  0.00  0.00    +0.000 C 
ATOM     15  C   UNL     1       2.881   0.668   5.374  0.00  0.00    +0.002 C 
ATOM     16  C   UNL     1       2.403   0.762   3.924  0.00  0.00    +0.022 C 
ENDBRANCH   9  11
ENDBRANCH   7   9
ENDBRANCH   1   7
BRANCH   1  17
ATOM     17  C   UNL     1       4.507   0.790  -1.761  0.00  0.00    +0.147 C 
BRANCH  17  24
ATOM     18  C   UNL     1       7.597   8.125  -2.279  0.00  0.00    +0.044 C 
ATOM     19  C   UNL     1       7.196   6.692  -2.043  0.00  0.00    -0.048 A 
ATOM     20  C   UNL     1       7.983   5.882  -1.236  0.00  0.00    +0.004 A 
ATOM     21  C   UNL     1       7.638   4.580  -1.010  0.00  0.00    +0.010 A 
ATOM     22  C   UNL     1       6.480   4.058  -1.596  0.00  0.00    -0.001 A 
ATOM     23  C   UNL     1       6.076   2.669  -1.370  0.00  0.00    +0.020 A 
ATOM     24  C   UNL     1       4.947   2.216  -1.968  0.00  0.00    +0.035 A 
ATOM     25  C   UNL     1       4.179   3.078  -2.781  0.00  0.00    +0.254 A 
ATOM     26  O   UNL     1       3.165   2.653  -3.305  0.00  0.00    -0.268 OA
ATOM     27  N   UNL     1       4.539   4.356  -2.990  0.00  0.00    -0.322 N 
ATOM     28  H   UNL     1       3.920   5.004  -3.629  0.00  0.00    +0.169 HD
ATOM     29  C   UNL     1       5.679   4.876  -2.416  0.00  0.00    +0.049 A 
ATOM     30  C   UNL     1       6.052   6.198  -2.632  0.00  0.00    +0.029 A 
ENDBRANCH  17  24
ENDBRANCH   1  17
TORSDOF 6
