REMARK  Name = ZINC36484950
REMARK  12 active torsions:
REMARK  status: ('A' for Active; 'I' for Inactive)
REMARK    1  A    between atoms: C_1  and  C_2
REMARK    2  A    between atoms: C_2  and  C_3
REMARK    3  A    between atoms: C_3  and  C_4
REMARK    4  A    between atoms: C_4  and  N_5
REMARK    5  A    between atoms: C_6  and  C_8
REMARK    6  A    between atoms: C_8  and  C_10
REMARK    7  A    between atoms: C_8  and  N_19
REMARK    8  A    between atoms: C_13  and  N_16
REMARK    9  A    between atoms: N_19  and  C_20
REMARK   10  A    between atoms: C_27  and  C_29
REMARK   11  A    between atoms: C_30  and  O_36
REMARK   12  A    between atoms: C_34  and  O_35
REMARK                            x       y       z     vdW  Elec       q    Type
REMARK                         _______ _______ _______ _____ _____    ______ ____
ROOT
ATOM      1  N   UNL     1       2.831  -5.894   3.941  0.00  0.00    -0.251 N 
ATOM      2  C   UNL     1       3.808  -6.146   3.048  0.00  0.00    +0.259 C 
ATOM      3  O   UNL     1       4.032  -5.355   2.151  0.00  0.00    -0.269 OA
ENDROOT
BRANCH   1   4
ATOM      4  C   UNL     1       2.502  -6.851   4.906  0.00  0.00    +0.039 A 
ATOM      5  C   UNL     1       1.906  -8.047   4.526  0.00  0.00    +0.023 A 
ATOM      6  C   UNL     1       1.583  -8.990   5.481  0.00  0.00    +0.003 A 
ATOM      7  C   UNL     1       1.851  -8.746   6.816  0.00  0.00    +0.020 A 
ATOM      8  C   UNL     1       2.444  -7.555   7.198  0.00  0.00    +0.043 A 
ATOM      9  C   UNL     1       2.776  -6.610   6.246  0.00  0.00    +0.043 A 
ATOM     10 CL   UNL     1       2.779  -7.252   8.875  0.00  0.00    -0.083 Cl
ENDBRANCH   1   4
BRANCH   2  11
ATOM     11  C   UNL     1       4.605  -7.379   3.157  0.00  0.00    +0.120 A 
ATOM     12  C   UNL     1       4.272  -8.506   2.392  0.00  0.00    +0.133 A 
ATOM     13  C   UNL     1       5.029  -9.661   2.503  0.00  0.00    +0.046 A 
ATOM     14  C   UNL     1       6.110  -9.705   3.363  0.00  0.00    +0.007 A 
ATOM     15  C   UNL     1       6.447  -8.600   4.122  0.00  0.00    +0.046 A 
ATOM     16  C   UNL     1       5.707  -7.433   4.023  0.00  0.00    +0.133 A 
BRANCH  16  17
ATOM     17  O   UNL     1       6.044  -6.348   4.765  0.00  0.00    -0.506 OA
ATOM     18  H   UNL     1       5.616  -6.316   5.631  0.00  0.00    +0.292 HD
ENDBRANCH  16  17
BRANCH  12  19
ATOM     19  O   UNL     1       3.211  -8.466   1.547  0.00  0.00    -0.506 OA
ATOM     20  H   UNL     1       3.432  -8.170   0.653  0.00  0.00    +0.292 HD
ENDBRANCH  12  19
ENDBRANCH   2  11
BRANCH   1  21
ATOM     21  C   UNL     1       2.113  -4.618   3.900  0.00  0.00    +0.197 C 
BRANCH  21  22
ATOM     22  C   UNL     1       1.195  -4.520   5.091  0.00  0.00    -0.018 A 
ATOM     23  C   UNL     1       0.237  -5.492   5.307  0.00  0.00    +0.008 A 
ATOM     24  C   UNL     1      -0.605  -5.402   6.400  0.00  0.00    +0.033 A 
ATOM     25  C   UNL     1      -0.489  -4.340   7.276  0.00  0.00    +0.126 A 
ATOM     26  C   UNL     1       0.469  -3.368   7.061  0.00  0.00    +0.033 A 
ATOM     27  C   UNL     1       1.314  -3.460   5.970  0.00  0.00    +0.008 A 
BRANCH  25  28
ATOM     28  N   UNL     1      -1.392  -4.243   8.445  0.00  0.00    +0.056 N 
ATOM     29  O   UNL     1      -2.230  -5.093   8.634  0.00  0.00    -0.126 OA
ATOM     30  O   UNL     1      -1.290  -3.314   9.212  0.00  0.00    -0.126 OA
ENDBRANCH  25  28
ENDBRANCH  21  22
BRANCH  21  32
ATOM     31  N   UNL     1       0.554  -3.445   2.378  0.00  0.00    -0.313 N 
ATOM     32  C   UNL     1       1.302  -4.538   2.632  0.00  0.00    +0.238 C 
ATOM     33  O   UNL     1       1.321  -5.457   1.841  0.00  0.00    -0.273 OA
ATOM     34  H   UNL     1       0.539  -2.711   3.011  0.00  0.00    +0.149 HD
BRANCH  31  35
ATOM     35  C   UNL     1      -0.234  -3.368   1.146  0.00  0.00    +0.104 C 
BRANCH  35  36
ATOM     36  C   UNL     1      -0.984  -2.035   1.104  0.00  0.00    +0.018 C 
BRANCH  36  38
ATOM     37  C   UNL     1      -2.557  -0.620  -0.226  0.00  0.00    +0.004 C 
ATOM     38  C   UNL     1      -1.807  -1.953  -0.183  0.00  0.00    -0.002 C 
ENDBRANCH  36  38
ENDBRANCH  35  36
ENDBRANCH  31  35
ENDBRANCH  21  32
ENDBRANCH   1  21
TORSDOF 11
