REMARK  Name = ZINC40569915
REMARK  6 active torsions:
REMARK  status: ('A' for Active; 'I' for Inactive)
REMARK    1  A    between atoms: C_1  and  N_2
REMARK    2  A    between atoms: C_7  and  C_22
REMARK    3  A    between atoms: C_8  and  C_20
REMARK    4  A    between atoms: C_9  and  S_11
REMARK    5  A    between atoms: S_11  and  C_12
REMARK    6  A    between atoms: C_12  and  C_13
REMARK                            x       y       z     vdW  Elec       q    Type
REMARK                         _______ _______ _______ _____ _____    ______ ____
ROOT
ATOM      1  C   UNL     1      -0.018   1.465   0.010  0.00  0.00    +0.105 C 
ATOM      2  N   UNL     1       0.002  -0.004   0.002  0.00  0.00    -0.301 NA
ATOM      3  C   UNL     1      -1.363  -0.550  -0.057  0.00  0.00    +0.090 C 
ATOM      4  C   UNL     1      -1.279  -2.030  -0.426  0.00  0.00    +0.071 C 
ATOM      5  C   UNL     1      -0.297  -2.733   0.479  0.00  0.00    +0.049 A 
ATOM      6  C   UNL     1       0.625  -2.029   1.217  0.00  0.00    -0.000 A 
ATOM      7  C   UNL     1       1.524  -2.724   2.042  0.00  0.00    +0.043 A 
ATOM      8  C   UNL     1       1.443  -4.133   2.086  0.00  0.00    +0.094 A 
ATOM      9  C   UNL     1       0.466  -4.770   1.301  0.00  0.00    +0.116 A 
ATOM     10  N   UNL     1      -0.349  -4.058   0.543  0.00  0.00    -0.244 NA
ATOM     11  C   UNL     1       0.705  -0.527   1.178  0.00  0.00    +0.121 C 
ENDROOT
BRANCH   7  12
ATOM     12  C   UNL     1       2.527  -2.000   2.842  0.00  0.00    +0.136 A 
ATOM     13  C   UNL     1       2.584  -1.956   4.203  0.00  0.00    +0.050 A 
ATOM     14  C   UNL     1       3.693  -1.157   4.535  0.00  0.00    +0.042 A 
ATOM     15  C   UNL     1       4.254  -0.756   3.376  0.00  0.00    +0.196 A 
ATOM     16  O   UNL     1       3.551  -1.272   2.356  0.00  0.00    -0.463 OA
ENDBRANCH   7  12
BRANCH   8  17
ATOM     17  C   UNL     1       2.335  -4.894   2.908  0.00  0.00    +0.103 C 
ATOM     18  N   UNL     1       3.043  -5.498   3.560  0.00  0.00    -0.191 NA
ENDBRANCH   8  17
BRANCH   9  19
ATOM     19  S   UNL     1       0.328  -6.526   1.329  0.00  0.00    -0.100 S 
BRANCH  19  20
ATOM     20  C   UNL     1      -1.038  -6.876   0.188  0.00  0.00    +0.111 C 
BRANCH  20  21
ATOM     21  C   UNL     1      -1.265  -8.365   0.118  0.00  0.00    -0.037 A 
ATOM     22  C   UNL     1      -0.587  -9.123  -0.818  0.00  0.00    +0.006 A 
ATOM     23  C   UNL     1      -0.795 -10.488  -0.883  0.00  0.00    +0.020 A 
ATOM     24  C   UNL     1      -1.681 -11.095  -0.011  0.00  0.00    +0.041 A 
ATOM     25  C   UNL     1      -2.359 -10.335   0.925  0.00  0.00    +0.020 A 
ATOM     26  C   UNL     1      -2.147  -8.971   0.993  0.00  0.00    +0.006 A 
ATOM     27 CL   UNL     1      -1.943 -12.809  -0.092  0.00  0.00    -0.084 Cl
ENDBRANCH  20  21
ENDBRANCH  19  20
ENDBRANCH   9  19
TORSDOF 5
