REMARK  Name = ZINC18208201
REMARK  9 active torsions:
REMARK  status: ('A' for Active; 'I' for Inactive)
REMARK    1  A    between atoms: C_3  and  C_8
REMARK    2  A    between atoms: C_4  and  O_7
REMARK    3  A    between atoms: N_9  and  C_10
REMARK    4  A    between atoms: C_11  and  S_16
REMARK    5  A    between atoms: S_16  and  S_17
REMARK    6  A    between atoms: S_17  and  C_18
REMARK    7  A    between atoms: C_19  and  N_24
REMARK    8  A    between atoms: C_25  and  C_26
REMARK    9  A    between atoms: C_27  and  O_32
REMARK                            x       y       z     vdW  Elec       q    Type
REMARK                         _______ _______ _______ _____ _____    ______ ____
ROOT
ATOM      1  S   UNL     1       7.426  -0.112   0.628  0.00  0.00    -0.050 S 
ENDROOT
BRANCH   1   3
ATOM      2  C   UNL     1       4.707  -0.528   0.691  0.00  0.00    +0.078 A 
ATOM      3  C   UNL     1       5.977  -1.110   0.532  0.00  0.00    +0.044 A 
ATOM      4  C   UNL     1       6.084  -2.475   0.300  0.00  0.00    +0.017 A 
ATOM      5  C   UNL     1       4.947  -3.255   0.224  0.00  0.00    +0.001 A 
ATOM      6  C   UNL     1       3.694  -2.685   0.380  0.00  0.00    +0.002 A 
ATOM      7  C   UNL     1       3.568  -1.331   0.618  0.00  0.00    +0.029 A 
BRANCH   2   9
ATOM      8  C   UNL     1       4.521   1.262   2.143  0.00  0.00    +0.123 C 
ATOM      9  N   UNL     1       4.589   0.814   0.920  0.00  0.00    -0.254 NA
BRANCH   8  12
ATOM     10  C   UNL     1       5.160  -1.861   4.117  0.00  0.00    +0.001 A 
ATOM     11  C   UNL     1       4.938  -1.015   3.051  0.00  0.00    +0.013 A 
ATOM     12  C   UNL     1       4.759   0.354   3.274  0.00  0.00    +0.034 A 
ATOM     13  C   UNL     1       4.808   0.855   4.584  0.00  0.00    +0.125 A 
ATOM     14  C   UNL     1       5.033  -0.011   5.642  0.00  0.00    +0.046 A 
ATOM     15  C   UNL     1       5.208  -1.361   5.408  0.00  0.00    +0.004 A 
BRANCH  13  16
ATOM     16  O   UNL     1       4.637   2.182   4.814  0.00  0.00    -0.506 OA
ATOM     17  H   UNL     1       3.729   2.428   5.037  0.00  0.00    +0.292 HD
ENDBRANCH  13  16
ENDBRANCH   8  12
ENDBRANCH   2   9
ENDBRANCH   1   3
BRANCH   1  18
ATOM     18  S   UNL     1       8.962  -1.437   0.333  0.00  0.00    -0.050 S 
BRANCH  18  19
ATOM     19  C   UNL     1       9.101  -1.544  -1.420  0.00  0.00    +0.044 A 
ATOM     20  C   UNL     1      10.067  -2.383  -2.002  0.00  0.00    +0.078 A 
ATOM     21  C   UNL     1      10.166  -2.459  -3.392  0.00  0.00    +0.029 A 
ATOM     22  C   UNL     1       9.318  -1.713  -4.185  0.00  0.00    +0.002 A 
ATOM     23  C   UNL     1       8.368  -0.887  -3.609  0.00  0.00    +0.001 A 
ATOM     24  C   UNL     1       8.253  -0.805  -2.235  0.00  0.00    +0.017 A 
BRANCH  20  25
ATOM     25  N   UNL     1      10.905  -3.119  -1.212  0.00  0.00    -0.254 NA
ATOM     26  C   UNL     1      12.051  -2.624  -0.838  0.00  0.00    +0.123 C 
BRANCH  26  27
ATOM     27  C   UNL     1      12.451  -1.280  -1.280  0.00  0.00    +0.034 A 
ATOM     28  C   UNL     1      13.705  -0.762  -0.921  0.00  0.00    +0.125 A 
ATOM     29  C   UNL     1      14.070   0.506  -1.344  0.00  0.00    +0.046 A 
ATOM     30  C   UNL     1      13.204   1.256  -2.116  0.00  0.00    +0.004 A 
ATOM     31  C   UNL     1      11.966   0.749  -2.474  0.00  0.00    +0.001 A 
ATOM     32  C   UNL     1      11.587  -0.512  -2.067  0.00  0.00    +0.013 A 
BRANCH  28  33
ATOM     33  O   UNL     1      14.555  -1.499  -0.162  0.00  0.00    -0.506 OA
ATOM     34  H   UNL     1      15.204  -2.000  -0.673  0.00  0.00    +0.292 HD
ENDBRANCH  28  33
ENDBRANCH  26  27
ENDBRANCH  20  25
ENDBRANCH  18  19
ENDBRANCH   1  18
TORSDOF 9
