REMARK  Name = ZINC39578388
REMARK  12 active torsions:
REMARK  status: ('A' for Active; 'I' for Inactive)
REMARK    1  A    between atoms: C_1  and  C_2
REMARK    2  A    between atoms: C_2  and  C_4
REMARK    3  A    between atoms: C_2  and  S_14
REMARK    4  A    between atoms: N_6  and  C_7
REMARK    5  A    between atoms: C_7  and  C_8
REMARK    6  A    between atoms: C_7  and  C_9
REMARK    7  A    between atoms: C_7  and  C_11
REMARK    8  A    between atoms: C_11  and  C_12
REMARK    9  A    between atoms: C_11  and  C_13
REMARK   10  A    between atoms: S_14  and  C_15
REMARK   11  A    between atoms: C_18  and  C_21
REMARK   12  A    between atoms: N_19  and  N_20
REMARK                            x       y       z     vdW  Elec       q    Type
REMARK                         _______ _______ _______ _____ _____    ______ ____
ROOT
ATOM      1  S   UNL     1      -1.700  -0.632   0.015  0.00  0.00    -0.072 S 
ENDROOT
BRANCH   1   2
ATOM      2  C   UNL     1      -2.335  -0.110   1.573  0.00  0.00    +0.209 A 
ATOM      3  N   UNL     1      -1.692   0.581   2.486  0.00  0.00    -0.121 NA
ATOM      4  N   UNL     1      -2.458   0.785   3.498  0.00  0.00    -0.132 NA
ATOM      5  C   UNL     1      -3.625   0.243   3.293  0.00  0.00    +0.154 A 
ATOM      6  N   UNL     1      -3.590  -0.342   2.057  0.00  0.00    -0.228 N 
BRANCH   5   7
ATOM      7  C   UNL     1      -4.797   0.261   4.240  0.00  0.00    +0.059 C 
ATOM      8  C   UNL     1      -5.208   1.709   4.514  0.00  0.00    +0.011 C 
ATOM      9  C   UNL     1      -6.399   1.728   5.475  0.00  0.00    +0.001 C 
ATOM     10  C   UNL     1      -6.003   1.053   6.790  0.00  0.00    +0.000 C 
ATOM     11  C   UNL     1      -5.592  -0.395   6.516  0.00  0.00    +0.001 C 
ATOM     12  C   UNL     1      -4.402  -0.414   5.554  0.00  0.00    +0.011 C 
ENDBRANCH   5   7
BRANCH   6  13
ATOM     13  N   UNL     1      -4.601  -1.021   1.437  0.00  0.00    -0.295 N 
ATOM     14  H   UNL     1      -4.569  -2.003   1.665  0.00  0.00    +0.163 HD
ATOM     15  H   UNL     1      -5.499  -0.624   1.671  0.00  0.00    +0.163 HD
ENDBRANCH   6  13
ENDBRANCH   1   2
BRANCH   1  17
ATOM     16  C   UNL     1      -0.019   1.526   0.010  0.00  0.00    +0.029 C 
ATOM     17  C   UNL     1       0.002  -0.004   0.002  0.00  0.00    +0.137 C 
BRANCH  17  18
ATOM     18  C   UNL     1       0.707  -0.490  -1.238  0.00  0.00    +0.227 C 
ATOM     19  O   UNL     1       0.066  -0.782  -2.225  0.00  0.00    -0.275 OA
ATOM     20  N   UNL     1       2.051  -0.601  -1.250  0.00  0.00    -0.296 N 
ATOM     21  H   UNL     1       2.563  -0.367  -0.460  0.00  0.00    +0.150 HD
BRANCH  20  22
ATOM     22  C   UNL     1       2.736  -1.073  -2.455  0.00  0.00    +0.121 C 
ATOM     23  C   UNL     1       2.433  -0.127  -3.618  0.00  0.00    +0.048 C 
BRANCH  22  24
ATOM     24  C   UNL     1       4.245  -1.105  -2.204  0.00  0.00    +0.020 C 
ATOM     25  C   UNL     1       4.951  -1.715  -3.416  0.00  0.00    +0.010 C 
ATOM     26  C   UNL     1       4.756   0.320  -1.980  0.00  0.00    +0.010 C 
ENDBRANCH  22  24
BRANCH  22  27
ATOM     27  C   UNL     1       2.265  -2.427  -2.788  0.00  0.00    +0.088 C 
ATOM     28  N   UNL     1       1.902  -3.472  -3.046  0.00  0.00    -0.194 NA
ENDBRANCH  22  27
ENDBRANCH  20  22
ENDBRANCH  17  18
ENDBRANCH   1  17
TORSDOF 8
