REMARK  Name = ZINC67643462
REMARK  7 active torsions:
REMARK  status: ('A' for Active; 'I' for Inactive)
REMARK    1  A    between atoms: C_1  and  C_2
REMARK    2  A    between atoms: C_2  and  C_3
REMARK    3  A    between atoms: C_3  and  C_5
REMARK    4  A    between atoms: C_3  and  O_27
REMARK    5  A    between atoms: C_5  and  N_6
REMARK    6  A    between atoms: C_13  and  C_17
REMARK    7  A    between atoms: C_15  and  O_16
REMARK                            x       y       z     vdW  Elec       q    Type
REMARK                         _______ _______ _______ _____ _____    ______ ____
ROOT
ATOM      1  N   UNL     1       1.366  -2.524   2.489  0.00  0.00    +0.386 N 
ATOM      2  C   UNL     1       0.634  -2.115   3.683  0.00  0.00    -0.037 C 
ATOM      3  C   UNL     1       1.386  -2.346   4.974  0.00  0.00    +0.211 C 
ATOM      4  O   UNL     1       1.572  -3.747   5.212  0.00  0.00    -0.490 OA
ATOM      5  C   UNL     1       2.659  -4.300   4.604  0.00  0.00    +0.163 A 
ATOM      6  C   UNL     1       2.690  -4.418   3.227  0.00  0.00    -0.018 A 
ATOM      7  C   UNL     1       3.793  -4.948   2.594  0.00  0.00    +0.016 A 
ATOM      8  C   UNL     1       4.881  -5.386   3.353  0.00  0.00    +0.011 A 
ATOM      9  C   UNL     1       4.845  -5.284   4.745  0.00  0.00    +0.059 A 
ATOM     10  C   UNL     1       3.737  -4.741   5.369  0.00  0.00    +0.159 A 
ATOM     11  C   UNL     1       1.486  -3.984   2.413  0.00  0.00    -0.039 C 
ATOM     12  H   UNL     1       2.289  -2.117   2.512  0.00  0.00    -0.081 HD
ENDROOT
BRANCH   8  13
ATOM     13  C   UNL     1       6.069  -5.958   2.683  0.00  0.00    +0.110 A 
ATOM     14  N   UNL     1       6.288  -6.129   1.397  0.00  0.00    -0.239 NA
ATOM     15  C   UNL     1       7.428  -6.669   0.923  0.00  0.00    +0.079 A 
ATOM     16  C   UNL     1       7.788  -6.907  -0.425  0.00  0.00    +0.029 A 
ATOM     17  C   UNL     1       8.988  -7.465  -0.738  0.00  0.00    +0.002 A 
ATOM     18  C   UNL     1       9.904  -7.821   0.242  0.00  0.00    +0.001 A 
ATOM     19  C   UNL     1       9.592  -7.605   1.572  0.00  0.00    +0.017 A 
ATOM     20  C   UNL     1       8.383  -7.042   1.899  0.00  0.00    +0.040 A 
ATOM     21  S   UNL     1       7.575  -6.584   3.413  0.00  0.00    -0.067 S 
ENDBRANCH   8  13
BRANCH  10  22
ATOM     22  O   UNL     1       3.699  -4.638   6.724  0.00  0.00    -0.503 OA
ATOM     23  H   UNL     1       3.323  -5.412   7.167  0.00  0.00    +0.292 HD
ENDBRANCH  10  22
BRANCH   1  24
ATOM     24  C   UNL     1       0.655  -2.037   1.299  0.00  0.00    -0.047 C 
BRANCH  24  25
ATOM     25  C   UNL     1       0.665  -0.507   1.289  0.00  0.00    +0.098 C 
BRANCH  25  27
ATOM     26  C   UNL     1      -0.161   1.525   0.094  0.00  0.00    +0.006 C 
ATOM     27  C   UNL     1      -0.061  -0.001   0.042  0.00  0.00    +0.026 C 
ENDBRANCH  25  27
BRANCH  25  28
ATOM     28  O   UNL     1       2.016  -0.040   1.276  0.00  0.00    -0.394 OA
ATOM     29  H   UNL     1       2.526  -0.334   0.509  0.00  0.00    +0.210 HD
ENDBRANCH  25  28
ENDBRANCH  24  25
ENDBRANCH   1  24
TORSDOF 6
