REMARK  Name = ZINC01935461
REMARK  10 active torsions:
REMARK  status: ('A' for Active; 'I' for Inactive)
REMARK    1  A    between atoms: C_1  and  C_2
REMARK    2  A    between atoms: C_2  and  O_3
REMARK    3  A    between atoms: O_3  and  C_4
REMARK    4  A    between atoms: C_4  and  C_6
REMARK    5  A    between atoms: C_7  and  C_24
REMARK    6  A    between atoms: C_10  and  N_11
REMARK    7  A    between atoms: C_12  and  C_14
REMARK    8  A    between atoms: C_14  and  O_15
REMARK    9  A    between atoms: O_15  and  C_16
REMARK   10  A    between atoms: C_19  and  C_23
REMARK                            x       y       z     vdW  Elec       q    Type
REMARK                         _______ _______ _______ _____ _____    ______ ____
ROOT
ATOM      1  C   UNL     1      -1.248  -2.095   0.003  0.00  0.00    +0.095 A 
ATOM      2  C   UNL     1      -1.290  -2.848  -1.236  0.00  0.00    +0.005 A 
ATOM      3  C   UNL     1      -1.341  -4.200  -1.127  0.00  0.00    +0.056 A 
ATOM      4  S   UNL     1      -1.334  -4.469   0.633  0.00  0.00    -0.080 S 
ATOM      5  C   UNL     1      -1.259  -2.829   1.181  0.00  0.00    +0.086 A 
ENDROOT
BRANCH   2   6
ATOM      6  C   UNL     1      -1.277  -2.175  -2.557  0.00  0.00    -0.016 A 
ATOM      7  C   UNL     1      -2.168  -1.136  -2.821  0.00  0.00    +0.010 A 
ATOM      8  C   UNL     1      -2.148  -0.508  -4.050  0.00  0.00    +0.020 A 
ATOM      9  C   UNL     1      -1.253  -0.917  -5.024  0.00  0.00    +0.041 A 
ATOM     10  C   UNL     1      -0.370  -1.953  -4.769  0.00  0.00    +0.020 A 
ATOM     11  C   UNL     1      -0.378  -2.583  -3.541  0.00  0.00    +0.010 A 
ATOM     12 CL   UNL     1      -1.238  -0.129  -6.570  0.00  0.00    -0.084 Cl
ENDBRANCH   2   6
BRANCH   5  13
ATOM     13  N   UNL     1      -1.222  -2.360   2.485  0.00  0.00    -0.277 N 
ATOM     14  C   UNL     1      -1.240  -3.230   3.514  0.00  0.00    +0.255 C 
ATOM     15  O   UNL     1      -1.290  -4.423   3.300  0.00  0.00    -0.272 OA
ATOM     16  H   UNL     1      -1.177  -1.279   2.679  0.00  0.00    +0.155 HD
BRANCH  14  17
ATOM     17  C   UNL     1      -1.200  -2.720   4.932  0.00  0.00    +0.325 C 
BRANCH  17  18
ATOM     18  O   UNL     1      -1.230  -3.826   5.837  0.00  0.00    -0.482 OA
BRANCH  18  19
ATOM     19  C   UNL     1      -1.199  -3.538   7.165  0.00  0.00    +0.135 A 
ATOM     20  C   UNL     1      -1.141  -2.218   7.588  0.00  0.00    +0.047 A 
ATOM     21  C   UNL     1      -1.111  -1.928   8.938  0.00  0.00    +0.007 A 
ATOM     22  C   UNL     1      -1.138  -2.951   9.868  0.00  0.00    -0.049 A 
ATOM     23  C   UNL     1      -1.195  -4.267   9.449  0.00  0.00    +0.022 A 
ATOM     24  C   UNL     1      -1.231  -4.563   8.099  0.00  0.00    +0.060 A 
ATOM     25 BR   UNL     1      -1.316  -6.364   7.527  0.00  0.00    -0.047 Br
ATOM     26  C   UNL     1      -1.105  -2.631  11.340  0.00  0.00    +0.044 C 
ENDBRANCH  18  19
ENDBRANCH  17  18
ENDBRANCH  14  17
ENDBRANCH   5  13
BRANCH   1  27
ATOM     27  C   UNL     1      -1.191  -0.633   0.010  0.00  0.00    +0.342 C 
ATOM     28  O   UNL     1      -2.220   0.016   0.023  0.00  0.00    -0.245 OA
BRANCH  27  29
ATOM     29  O   UNL     1       0.002  -0.004   0.002  0.00  0.00    -0.461 OA
BRANCH  29  31
ATOM     30  C   UNL     1       1.418   1.977  -0.001  0.00  0.00    +0.048 C 
ATOM     31  C   UNL     1      -0.018   1.448   0.010  0.00  0.00    +0.229 C 
ENDBRANCH  29  31
ENDBRANCH  27  29
ENDBRANCH   1  27
TORSDOF 8
