REMARK  Name = ZINC04134670
REMARK  7 active torsions:
REMARK  status: ('A' for Active; 'I' for Inactive)
REMARK    1  A    between atoms: C_1  and  C_2
REMARK    2  A    between atoms: N_5  and  C_11
REMARK    3  A    between atoms: C_7  and  C_10
REMARK    4  A    between atoms: C_14  and  C_16
REMARK    5  A    between atoms: C_17  and  C_18
REMARK    6  A    between atoms: C_17  and  C_20
REMARK    7  A    between atoms: N_28  and  C_29
REMARK                            x       y       z     vdW  Elec       q    Type
REMARK                         _______ _______ _______ _____ _____    ______ ____
ROOT
ATOM      1  C   UNL     1       1.451   7.827   0.027  0.00  0.00    +0.068 C 
ATOM      2  C   UNL     1       2.196   6.657   0.015  0.00  0.00    +0.098 C 
ENDROOT
BRANCH   2   3
ATOM      3  C   UNL     1       1.516   5.352   0.015  0.00  0.00    +0.152 A 
ATOM      4  N   UNL     1       0.214   5.177   0.026  0.00  0.00    -0.227 NA
ATOM      5  C   UNL     1      -0.068   3.851   0.022  0.00  0.00    +0.090 A 
ATOM      6  C   UNL     1      -1.263   3.124   0.030  0.00  0.00    +0.030 A 
ATOM      7  C   UNL     1      -1.226   1.748   0.017  0.00  0.00    +0.002 A 
ATOM      8  C   UNL     1      -0.013   1.076   0.008  0.00  0.00    +0.002 A 
ATOM      9  C   UNL     1       1.175   1.777   0.000  0.00  0.00    +0.028 A 
ATOM     10  C   UNL     1       1.159   3.164   0.007  0.00  0.00    +0.069 A 
ATOM     11  N   UNL     1       2.146   4.133   0.003  0.00  0.00    -0.326 N 
ATOM     12  C   UNL     1       3.592   3.902  -0.013  0.00  0.00    +0.151 C 
ENDBRANCH   2   3
BRANCH   1  16
ATOM     13  C   UNL     1       3.691  10.587   0.020  0.00  0.00    +0.189 A 
ATOM     14  C   UNL     1       2.495  11.268   0.035  0.00  0.00    +0.066 A 
ATOM     15  C   UNL     1       1.479  10.312   0.034  0.00  0.00    +0.051 A 
ATOM     16  C   UNL     1       2.099   9.071   0.027  0.00  0.00    +0.132 A 
ATOM     17  O   UNL     1       3.436   9.269   0.016  0.00  0.00    -0.442 OA
BRANCH  13  21
ATOM     18  C   UNL     1       8.466   9.758  -0.051  0.00  0.00    +0.039 C 
ATOM     19  C   UNL     1       7.366  10.817   0.045  0.00  0.00    +0.133 C 
ATOM     20  C   UNL     1       5.996  10.136  -0.005  0.00  0.00    +0.139 C 
ATOM     21  N   UNL     1       4.944  11.163   0.010  0.00  0.00    -0.296 N 
ATOM     22  C   UNL     1       5.093  12.079  -1.130  0.00  0.00    +0.139 C 
ATOM     23  C   UNL     1       6.473  12.741  -1.069  0.00  0.00    +0.133 C 
ATOM     24  O   UNL     1       7.481  11.727  -1.053  0.00  0.00    -0.371 OA
ATOM     25  C   UNL     1       6.579  13.587   0.202  0.00  0.00    +0.039 C 
ENDBRANCH  13  21
ENDBRANCH   1  16
BRANCH   2  26
ATOM     26  C   UNL     1       3.627   6.719   0.002  0.00  0.00    +0.103 C 
ATOM     27  N   UNL     1       4.761   6.768  -0.008  0.00  0.00    -0.191 NA
ENDBRANCH   2  26
TORSDOF 4
