REMARK  Name = ZINC49020420
REMARK  6 active torsions:
REMARK  status: ('A' for Active; 'I' for Inactive)
REMARK    1  A    between atoms: C_1  and  C_2
REMARK    2  A    between atoms: C_2  and  C_4
REMARK    3  A    between atoms: C_2  and  O_13
REMARK    4  A    between atoms: C_7  and  N_10
REMARK    5  A    between atoms: O_13  and  C_14
REMARK    6  A    between atoms: C_14  and  C_16
REMARK                            x       y       z     vdW  Elec       q    Type
REMARK                         _______ _______ _______ _____ _____    ______ ____
ROOT
ATOM      1  C   UNL     1      -0.019   1.526   0.010  0.00  0.00    +0.057 C 
ATOM      2  C   UNL     1       0.002  -0.004   0.002  0.00  0.00    +0.204 C 
ENDROOT
BRANCH   2   3
ATOM      3  C   UNL     1      -1.412  -0.526   0.013  0.00  0.00    -0.007 A 
ATOM      4  C   UNL     1      -2.106  -0.666  -1.175  0.00  0.00    +0.009 A 
ATOM      5  C   UNL     1      -3.403  -1.144  -1.165  0.00  0.00    +0.033 A 
ATOM      6  C   UNL     1      -4.005  -1.483   0.032  0.00  0.00    +0.126 A 
ATOM      7  C   UNL     1      -3.311  -1.344   1.220  0.00  0.00    +0.033 A 
ATOM      8  C   UNL     1      -2.013  -0.869   1.209  0.00  0.00    +0.009 A 
BRANCH   6   9
ATOM      9  N   UNL     1      -5.394  -1.994   0.043  0.00  0.00    +0.056 N 
ATOM     10  O   UNL     1      -6.002  -2.116  -0.995  0.00  0.00    -0.126 OA
ATOM     11  O   UNL     1      -5.921  -2.291   1.090  0.00  0.00    -0.126 OA
ENDBRANCH   6   9
ENDBRANCH   2   3
BRANCH   2  12
ATOM     12  O   UNL     1       0.671  -0.465  -1.174  0.00  0.00    -0.453 OA
BRANCH  12  13
ATOM     13  C   UNL     1       2.004  -0.651  -1.087  0.00  0.00    +0.346 C 
ATOM     14  O   UNL     1       2.582  -0.428  -0.040  0.00  0.00    -0.244 OA
BRANCH  13  15
ATOM     15  C   UNL     1       2.755  -1.122  -2.251  0.00  0.00    +0.097 A 
ATOM     16  C   UNL     1       4.113  -1.381  -2.370  0.00  0.00    +0.024 A 
ATOM     17  C   UNL     1       4.532  -1.817  -3.603  0.00  0.00    +0.024 A 
ATOM     18  C   UNL     1       3.617  -1.964  -4.596  0.00  0.00    +0.056 A 
ATOM     19  S   UNL     1       2.162  -1.520  -3.884  0.00  0.00    -0.075 S 
ATOM     20 BR   UNL     1       3.913  -2.542  -6.372  0.00  0.00    -0.043 Br
ENDBRANCH  13  15
ENDBRANCH  12  13
ENDBRANCH   2  12
TORSDOF 5
