REMARK  Name = ZINC19983320
REMARK  7 active torsions:
REMARK  status: ('A' for Active; 'I' for Inactive)
REMARK    1  A    between atoms: C_1  and  C_2
REMARK    2  A    between atoms: C_5  and  C_26
REMARK    3  A    between atoms: C_6  and  N_8
REMARK    4  A    between atoms: C_9  and  C_11
REMARK    5  A    between atoms: C_11  and  N_12
REMARK    6  A    between atoms: C_15  and  C_25
REMARK    7  A    between atoms: C_20  and  C_24
REMARK                            x       y       z     vdW  Elec       q    Type
REMARK                         _______ _______ _______ _____ _____    ______ ____
ROOT
ATOM      1  C   UNL     1       3.629   5.998  -0.215  0.00  0.00    +0.209 C 
ENDROOT
BRANCH   1   2
ATOM      2  N   UNL     1       3.341   7.432  -0.301  0.00  0.00    -0.256 N 
ATOM      3  C   UNL     1       3.263   8.214   0.860  0.00  0.00    +0.079 A 
ATOM      4  C   UNL     1       3.758   7.744   2.065  0.00  0.00    +0.030 A 
ATOM      5  C   UNL     1       3.672   8.531   3.198  0.00  0.00    -0.048 A 
ATOM      6  C   UNL     1       3.092   9.785   3.132  0.00  0.00    +0.007 A 
ATOM      7  C   UNL     1       2.595  10.260   1.931  0.00  0.00    +0.048 A 
ATOM      8  C   UNL     1       2.679   9.478   0.793  0.00  0.00    +0.143 A 
ATOM      9  O   UNL     1       2.197   9.930  -0.396  0.00  0.00    -0.478 OA
ATOM     10  C   UNL     1       2.888   9.505  -1.573  0.00  0.00    +0.256 C 
ATOM     11  C   UNL     1       3.151   8.022  -1.502  0.00  0.00    +0.261 C 
ATOM     12  O   UNL     1       3.188   7.361  -2.518  0.00  0.00    -0.271 OA
ATOM     13  C   UNL     1       2.034   9.815  -2.805  0.00  0.00    +0.062 C 
ATOM     14  C   UNL     1       4.211   8.021   4.510  0.00  0.00    +0.044 C 
ENDBRANCH   1   2
BRANCH   1  16
ATOM     15  N   UNL     1       2.356   3.889   0.001  0.00  0.00    -0.284 N 
ATOM     16  C   UNL     1       2.336   5.233  -0.093  0.00  0.00    +0.235 C 
ATOM     17  O   UNL     1       1.279   5.827  -0.081  0.00  0.00    -0.274 OA
ATOM     18  H   UNL     1       3.315   3.357   0.081  0.00  0.00    +0.155 HD
BRANCH  15  24
ATOM     19  C   UNL     1      -2.390   3.583  -1.245  0.00  0.00    +0.044 C 
ATOM     20  C   UNL     1      -1.161   2.998  -0.600  0.00  0.00    -0.049 A 
ATOM     21  C   UNL     1      -1.217   1.746  -0.015  0.00  0.00    +0.004 A 
ATOM     22  C   UNL     1      -0.093   1.208   0.583  0.00  0.00    +0.005 A 
ATOM     23  C   UNL     1       1.094   1.915   0.589  0.00  0.00    -0.029 A 
ATOM     24  C   UNL     1       1.155   3.170  -0.003  0.00  0.00    +0.037 A 
ATOM     25  C   UNL     1       0.022   3.710  -0.598  0.00  0.00    +0.027 A 
ATOM     26  C   UNL     1       2.321   1.325   1.235  0.00  0.00    +0.045 C 
ENDBRANCH  15  24
ENDBRANCH   1  16
TORSDOF 3
