REMARK  Name = ZINC20819319
REMARK  10 active torsions:
REMARK  status: ('A' for Active; 'I' for Inactive)
REMARK    1  A    between atoms: C_1  and  C_2
REMARK    2  A    between atoms: C_2  and  C_3
REMARK    3  A    between atoms: C_2  and  C_4
REMARK    4  A    between atoms: C_2  and  N_5
REMARK    5  A    between atoms: C_9  and  C_11
REMARK    6  A    between atoms: C_11  and  S_12
REMARK    7  A    between atoms: S_12  and  C_13
REMARK    8  A    between atoms: C_17  and  C_20
REMARK    9  A    between atoms: N_28  and  C_29
REMARK   10  A    between atoms: C_29  and  C_30
REMARK                            x       y       z     vdW  Elec       q    Type
REMARK                         _______ _______ _______ _____ _____    ______ ____
ROOT
ATOM      1  C   UNL     1       2.302  -0.077  -0.020  0.00  0.00    +0.173 A 
ATOM      2  N   UNL     1       1.137  -0.693  -0.013  0.00  0.00    -0.216 NA
ATOM      3  C   UNL     1       0.002  -0.004   0.002  0.00  0.00    +0.117 A 
ATOM      4  C   UNL     1      -0.017   1.401   0.010  0.00  0.00    +0.080 A 
ATOM      5  C   UNL     1      -1.348   2.000   0.032  0.00  0.00    +0.004 A 
ATOM      6  C   UNL     1      -2.429   1.185   0.033  0.00  0.00    +0.056 A 
ATOM      7  S   UNL     1      -1.716  -0.448   0.017  0.00  0.00    -0.076 S 
ATOM      8  C   UNL     1       1.260   2.042   0.001  0.00  0.00    +0.264 A 
ATOM      9  O   UNL     1       1.341   3.259   0.006  0.00  0.00    -0.267 OA
ATOM     10  N   UNL     1       2.373   1.286  -0.013  0.00  0.00    -0.283 N 
ENDROOT
BRANCH   5  11
ATOM     11  C   UNL     1      -1.513   3.473   0.042  0.00  0.00    -0.017 A 
ATOM     12  C   UNL     1      -0.812   4.250   0.964  0.00  0.00    +0.008 A 
ATOM     13  C   UNL     1      -0.966   5.621   0.965  0.00  0.00    +0.001 A 
ATOM     14  C   UNL     1      -1.822   6.224   0.061  0.00  0.00    +0.000 A 
ATOM     15  C   UNL     1      -2.524   5.459  -0.853  0.00  0.00    +0.001 A 
ATOM     16  C   UNL     1      -2.374   4.087  -0.867  0.00  0.00    +0.008 A 
ENDBRANCH   5  11
BRANCH   1  17
ATOM     17  S   UNL     1       3.787  -1.025  -0.040  0.00  0.00    -0.078 S 
BRANCH  17  18
ATOM     18  C   UNL     1       3.093  -2.697  -0.042  0.00  0.00    +0.173 C 
BRANCH  18  23
ATOM     19  N   UNL     1       4.651  -7.244  -0.081  0.00  0.00    -0.294 N 
ATOM     20  C   UNL     1       4.932  -5.926  -0.077  0.00  0.00    +0.306 C 
ATOM     21  O   UNL     1       6.088  -5.551  -0.086  0.00  0.00    -0.252 OA
ATOM     22  N   UNL     1       3.931  -5.024  -0.062  0.00  0.00    -0.239 N 
ATOM     23  C   UNL     1       4.212  -3.706  -0.058  0.00  0.00    +0.231 C 
ATOM     24  O   UNL     1       5.365  -3.332  -0.067  0.00  0.00    -0.274 OA
ATOM     25  H   UNL     1       3.605  -7.584  -0.073  0.00  0.00    +0.151 HD
ATOM     26  H   UNL     1       2.885  -5.363  -0.054  0.00  0.00    +0.159 HD
BRANCH  19  28
ATOM     27  C   UNL     1       6.613  -8.037   1.145  0.00  0.00    +0.031 C 
ATOM     28  C   UNL     1       5.739  -8.225  -0.097  0.00  0.00    +0.028 C 
ATOM     29  C   UNL     1       5.152  -9.638  -0.099  0.00  0.00    +0.031 C 
ATOM     30  C   UNL     1       6.589  -8.024  -1.353  0.00  0.00    +0.031 C 
ENDBRANCH  19  28
ENDBRANCH  18  23
ENDBRANCH  17  18
ENDBRANCH   1  17
BRANCH  10  31
ATOM     31  C   UNL     1       3.685   1.938  -0.022  0.00  0.00    +0.154 C 
BRANCH  31  32
ATOM     32  C   UNL     1       4.122   2.169  -1.446  0.00  0.00    -0.013 C 
ATOM     33  C   UNL     1       4.450   3.374  -1.843  0.00  0.00    +0.005 C 
ENDBRANCH  31  32
ENDBRANCH  10  31
TORSDOF 7
