REMARK  Name = ZINC04820482
REMARK  5 active torsions:
REMARK  status: ('A' for Active; 'I' for Inactive)
REMARK    1  A    between atoms: C_1  and  O_2
REMARK    2  A    between atoms: O_2  and  C_3
REMARK    3  A    between atoms: C_5  and  C_12
REMARK    4  A    between atoms: C_8  and  O_9
REMARK    5  A    between atoms: O_9  and  C_10
REMARK                            x       y       z     vdW  Elec       q    Type
REMARK                         _______ _______ _______ _____ _____    ______ ____
ROOT
ATOM      1  C   UNL     1      -0.787   2.893   1.346  0.00  0.00    +0.164 A 
ATOM      2  C   UNL     1      -0.260   3.747   0.397  0.00  0.00    +0.068 A 
ATOM      3  C   UNL     1      -0.370   5.130   0.567  0.00  0.00    +0.056 A 
ATOM      4  C   UNL     1      -1.014   5.642   1.696  0.00  0.00    +0.037 A 
ATOM      5  C   UNL     1      -1.538   4.784   2.640  0.00  0.00    +0.060 A 
ATOM      6  C   UNL     1      -1.433   3.410   2.468  0.00  0.00    +0.175 A 
ATOM      7  I   UNL     1      -2.502   5.555   4.332  0.00  0.00    -0.040 I 
ENDROOT
BRANCH   1   9
ATOM      8  C   UNL     1      -0.013   1.086   0.008  0.00  0.00    +0.277 C 
ATOM      9  O   UNL     1      -0.682   1.547   1.184  0.00  0.00    -0.491 OA
ENDBRANCH   1   9
BRANCH   6  10
ATOM     10  O   UNL     1      -1.956   2.569   3.397  0.00  0.00    -0.490 OA
ATOM     11  C   UNL     1      -1.100   2.178   4.473  0.00  0.00    +0.277 C 
ENDBRANCH   6  10
BRANCH   3  12
ATOM     12  C   UNL     1       0.175   6.019  -0.414  0.00  0.00    +0.099 C 
ATOM     13  N   UNL     1       0.607   6.725  -1.192  0.00  0.00    -0.191 NA
ENDBRANCH   3  12
TORSDOF 3
