REMARK  Name = ZINC08327461
REMARK  7 active torsions:
REMARK  status: ('A' for Active; 'I' for Inactive)
REMARK    1  A    between atoms: C_1  and  C_2
REMARK    2  A    between atoms: C_2  and  C_4
REMARK    3  A    between atoms: C_2  and  N_50
REMARK    4  A    between atoms: C_11  and  C_12
REMARK    5  A    between atoms: C_11  and  N_50
REMARK    6  A    between atoms: C_12  and  C_14
REMARK    7  A    between atoms: C_12  and  C_19
REMARK                            x       y       z     vdW  Elec       q    Type
REMARK                         _______ _______ _______ _____ _____    ______ ____
ROOT
ATOM      1  C   UNL     1       2.405   3.366  -0.003  0.00  0.00    +0.041 C 
ENDROOT
BRANCH   1   2
ATOM      2  C   UNL     1       2.012   4.146   1.224  0.00  0.00    -0.016 A 
ATOM      3  C   UNL     1       0.776   4.561   1.545  0.00  0.00    +0.087 A 
ATOM      4  N   UNL     1       0.805   5.239   2.733  0.00  0.00    -0.360 N 
ATOM      5  H   UNL     1       0.033   5.633   3.169  0.00  0.00    +0.165 HD
ATOM      6  C   UNL     1       2.093   5.280   3.218  0.00  0.00    +0.047 A 
ATOM      7  C   UNL     1       2.905   4.592   2.297  0.00  0.00    +0.003 A 
ATOM      8  C   UNL     1       4.275   4.466   2.534  0.00  0.00    +0.010 A 
ATOM      9  C   UNL     1       4.821   5.011   3.662  0.00  0.00    +0.001 A 
ATOM     10  C   UNL     1       4.024   5.687   4.575  0.00  0.00    +0.002 A 
ATOM     11  C   UNL     1       2.671   5.829   4.357  0.00  0.00    +0.026 A 
ENDBRANCH   1   2
BRANCH   1  12
ATOM     12  C   UNL     1       1.664   2.054  -0.023  0.00  0.00    -0.005 A 
ATOM     13  C   UNL     1       2.161   0.793  -0.020  0.00  0.00    +0.012 A 
ATOM     14  C   UNL     1       1.282  -0.274  -0.041  0.00  0.00    +0.008 A 
ATOM     15  C   UNL     1      -0.050  -0.028  -0.064  0.00  0.00    +0.045 A 
ATOM     16  S   UNL     1      -0.096   1.757  -0.056  0.00  0.00    -0.101 S 
ENDBRANCH   1  12
BRANCH   1  17
ATOM     17  C   UNL     1       2.050   4.171  -1.255  0.00  0.00    -0.068 C 
BRANCH  17  18
ATOM     18  N   UNL     1       2.545   3.456  -2.446  0.00  0.00    +0.387 N 
ATOM     19  H   UNL     1       3.564   3.349  -2.378  0.00  0.00    -0.085 HD
ATOM     20  H   UNL     1       2.107   2.528  -2.492  0.00  0.00    -0.085 HD
BRANCH  18  22
ATOM     21  C   UNL     1       0.799   3.855  -4.124  0.00  0.00    -0.004 C 
ATOM     22  C   UNL     1       2.216   4.210  -3.670  0.00  0.00    +0.013 C 
BRANCH  22  23
ATOM     23  C   UNL     1       3.197   3.846  -4.755  0.00  0.00    +0.201 C 
ATOM     24  O   UNL     1       3.760   2.772  -4.727  0.00  0.00    -0.277 OA
ATOM     25  N   UNL     1       3.448   4.713  -5.755  0.00  0.00    -0.303 N 
ATOM     26  C   UNL     1       2.917   6.080  -5.858  0.00  0.00    +0.108 C 
ATOM     27  C   UNL     1       3.452   6.682  -7.174  0.00  0.00    +0.020 C 
ATOM     28  C   UNL     1       3.785   5.424  -8.019  0.00  0.00    +0.020 C 
ATOM     29  C   UNL     1       4.296   4.446  -6.931  0.00  0.00    +0.108 C 
ENDBRANCH  22  23
ENDBRANCH  18  22
ENDBRANCH  17  18
ENDBRANCH   1  17
TORSDOF 6
