REMARK  Name = ZINC36579107
REMARK  15 active torsions:
REMARK  status: ('A' for Active; 'I' for Inactive)
REMARK    1  A    between atoms: C_1  and  C_2
REMARK    2  A    between atoms: C_2  and  C_3
REMARK    3  A    between atoms: C_2  and  C_4
REMARK    4  A    between atoms: C_2  and  N_5
REMARK    5  A    between atoms: C_6  and  C_8
REMARK    6  A    between atoms: C_8  and  C_10
REMARK    7  A    between atoms: C_8  and  N_17
REMARK    8  A    between atoms: C_14  and  O_16
REMARK    9  A    between atoms: N_17  and  C_34
REMARK   10  A    between atoms: C_18  and  C_20
REMARK   11  A    between atoms: C_20  and  C_28
REMARK   12  A    between atoms: C_21  and  C_22
REMARK   13  A    between atoms: C_34  and  C_35
REMARK   14  A    between atoms: C_34  and  C_36
REMARK   15  A    between atoms: C_34  and  C_37
REMARK                            x       y       z     vdW  Elec       q    Type
REMARK                         _______ _______ _______ _____ _____    ______ ____
ROOT
ATOM      1  N   UNL     1       4.138  -1.502  -2.464  0.00  0.00    -0.277 N 
ATOM      2  C   UNL     1       4.633  -0.252  -2.559  0.00  0.00    +0.248 C 
ATOM      3  O   UNL     1       4.407   0.418  -3.549  0.00  0.00    -0.270 OA
ENDROOT
BRANCH   1   4
ATOM      4  C   UNL     1       4.400  -2.304  -1.266  0.00  0.00    +0.030 C 
ATOM      5  C   UNL     1       4.309  -3.790  -1.618  0.00  0.00    +0.031 C 
ATOM      6  C   UNL     1       5.801  -1.990  -0.738  0.00  0.00    +0.031 C 
ATOM      7  C   UNL     1       3.362  -1.969  -0.193  0.00  0.00    +0.031 C 
ENDBRANCH   1   4
BRANCH   2   8
ATOM      8  C   UNL     1       5.447   0.303  -1.466  0.00  0.00    +0.045 C 
ATOM      9  C   UNL     1       4.843   0.902  -0.405  0.00  0.00    +0.021 C 
BRANCH   9  10
ATOM     10  C   UNL     1       3.414   1.241  -0.468  0.00  0.00    -0.024 A 
ATOM     11  C   UNL     1       2.623   1.171   0.684  0.00  0.00    +0.008 A 
ATOM     12  C   UNL     1       1.284   1.491   0.616  0.00  0.00    +0.001 A 
ATOM     13  C   UNL     1       0.722   1.882  -0.587  0.00  0.00    +0.000 A 
ATOM     14  C   UNL     1       1.498   1.954  -1.731  0.00  0.00    +0.001 A 
ATOM     15  C   UNL     1       2.840   1.643  -1.679  0.00  0.00    +0.008 A 
ENDBRANCH   9  10
BRANCH   8  16
ATOM     16  C   UNL     1       6.924   0.209  -1.520  0.00  0.00    -0.013 A 
ATOM     17  C   UNL     1       7.603   0.535  -2.694  0.00  0.00    +0.008 A 
ATOM     18  C   UNL     1       8.979   0.446  -2.739  0.00  0.00    +0.001 A 
ATOM     19  C   UNL     1       9.685   0.033  -1.623  0.00  0.00    +0.000 A 
ATOM     20  C   UNL     1       9.017  -0.292  -0.456  0.00  0.00    +0.001 A 
ATOM     21  C   UNL     1       7.641  -0.201  -0.397  0.00  0.00    +0.008 A 
ENDBRANCH   8  16
ENDBRANCH   2   8
BRANCH   1  22
ATOM     22  C   UNL     1       3.340  -2.059  -3.559  0.00  0.00    +0.193 C 
BRANCH  22  23
ATOM     23  C   UNL     1       2.044  -1.298  -3.673  0.00  0.00    -0.015 A 
ATOM     24  C   UNL     1       1.971  -0.174  -4.476  0.00  0.00    +0.006 A 
ATOM     25  C   UNL     1       0.784   0.526  -4.583  0.00  0.00    +0.004 A 
ATOM     26  C   UNL     1      -0.333   0.105  -3.887  0.00  0.00    +0.045 A 
ATOM     27  C   UNL     1      -0.262  -1.021  -3.081  0.00  0.00    +0.117 A 
ATOM     28  C   UNL     1       0.929  -1.726  -2.980  0.00  0.00    +0.051 A 
BRANCH  27  29
ATOM     29  O   UNL     1      -1.359  -1.437  -2.395  0.00  0.00    -0.507 OA
ATOM     30  H   UNL     1      -1.913  -2.062  -2.882  0.00  0.00    +0.292 HD
ENDBRANCH  27  29
ENDBRANCH  22  23
BRANCH  22  32
ATOM     31  N   UNL     1       3.606  -2.474  -5.983  0.00  0.00    -0.309 N 
ATOM     32  C   UNL     1       4.107  -1.942  -4.851  0.00  0.00    +0.239 C 
ATOM     33  O   UNL     1       5.175  -1.368  -4.872  0.00  0.00    -0.273 OA
ATOM     34  H   UNL     1       2.751  -2.933  -5.966  0.00  0.00    +0.149 HD
BRANCH  31  36
ATOM     35  C   UNL     1       5.716  -3.035  -7.085  0.00  0.00    +0.031 C 
ATOM     36  C   UNL     1       4.351  -2.360  -7.239  0.00  0.00    +0.026 C 
ATOM     37  C   UNL     1       4.550  -0.882  -7.582  0.00  0.00    +0.031 C 
ATOM     38  C   UNL     1       3.568  -3.044  -8.361  0.00  0.00    +0.031 C 
ENDBRANCH  31  36
ENDBRANCH  22  32
ENDBRANCH   1  22
TORSDOF 9
