REMARK  Name = ZINC08791877
REMARK  8 active torsions:
REMARK  status: ('A' for Active; 'I' for Inactive)
REMARK    1  A    between atoms: C_1  and  C_2
REMARK    2  A    between atoms: C_2  and  C_3
REMARK    3  A    between atoms: C_10  and  O_20
REMARK    4  A    between atoms: C_16  and  C_18
REMARK    5  A    between atoms: C_16  and  C_19
REMARK    6  A    between atoms: O_20  and  C_21
REMARK    7  A    between atoms: C_21  and  C_22
REMARK    8  A    between atoms: C_22  and  N_24
REMARK                            x       y       z     vdW  Elec       q    Type
REMARK                         _______ _______ _______ _____ _____    ______ ____
ROOT
ATOM      1  C   UNL     1      -1.363  -0.633   0.006  0.00  0.00    -0.027 A 
ATOM      2  C   UNL     1      -2.009  -0.899  -1.160  0.00  0.00    +0.096 A 
ATOM      3  C   UNL     1      -3.331  -1.386  -1.134  0.00  0.00    +0.337 A 
ATOM      4  O   UNL     1      -3.904  -1.621  -2.184  0.00  0.00    -0.245 OA
ATOM      5  O   UNL     1      -3.970  -1.597   0.029  0.00  0.00    -0.422 OA
ATOM      6  C   UNL     1      -3.363  -1.342   1.210  0.00  0.00    +0.149 A 
ATOM      7  C   UNL     1      -2.042  -0.861   1.230  0.00  0.00    +0.063 A 
ATOM      8  C   UNL     1      -1.412  -0.605   2.460  0.00  0.00    +0.136 A 
ATOM      9  C   UNL     1      -2.098  -0.835   3.635  0.00  0.00    +0.092 A 
ATOM     10  C   UNL     1      -3.408  -1.316   3.611  0.00  0.00    +0.131 A 
ATOM     11  C   UNL     1      -4.040  -1.558   2.404  0.00  0.00    +0.038 A 
ATOM     12  C   UNL     1      -5.458  -2.066   2.346  0.00  0.00    +0.046 C 
ATOM     13  C   UNL     1      -5.857  -2.641   3.707  0.00  0.00    +0.052 C 
ATOM     14  C   UNL     1      -5.463  -1.629   4.790  0.00  0.00    +0.105 C 
ATOM     15  O   UNL     1      -4.033  -1.528   4.798  0.00  0.00    -0.486 OA
ATOM     16  C   UNL     1      -6.094  -0.270   4.480  0.00  0.00    +0.055 C 
ATOM     17  C   UNL     1      -5.945  -2.122   6.156  0.00  0.00    +0.055 C 
ENDROOT
BRANCH   1  19
ATOM     18  C   UNL     1       1.025  -1.278   0.186  0.00  0.00    +0.009 C 
ATOM     19  C   UNL     1       0.051  -0.113  -0.002  0.00  0.00    +0.033 C 
ENDBRANCH   1  19
BRANCH   8  20
ATOM     20  O   UNL     1      -0.139  -0.136   2.493  0.00  0.00    -0.482 OA
BRANCH  20  21
ATOM     21  C   UNL     1       0.433   0.099   3.780  0.00  0.00    +0.326 C 
BRANCH  21  22
ATOM     22  C   UNL     1       1.841   0.613   3.618  0.00  0.00    +0.277 C 
ATOM     23  O   UNL     1       2.309   0.763   2.506  0.00  0.00    -0.270 OA
BRANCH  22  24
ATOM     24  N   UNL     1       2.570   0.902   4.691  0.00  0.00    -0.144 NA
ATOM     25  C   UNL     1       3.773   1.454   4.549  0.00  0.00    +0.199 A 
ATOM     26  N   UNL     1       4.308   1.883   3.376  0.00  0.00    -0.326 N 
ATOM     27  H   UNL     1       3.880   1.840   2.507  0.00  0.00    +0.169 HD
ATOM     28  C   UNL     1       5.574   2.397   3.637  0.00  0.00    +0.065 A 
ATOM     29  C   UNL     1       6.552   2.960   2.830  0.00  0.00    +0.028 A 
ATOM     30  C   UNL     1       7.740   3.390   3.387  0.00  0.00    +0.002 A 
ATOM     31  C   UNL     1       7.960   3.261   4.748  0.00  0.00    +0.002 A 
ATOM     32  C   UNL     1       6.994   2.701   5.559  0.00  0.00    +0.028 A 
ATOM     33  C   UNL     1       5.796   2.266   5.010  0.00  0.00    +0.065 A 
ATOM     34  N   UNL     1       4.658   1.681   5.555  0.00  0.00    -0.326 N 
ATOM     35  H   UNL     1       4.521   1.470   6.492  0.00  0.00    +0.169 HD
ENDBRANCH  22  24
ENDBRANCH  21  22
ENDBRANCH  20  21
ENDBRANCH   8  20
TORSDOF 5
