REMARK  Name = ZINC20681409
REMARK  6 active torsions:
REMARK  status: ('A' for Active; 'I' for Inactive)
REMARK    1  A    between atoms: C_4  and  N_7
REMARK    2  A    between atoms: N_7  and  S_8
REMARK    3  A    between atoms: S_8  and  C_11
REMARK    4  A    between atoms: C_24  and  C_27
REMARK    5  A    between atoms: C_30  and  O_34
REMARK    6  A    between atoms: C_32  and  O_33
REMARK                            x       y       z     vdW  Elec       q    Type
REMARK                         _______ _______ _______ _____ _____    ______ ____
ROOT
ATOM      1  C   UNL     1      -0.120   5.705   0.618  0.00  0.00    +0.109 A 
ATOM      2  C   UNL     1       0.383   4.417   0.643  0.00  0.00    +0.030 A 
ATOM      3  C   UNL     1      -0.485   3.343   0.669  0.00  0.00    +0.025 A 
ATOM      4  C   UNL     1      -1.857   3.559   0.663  0.00  0.00    +0.031 A 
ATOM      5  C   UNL     1      -2.366   4.848   0.645  0.00  0.00    -0.018 A 
ATOM      6  C   UNL     1      -1.483   5.919   0.619  0.00  0.00    +0.034 A 
ATOM      7  C   UNL     1      -3.836   5.129   0.648  0.00  0.00    +0.049 C 
ATOM      8  C   UNL     1      -4.309   5.567  -0.730  0.00  0.00    -0.023 C 
ATOM      9  C   UNL     1      -5.507   5.092  -0.969  0.00  0.00    -0.030 C 
ATOM     10  C   UNL     1      -5.999   4.275   0.210  0.00  0.00    +0.033 C 
ATOM     11  C   UNL     1      -4.687   3.882   0.950  0.00  0.00    +0.029 C 
ATOM     12  C   UNL     1      -4.107   2.660   0.232  0.00  0.00    +0.108 C 
ATOM     13  N   UNL     1      -2.724   2.460   0.677  0.00  0.00    -0.336 N 
ATOM     14  H   UNL     1      -2.391   1.466   1.010  0.00  0.00    +0.147 HD
ENDROOT
BRANCH  12  15
ATOM     15  C   UNL     1      -4.131   2.890  -1.257  0.00  0.00    +0.015 A 
ATOM     16  C   UNL     1      -3.099   3.579  -1.866  0.00  0.00    +0.012 A 
ATOM     17  C   UNL     1      -3.115   3.787  -3.231  0.00  0.00    +0.046 A 
ATOM     18  C   UNL     1      -4.174   3.314  -3.994  0.00  0.00    +0.120 A 
ATOM     19  C   UNL     1      -5.213   2.627  -3.385  0.00  0.00    +0.091 A 
ATOM     20  C   UNL     1      -5.192   2.415  -2.015  0.00  0.00    +0.125 A 
BRANCH  20  21
ATOM     21  O   UNL     1      -6.209   1.742  -1.415  0.00  0.00    -0.506 OA
ATOM     22  H   UNL     1      -7.049   1.366  -2.016  0.00  0.00    +0.292 HD
ENDBRANCH  20  21
BRANCH  18  23
ATOM     23  O   UNL     1      -4.192   3.523  -5.336  0.00  0.00    -0.507 OA
ATOM     24  H   UNL     1      -5.032   3.148  -5.940  0.00  0.00    +0.292 HD
ENDBRANCH  18  23
ENDBRANCH  12  15
BRANCH   1  25
ATOM     25  S   UNL     1       0.984   7.077   0.583  0.00  0.00    +0.072 S 
ATOM     26  O   UNL     1       0.235   8.211   1.000  0.00  0.00    -0.150 OA
ATOM     27  O   UNL     1       2.170   6.662   1.246  0.00  0.00    -0.150 OA
BRANCH  25  28
ATOM     28  N   UNL     1       1.393   7.337  -1.001  0.00  0.00    -0.216 N 
ATOM     29  H   UNL     1       2.432   7.191  -1.331  0.00  0.00    +0.174 HD
BRANCH  28  33
ATOM     30  C   UNL     1      -1.511   8.540  -3.732  0.00  0.00    +0.000 A 
ATOM     31  C   UNL     1      -1.029   9.438  -2.797  0.00  0.00    +0.002 A 
ATOM     32  C   UNL     1      -0.066   9.042  -1.889  0.00  0.00    +0.024 A 
ATOM     33  C   UNL     1       0.418   7.740  -1.917  0.00  0.00    +0.048 A 
ATOM     34  C   UNL     1      -0.064   6.843  -2.861  0.00  0.00    +0.024 A 
ATOM     35  C   UNL     1      -1.031   7.244  -3.762  0.00  0.00    +0.002 A 
ENDBRANCH  28  33
ENDBRANCH  25  28
ENDBRANCH   1  25
TORSDOF 6
