REMARK  Name = ZINC39911519
REMARK  11 active torsions:
REMARK  status: ('A' for Active; 'I' for Inactive)
REMARK    1  A    between atoms: C_1  and  C_2
REMARK    2  A    between atoms: C_4  and  C_37
REMARK    3  A    between atoms: C_5  and  O_36
REMARK    4  A    between atoms: C_6  and  C_8
REMARK    5  A    between atoms: N_16  and  C_33
REMARK    6  A    between atoms: C_17  and  C_19
REMARK    7  A    between atoms: C_23  and  O_25
REMARK    8  A    between atoms: O_25  and  C_26
REMARK    9  A    between atoms: C_26  and  C_27
REMARK   10  A    between atoms: C_33  and  C_34
REMARK   11  A    between atoms: C_34  and  O_35
REMARK                            x       y       z     vdW  Elec       q    Type
REMARK                         _______ _______ _______ _____ _____    ______ ____
ROOT
ATOM      1  C   UNL     1      -0.229  -3.133   2.806  0.00  0.00    +0.102 A 
ATOM      2  C   UNL     1       0.021  -2.398   3.970  0.00  0.00    +0.035 A 
ATOM      3  C   UNL     1       0.077  -3.324   4.995  0.00  0.00    +0.126 A 
ATOM      4  N   UNL     1      -0.135  -4.543   4.417  0.00  0.00    -0.272 N 
ATOM      5  H   UNL     1      -0.152  -5.389   4.892  0.00  0.00    +0.189 HD
ATOM      6  N   UNL     1      -0.314  -4.403   3.152  0.00  0.00    -0.173 NA
ATOM      7  C   UNL     1       0.338  -2.613   6.252  0.00  0.00    +0.266 C 
ATOM      8  O   UNL     1       0.446  -3.144   7.340  0.00  0.00    -0.268 OA
ATOM      9  N   UNL     1       0.442  -1.290   6.029  0.00  0.00    -0.283 N 
ATOM     10  C   UNL     1       0.253  -1.049   4.593  0.00  0.00    +0.141 C 
ENDROOT
BRANCH   1  16
ATOM     11  C   UNL     1       1.366  -0.107  -0.830  0.00  0.00    +0.044 C 
ATOM     12  C   UNL     1       0.386  -1.131  -0.316  0.00  0.00    -0.049 A 
ATOM     13  C   UNL     1      -0.653  -1.557  -1.124  0.00  0.00    +0.010 A 
ATOM     14  C   UNL     1      -1.556  -2.495  -0.661  0.00  0.00    -0.008 A 
ATOM     15  C   UNL     1      -1.425  -3.013   0.617  0.00  0.00    +0.129 A 
ATOM     16  C   UNL     1      -0.377  -2.584   1.436  0.00  0.00    +0.044 A 
ATOM     17  C   UNL     1       0.532  -1.643   0.957  0.00  0.00    +0.017 A 
ATOM     18  C   UNL     1      -2.685  -2.954  -1.548  0.00  0.00    +0.047 C 
BRANCH  15  19
ATOM     19  O   UNL     1      -2.313  -3.935   1.073  0.00  0.00    -0.506 OA
ATOM     20  H   UNL     1      -2.059  -4.850   0.890  0.00  0.00    +0.292 HD
ENDBRANCH  15  19
ENDBRANCH   1  16
BRANCH  10  21
ATOM     21  C   UNL     1      -0.944  -0.162   4.369  0.00  0.00    -0.019 A 
ATOM     22  C   UNL     1      -2.105  -0.372   5.091  0.00  0.00    +0.006 A 
ATOM     23  C   UNL     1      -3.205   0.441   4.888  0.00  0.00    +0.004 A 
ATOM     24  C   UNL     1      -3.147   1.464   3.962  0.00  0.00    +0.045 A 
ATOM     25  C   UNL     1      -1.985   1.677   3.236  0.00  0.00    +0.121 A 
ATOM     26  C   UNL     1      -0.880   0.864   3.446  0.00  0.00    +0.051 A 
BRANCH  25  27
ATOM     27  O   UNL     1      -1.926   2.683   2.325  0.00  0.00    -0.487 OA
BRANCH  27  28
ATOM     28  C   UNL     1      -3.099   3.484   2.165  0.00  0.00    +0.264 C 
BRANCH  28  29
ATOM     29  C   UNL     1      -2.848   4.540   1.120  0.00  0.00    -0.010 A 
ATOM     30  C   UNL     1      -2.334   5.769   1.490  0.00  0.00    +0.007 A 
ATOM     31  C   UNL     1      -2.104   6.739   0.531  0.00  0.00    +0.000 A 
ATOM     32  C   UNL     1      -2.387   6.479  -0.796  0.00  0.00    +0.000 A 
ATOM     33  C   UNL     1      -2.900   5.250  -1.166  0.00  0.00    +0.000 A 
ATOM     34  C   UNL     1      -3.127   4.279  -0.208  0.00  0.00    +0.007 A 
ENDBRANCH  28  29
ENDBRANCH  27  28
ENDBRANCH  25  27
ENDBRANCH  10  21
BRANCH   9  35
ATOM     35  C   UNL     1       0.700  -0.267   7.045  0.00  0.00    +0.137 C 
BRANCH  35  36
ATOM     36  C   UNL     1       2.209  -0.057   7.186  0.00  0.00    +0.175 C 
BRANCH  36  37
ATOM     37  O   UNL     1       2.732   0.478   5.969  0.00  0.00    -0.393 OA
ATOM     38  H   UNL     1       3.685   0.637   5.987  0.00  0.00    +0.209 HD
ENDBRANCH  36  37
ENDBRANCH  35  36
ENDBRANCH   9  35
TORSDOF 9
