REMARK  Name = ZINC34716105
REMARK  9 active torsions:
REMARK  status: ('A' for Active; 'I' for Inactive)
REMARK    1  A    between atoms: C_1  and  C_2
REMARK    2  A    between atoms: C_2  and  C_3
REMARK    3  A    between atoms: C_3  and  C_4
REMARK    4  A    between atoms: C_4  and  N_5
REMARK    5  A    between atoms: C_10  and  C_24
REMARK    6  A    between atoms: C_14  and  C_16
REMARK    7  A    between atoms: C_20  and  C_22
REMARK    8  A    between atoms: N_26  and  C_27
REMARK    9  A    between atoms: C_27  and  C_28
REMARK                            x       y       z     vdW  Elec       q    Type
REMARK                         _______ _______ _______ _____ _____    ______ ____
ROOT
ATOM      1  N   UNL     1      -2.814  -2.790  -1.003  0.00  0.00    -0.299 N 
ATOM      2  C   UNL     1      -3.049  -4.070  -0.651  0.00  0.00    +0.303 C 
ATOM      3  O   UNL     1      -2.147  -4.885  -0.686  0.00  0.00    -0.253 OA
ATOM      4  N   UNL     1      -4.283  -4.446  -0.262  0.00  0.00    -0.278 N 
ATOM      5  C   UNL     1      -5.407  -3.503  -0.323  0.00  0.00    +0.122 C 
ATOM      6  C   UNL     1      -6.075  -3.441   1.054  0.00  0.00    +0.092 C 
ATOM      7  C   UNL     1      -6.463  -4.854   1.493  0.00  0.00    +0.016 C 
ATOM      8  C   UNL     1      -5.206  -5.720   1.604  0.00  0.00    +0.028 C 
ATOM      9  C   UNL     1      -4.530  -5.810   0.227  0.00  0.00    +0.108 C 
ATOM     10  H   UNL     1      -3.547  -2.157  -1.045  0.00  0.00    +0.150 HD
ENDROOT
BRANCH   9  11
ATOM     11  C   UNL     1      -3.222  -6.547   0.352  0.00  0.00    -0.027 A 
ATOM     12  C   UNL     1      -2.247  -6.083   1.216  0.00  0.00    +0.008 A 
ATOM     13  C   UNL     1      -1.047  -6.759   1.332  0.00  0.00    +0.039 A 
ATOM     14  C   UNL     1      -0.821  -7.900   0.581  0.00  0.00    +0.126 A 
ATOM     15  C   UNL     1      -1.797  -8.363  -0.284  0.00  0.00    -0.015 A 
ATOM     16  C   UNL     1      -2.999  -7.689  -0.394  0.00  0.00    +0.011 A 
ATOM     17  C   UNL     1      -1.552  -9.605  -1.102  0.00  0.00    +0.047 C 
ATOM     18  F   UNL     1       0.352  -8.561   0.693  0.00  0.00    -0.205 F 
ENDBRANCH   9  11
BRANCH   6  19
ATOM     19  C   UNL     1      -5.113  -2.850   2.053  0.00  0.00    +0.218 C 
ATOM     20  O   UNL     1      -4.773  -3.495   3.022  0.00  0.00    -0.275 OA
ATOM     21  N   UNL     1      -4.630  -1.606   1.869  0.00  0.00    -0.311 N 
ATOM     22  H   UNL     1      -4.902  -1.090   1.094  0.00  0.00    +0.149 HD
BRANCH  21  23
ATOM     23  C   UNL     1      -3.695  -1.032   2.840  0.00  0.00    +0.142 C 
BRANCH  23  24
ATOM     24  C   UNL     1      -3.310   0.359   2.405  0.00  0.00    +0.005 A 
ATOM     25  C   UNL     1      -2.108   0.573   1.757  0.00  0.00    +0.008 A 
ATOM     26  C   UNL     1      -1.755   1.848   1.358  0.00  0.00    +0.000 A 
ATOM     27  C   UNL     1      -2.603   2.912   1.607  0.00  0.00    +0.003 A 
ATOM     28  C   UNL     1      -3.805   2.700   2.255  0.00  0.00    +0.038 A 
ATOM     29  C   UNL     1      -4.163   1.422   2.651  0.00  0.00    +0.128 A 
ATOM     30  F   UNL     1      -5.340   1.213   3.280  0.00  0.00    -0.205 F 
ENDBRANCH  23  24
ENDBRANCH  21  23
ENDBRANCH   6  19
BRANCH   1  31
ATOM     31  C   UNL     1      -1.451  -2.356  -1.320  0.00  0.00    +0.106 C 
BRANCH  31  32
ATOM     32  C   UNL     1      -1.461  -0.870  -1.684  0.00  0.00    +0.018 C 
BRANCH  32  34
ATOM     33  C   UNL     1      -0.048   1.070  -2.379  0.00  0.00    +0.004 C 
ATOM     34  C   UNL     1      -0.038  -0.416  -2.015  0.00  0.00    -0.002 C 
ENDBRANCH  32  34
ENDBRANCH  31  32
ENDBRANCH   1  31
TORSDOF 7
