REMARK  Name = ZINC03267543
REMARK  10 active torsions:
REMARK  status: ('A' for Active; 'I' for Inactive)
REMARK    1  A    between atoms: C_1  and  C_2
REMARK    2  A    between atoms: C_5  and  N_9
REMARK    3  A    between atoms: C_6  and  C_8
REMARK    4  A    between atoms: C_10  and  C_12
REMARK    5  A    between atoms: C_12  and  O_13
REMARK    6  A    between atoms: O_13  and  C_14
REMARK    7  A    between atoms: C_14  and  C_16
REMARK    8  A    between atoms: C_17  and  C_18
REMARK    9  A    between atoms: C_21  and  S_24
REMARK   10  A    between atoms: S_24  and  N_27
REMARK                            x       y       z     vdW  Elec       q    Type
REMARK                         _______ _______ _______ _____ _____    ______ ____
ROOT
ATOM      1  C   UNL     1      -3.674   1.676   0.057  0.00  0.00    +0.092 C 
ATOM      2  C   UNL     1      -2.500   1.011   0.058  0.00  0.00    +0.015 C 
ENDROOT
BRANCH   2   3
ATOM      3  C   UNL     1      -1.232   1.758   0.058  0.00  0.00    -0.025 A 
ATOM      4  C   UNL     1      -0.013   1.073   0.059  0.00  0.00    +0.010 A 
ATOM      5  C   UNL     1       1.171   1.781   0.054  0.00  0.00    +0.029 A 
ATOM      6  C   UNL     1       1.155   3.165   0.052  0.00  0.00    +0.109 A 
ATOM      7  C   UNL     1      -0.048   3.850   0.056  0.00  0.00    +0.029 A 
ATOM      8  C   UNL     1      -1.240   3.157   0.062  0.00  0.00    +0.010 A 
BRANCH   6   9
ATOM      9  S   UNL     1       2.673   4.059   0.044  0.00  0.00    +0.075 S 
ATOM     10  O   UNL     1       2.393   5.339   0.595  0.00  0.00    -0.150 OA
ATOM     11  O   UNL     1       3.657   3.193   0.592  0.00  0.00    -0.150 OA
BRANCH   9  12
ATOM     12  N   UNL     1       3.088   4.306  -1.540  0.00  0.00    -0.202 N 
ATOM     13  C   UNL     1       2.688   5.466  -2.341  0.00  0.00    +0.136 C 
ATOM     14  C   UNL     1       3.314   5.233  -3.726  0.00  0.00    +0.058 C 
ATOM     15  C   UNL     1       4.044   3.915  -3.596  0.00  0.00    -0.023 A 
ATOM     16  C   UNL     1       3.873   3.442  -2.304  0.00  0.00    +0.054 A 
ATOM     17  C   UNL     1       4.457   2.225  -1.946  0.00  0.00    +0.025 A 
ATOM     18  C   UNL     1       5.199   1.513  -2.864  0.00  0.00    +0.002 A 
ATOM     19  C   UNL     1       5.369   1.997  -4.148  0.00  0.00    +0.000 A 
ATOM     20  C   UNL     1       4.790   3.199  -4.512  0.00  0.00    +0.005 A 
ENDBRANCH   9  12
ENDBRANCH   6   9
ENDBRANCH   2   3
BRANCH   1  21
ATOM     21  C   UNL     1      -4.934   0.933   0.057  0.00  0.00    +0.332 C 
ATOM     22  O   UNL     1      -4.923  -0.283   0.058  0.00  0.00    -0.246 OA
BRANCH  21  23
ATOM     23  O   UNL     1      -6.108   1.597   0.056  0.00  0.00    -0.452 OA
BRANCH  23  24
ATOM     24  C   UNL     1      -7.300   0.809   0.056  0.00  0.00    +0.328 C 
BRANCH  24  26
ATOM     25  N   UNL     1      -9.744   1.190   0.054  0.00  0.00    -0.282 N 
ATOM     26  C   UNL     1      -8.503   1.716   0.055  0.00  0.00    +0.255 C 
ATOM     27  O   UNL     1      -8.355   2.920   0.054  0.00  0.00    -0.272 OA
ATOM     28  H   UNL     1      -9.864   0.231  -0.026  0.00  0.00    +0.155 HD
BRANCH  25  33
ATOM     29  C   UNL     1     -14.265   4.585   0.522  0.00  0.00    +0.044 C 
ATOM     30  C   UNL     1     -13.064   3.683   0.398  0.00  0.00    -0.050 A 
ATOM     31  C   UNL     1     -11.839   4.092   0.894  0.00  0.00    +0.005 A 
ATOM     32  C   UNL     1     -10.737   3.268   0.782  0.00  0.00    +0.024 A 
ATOM     33  C   UNL     1     -10.859   2.027   0.170  0.00  0.00    +0.036 A 
ATOM     34  C   UNL     1     -12.088   1.622  -0.333  0.00  0.00    -0.029 A 
ATOM     35  C   UNL     1     -13.188   2.449  -0.212  0.00  0.00    +0.008 A 
ATOM     36  C   UNL     1     -12.224   0.280  -1.004  0.00  0.00    +0.045 C 
ENDBRANCH  25  33
ENDBRANCH  24  26
ENDBRANCH  23  24
ENDBRANCH  21  23
ENDBRANCH   1  21
TORSDOF 8
