REMARK  Name = ZINC35484826
REMARK  9 active torsions:
REMARK  status: ('A' for Active; 'I' for Inactive)
REMARK    1  A    between atoms: C_1  and  C_2
REMARK    2  A    between atoms: C_9  and  C_12
REMARK    3  A    between atoms: C_10  and  C_11
REMARK    4  A    between atoms: C_12  and  C_13
REMARK    5  A    between atoms: C_14  and  C_29
REMARK    6  A    between atoms: N_16  and  C_21
REMARK    7  A    between atoms: C_21  and  C_22
REMARK    8  A    between atoms: C_22  and  C_23
REMARK    9  A    between atoms: C_32  and  O_35
REMARK                            x       y       z     vdW  Elec       q    Type
REMARK                         _______ _______ _______ _____ _____    ______ ____
ROOT
ATOM      1  C   UNL     1      -0.222  -0.060   5.585  0.00  0.00    +0.078 C 
ATOM      2  C   UNL     1      -0.562   1.238   4.889  0.00  0.00    +0.145 C 
ATOM      3  N   UNL     1      -0.512   2.280   5.921  0.00  0.00    -0.283 N 
ATOM      4  C   UNL     1      -0.185   1.693   7.087  0.00  0.00    +0.288 C 
ATOM      5  O   UNL     1      -0.058   2.271   8.148  0.00  0.00    -0.266 OA
ATOM      6  C   UNL     1      -0.008   0.239   6.887  0.00  0.00    +0.249 C 
ATOM      7  O   UNL     1       0.318  -0.651   7.853  0.00  0.00    -0.282 OA
ENDROOT
BRANCH   2   8
ATOM      8  C   UNL     1       0.449   1.528   3.810  0.00  0.00    -0.022 A 
ATOM      9  C   UNL     1       1.697   2.019   4.147  0.00  0.00    +0.009 A 
ATOM     10  C   UNL     1       2.625   2.286   3.160  0.00  0.00    +0.046 A 
ATOM     11  C   UNL     1       2.305   2.061   1.829  0.00  0.00    +0.117 A 
ATOM     12  C   UNL     1       1.052   1.568   1.493  0.00  0.00    +0.046 A 
ATOM     13  C   UNL     1       0.130   1.298   2.485  0.00  0.00    +0.009 A 
BRANCH  11  14
ATOM     14  O   UNL     1       3.216   2.324   0.856  0.00  0.00    -0.507 OA
ATOM     15  H   UNL     1       3.788   1.574   0.640  0.00  0.00    +0.292 HD
ENDBRANCH  11  14
ENDBRANCH   2   8
BRANCH   1  16
ATOM     16  C   UNL     1      -0.144  -1.388   4.968  0.00  0.00    +0.215 C 
ATOM     17  O   UNL     1      -0.533  -1.553   3.827  0.00  0.00    -0.285 OA
BRANCH  16  26
ATOM     18  C   UNL     1       2.367  -3.192   9.588  0.00  0.00    +0.047 C 
ATOM     19  C   UNL     1       1.990  -4.147   8.484  0.00  0.00    -0.008 A 
ATOM     20  C   UNL     1       2.255  -5.475   8.605  0.00  0.00    +0.008 A 
ATOM     21  C   UNL     1       1.897  -6.354   7.569  0.00  0.00    +0.018 A 
ATOM     22  C   UNL     1       1.294  -5.887   6.457  0.00  0.00    +0.093 A 
ATOM     23  N   UNL     1       1.021  -4.555   6.320  0.00  0.00    -0.303 N 
ATOM     24  C   UNL     1       1.352  -3.672   7.317  0.00  0.00    +0.141 A 
ATOM     25  N   UNL     1       0.980  -2.458   6.947  0.00  0.00    -0.224 NA
ATOM     26  C   UNL     1       0.406  -2.525   5.732  0.00  0.00    +0.133 A 
ATOM     27  C   UNL     1       0.433  -3.840   5.321  0.00  0.00    +0.051 A 
ATOM     28  C   UNL     1      -0.100  -4.385   4.021  0.00  0.00    +0.066 C 
ENDBRANCH  16  26
ENDBRANCH   1  16
BRANCH   3  29
ATOM     29  C   UNL     1      -0.771   3.708   5.718  0.00  0.00    +0.114 C 
BRANCH  29  30
ATOM     30  C   UNL     1      -2.260   3.991   5.931  0.00  0.00    +0.054 C 
BRANCH  30  31
ATOM     31  C   UNL     1      -2.526   5.459   5.723  0.00  0.00    -0.046 A 
ATOM     32  C   UNL     1      -2.438   6.336   6.787  0.00  0.00    +0.004 A 
ATOM     33  C   UNL     1      -2.683   7.683   6.596  0.00  0.00    +0.000 A 
ATOM     34  C   UNL     1      -3.016   8.153   5.339  0.00  0.00    +0.000 A 
ATOM     35  C   UNL     1      -3.103   7.277   4.274  0.00  0.00    +0.000 A 
ATOM     36  C   UNL     1      -2.854   5.930   4.465  0.00  0.00    +0.004 A 
ENDBRANCH  30  31
ENDBRANCH  29  30
ENDBRANCH   3  29
TORSDOF 7
