REMARK  Name = ZINC04987373
REMARK  9 active torsions:
REMARK  status: ('A' for Active; 'I' for Inactive)
REMARK    1  A    between atoms: C_1  and  C_2
REMARK    2  A    between atoms: C_2  and  C_3
REMARK    3  A    between atoms: C_2  and  O_4
REMARK    4  A    between atoms: O_4  and  C_5
REMARK    5  A    between atoms: C_8  and  C_13
REMARK    6  A    between atoms: C_10  and  O_11
REMARK    7  A    between atoms: O_11  and  C_12
REMARK    8  A    between atoms: C_18  and  C_24
REMARK    9  A    between atoms: C_28  and  O_30
REMARK                            x       y       z     vdW  Elec       q    Type
REMARK                         _______ _______ _______ _____ _____    ______ ____
ROOT
ATOM      1  C   UNL     1       1.200   3.522   0.894  0.00  0.00    +0.032 C 
ATOM      2  C   UNL     1       2.029   4.224  -0.184  0.00  0.00    +0.059 C 
ATOM      3  C   UNL     1       2.063   5.707   0.090  0.00  0.00    +0.018 C 
ATOM      4  C   UNL     1       1.999   6.179   1.353  0.00  0.00    +0.020 C 
ATOM      5  C   UNL     1       2.050   7.668   1.603  0.00  0.00    +0.063 C 
ATOM      6  C   UNL     1       1.327   8.399   0.470  0.00  0.00    +0.109 C 
ATOM      7  C   UNL     1       1.814   7.864  -0.852  0.00  0.00    +0.218 C 
ATOM      8  O   UNL     1       1.891   8.602  -1.811  0.00  0.00    -0.275 OA
ATOM      9  N   UNL     1       2.163   6.571  -0.971  0.00  0.00    -0.289 N 
ATOM     10  C   UNL     1       1.888   5.313   2.453  0.00  0.00    +0.162 C 
ATOM     11  O   UNL     1       1.844   5.775   3.576  0.00  0.00    -0.292 OA
ATOM     12  C   UNL     1       1.822   3.821   2.262  0.00  0.00    +0.088 C 
ATOM     13  H   UNL     1       2.491   6.243  -1.823  0.00  0.00    +0.155 HD
ENDROOT
BRANCH   1  17
ATOM     14  C   UNL     1       1.231  -0.698   0.200  0.00  0.00    +0.162 A 
ATOM     15  C   UNL     1       2.421  -0.018   0.404  0.00  0.00    +0.050 A 
ATOM     16  C   UNL     1       2.407   1.346   0.628  0.00  0.00    +0.008 A 
ATOM     17  C   UNL     1       1.209   2.035   0.649  0.00  0.00    -0.040 A 
ATOM     18  C   UNL     1       0.018   1.362   0.446  0.00  0.00    +0.053 A 
ATOM     19  C   UNL     1       0.024  -0.005   0.221  0.00  0.00    +0.162 A 
BRANCH  19  20
ATOM     20  O   UNL     1      -1.146  -0.668   0.021  0.00  0.00    -0.491 OA
ATOM     21  C   UNL     1      -2.346   0.108   0.057  0.00  0.00    +0.277 C 
ENDBRANCH  19  20
BRANCH  14  22
ATOM     22  O   UNL     1       1.242  -2.040  -0.021  0.00  0.00    -0.486 OA
BRANCH  22  24
ATOM     23  C   UNL     1       3.061  -3.008   1.242  0.00  0.00    +0.051 C 
ATOM     24  C   UNL     1       2.520  -2.666  -0.148  0.00  0.00    +0.167 C 
ATOM     25  C   UNL     1       2.381  -3.948  -0.971  0.00  0.00    +0.051 C 
ENDBRANCH  22  24
ENDBRANCH  14  22
ENDBRANCH   1  17
BRANCH   5  26
ATOM     26  C   UNL     1       3.487   8.120   1.656  0.00  0.00    -0.036 A 
ATOM     27  C   UNL     1       4.311   7.932   0.562  0.00  0.00    +0.004 A 
ATOM     28  C   UNL     1       5.628   8.351   0.605  0.00  0.00    +0.004 A 
ATOM     29  C   UNL     1       6.127   8.948   1.747  0.00  0.00    +0.045 A 
ATOM     30  C   UNL     1       5.304   9.132   2.848  0.00  0.00    +0.117 A 
ATOM     31  C   UNL     1       3.981   8.717   2.800  0.00  0.00    +0.049 A 
BRANCH  30  32
ATOM     32  O   UNL     1       5.793   9.719   3.972  0.00  0.00    -0.507 OA
ATOM     33  H   UNL     1       6.172   9.097   4.608  0.00  0.00    +0.292 HD
ENDBRANCH  30  32
ENDBRANCH   5  26
TORSDOF 6
