REMARK  Name = ZINC19864352
REMARK  7 active torsions:
REMARK  status: ('A' for Active; 'I' for Inactive)
REMARK    1  A    between atoms: C_3  and  O_27
REMARK    2  A    between atoms: C_6  and  C_7
REMARK    3  A    between atoms: N_8  and  N_9
REMARK    4  A    between atoms: C_10  and  C_12
REMARK    5  A    between atoms: C_12  and  O_13
REMARK    6  A    between atoms: O_13  and  C_14
REMARK    7  A    between atoms: C_15  and  C_22
REMARK                            x       y       z     vdW  Elec       q    Type
REMARK                         _______ _______ _______ _____ _____    ______ ____
ROOT
ATOM      1  C   UNL     1       3.679  -2.083  -1.277  0.00  0.00    +0.326 C 
ENDROOT
BRANCH   1   3
ATOM      2  N   UNL     1       5.886  -2.742  -2.178  0.00  0.00    -0.204 N 
ATOM      3  C   UNL     1       5.165  -2.286  -1.135  0.00  0.00    +0.270 C 
ATOM      4  O   UNL     1       5.713  -2.039  -0.081  0.00  0.00    -0.270 OA
ATOM      5  H   UNL     1       5.390  -2.966  -3.134  0.00  0.00    +0.177 HD
BRANCH   2   7
ATOM      6  C   UNL     1       7.981  -3.255  -3.080  0.00  0.00    +0.138 C 
ATOM      7  N   UNL     1       7.268  -2.931  -2.045  0.00  0.00    -0.188 NA
BRANCH   6  13
ATOM      8  C   UNL     1       8.098  -3.556  -5.547  0.00  0.00    +0.013 A 
ATOM      9  C   UNL     1       7.625  -3.293  -6.814  0.00  0.00    +0.046 A 
ATOM     10  C   UNL     1       6.542  -2.441  -6.990  0.00  0.00    +0.117 A 
ATOM     11  C   UNL     1       5.929  -1.854  -5.890  0.00  0.00    +0.046 A 
ATOM     12  C   UNL     1       6.393  -2.115  -4.619  0.00  0.00    +0.013 A 
ATOM     13  C   UNL     1       7.481  -2.973  -4.438  0.00  0.00    -0.005 A 
BRANCH  10  14
ATOM     14  O   UNL     1       6.081  -2.180  -8.241  0.00  0.00    -0.507 OA
ATOM     15  H   UNL     1       5.224  -1.506  -8.382  0.00  0.00    +0.292 HD
ENDBRANCH  10  14
ENDBRANCH   6  13
ENDBRANCH   2   7
ENDBRANCH   1   3
BRANCH   1  16
ATOM     16  O   UNL     1       3.144  -1.598  -0.044  0.00  0.00    -0.481 OA
BRANCH  16  17
ATOM     17  C   UNL     1       1.807  -1.361  -0.003  0.00  0.00    +0.150 A 
ATOM     18  C   UNL     1       1.306  -0.100  -0.348  0.00  0.00    +0.064 A 
ATOM     19  C   UNL     1      -0.070   0.133  -0.303  0.00  0.00    +0.035 A 
ATOM     20  C   UNL     1      -0.927  -0.878   0.081  0.00  0.00    +0.043 A 
ATOM     21  C   UNL     1      -0.427  -2.125   0.421  0.00  0.00    +0.043 A 
ATOM     22  C   UNL     1       0.933  -2.367   0.380  0.00  0.00    +0.085 A 
ATOM     23 CL   UNL     1       1.549  -3.932   0.809  0.00  0.00    -0.080 Cl
ATOM     24 CL   UNL     1      -2.638  -0.590   0.130  0.00  0.00    -0.083 Cl
BRANCH  18  25
ATOM     25  C   UNL     1       2.228   0.979  -0.757  0.00  0.00    +0.171 A 
ATOM     26  C   UNL     1       2.128   1.769  -1.871  0.00  0.00    +0.072 A 
ATOM     27  C   UNL     1       3.247   2.621  -1.784  0.00  0.00    +0.157 A 
ATOM     28  N   UNL     1       3.882   2.290  -0.695  0.00  0.00    -0.086 NA
ATOM     29  O   UNL     1       3.333   1.388  -0.108  0.00  0.00    -0.355 OA
ENDBRANCH  18  25
ENDBRANCH  16  17
ENDBRANCH   1  16
TORSDOF 7
