REMARK  Name = ZINC59402777
REMARK  6 active torsions:
REMARK  status: ('A' for Active; 'I' for Inactive)
REMARK    1  A    between atoms: N_13  and  C_14
REMARK    2  A    between atoms: C_14  and  C_15
REMARK    3  A    between atoms: C_15  and  C_17
REMARK    4  A    between atoms: C_15  and  O_26
REMARK    5  A    between atoms: C_17  and  N_18
REMARK    6  A    between atoms: N_18  and  C_19
REMARK                            x       y       z     vdW  Elec       q    Type
REMARK                         _______ _______ _______ _____ _____    ______ ____
ROOT
ATOM      1  C   UNL     1       4.891  -0.493  -0.051  0.00  0.00    +0.155 C 
ENDROOT
BRANCH   1  14
ATOM      2  C   UNL     1      -0.017   1.374   0.010  0.00  0.00    +0.001 A 
ATOM      3  C   UNL     1       1.171   2.089   0.002  0.00  0.00    +0.002 A 
ATOM      4  C   UNL     1       2.384   1.433  -0.013  0.00  0.00    +0.026 A 
ATOM      5  C   UNL     1       2.423   0.042  -0.022  0.00  0.00    +0.050 A 
ATOM      6  C   UNL     1       1.220  -0.680  -0.014  0.00  0.00    +0.008 A 
ATOM      7  C   UNL     1       0.002  -0.004   0.002  0.00  0.00    +0.010 A 
ATOM      8  C   UNL     1       1.589  -2.107  -0.026  0.00  0.00    +0.008 A 
ATOM      9  C   UNL     1       0.850  -3.288  -0.027  0.00  0.00    +0.010 A 
ATOM     10  C   UNL     1       1.501  -4.503  -0.041  0.00  0.00    +0.001 A 
ATOM     11  C   UNL     1       2.886  -4.553  -0.056  0.00  0.00    +0.002 A 
ATOM     12  C   UNL     1       3.629  -3.393  -0.056  0.00  0.00    +0.026 A 
ATOM     13  C   UNL     1       2.990  -2.156  -0.041  0.00  0.00    +0.050 A 
ATOM     14  N   UNL     1       3.472  -0.859  -0.038  0.00  0.00    -0.337 N 
ENDBRANCH   1  14
BRANCH   1  15
ATOM     15  C   UNL     1       5.399  -0.374   1.387  0.00  0.00    +0.151 C 
BRANCH  15  16
ATOM     16  O   UNL     1       5.345  -1.655   2.019  0.00  0.00    -0.388 OA
ATOM     17  H   UNL     1       5.880  -2.332   1.582  0.00  0.00    +0.210 HD
ENDBRANCH  15  16
BRANCH  15  18
ATOM     18  C   UNL     1       6.844   0.129   1.377  0.00  0.00    +0.134 C 
BRANCH  18  19
ATOM     19  N   UNL     1       7.332   0.242   2.754  0.00  0.00    -0.341 N 
ATOM     20  H   UNL     1       6.750   0.010   3.495  0.00  0.00    +0.146 HD
BRANCH  19  21
ATOM     21  C   UNL     1       8.633   0.685   3.000  0.00  0.00    +0.040 A 
ATOM     22  C   UNL     1       9.466   1.024   1.941  0.00  0.00    +0.024 A 
ATOM     23  C   UNL     1      10.752   1.461   2.187  0.00  0.00    +0.002 A 
ATOM     24  C   UNL     1      11.212   1.563   3.488  0.00  0.00    +0.001 A 
ATOM     25  C   UNL     1      10.387   1.226   4.545  0.00  0.00    +0.016 A 
ATOM     26  C   UNL     1       9.097   0.793   4.306  0.00  0.00    +0.034 A 
ATOM     27  I   UNL     1       7.845   0.292   5.908  0.00  0.00    -0.042 I 
ENDBRANCH  19  21
ENDBRANCH  18  19
ENDBRANCH  15  18
ENDBRANCH   1  15
TORSDOF 6
