REMARK  Name = ZINC33796940
REMARK  11 active torsions:
REMARK  status: ('A' for Active; 'I' for Inactive)
REMARK    1  A    between atoms: C_1  and  C_2
REMARK    2  A    between atoms: C_2  and  C_3
REMARK    3  A    between atoms: C_2  and  C_4
REMARK    4  A    between atoms: C_4  and  N_5
REMARK    5  A    between atoms: N_5  and  C_6
REMARK    6  A    between atoms: C_6  and  C_7
REMARK    7  A    between atoms: N_9  and  C_10
REMARK    8  A    between atoms: N_9  and  C_17
REMARK    9  A    between atoms: C_10  and  C_11
REMARK   10  A    between atoms: C_17  and  C_18
REMARK   11  A    between atoms: N_25  and  C_26
REMARK                            x       y       z     vdW  Elec       q    Type
REMARK                         _______ _______ _______ _____ _____    ______ ____
ROOT
ATOM      1  C   UNL     1       3.559   1.840   0.090  0.00  0.00    +0.205 C 
ENDROOT
BRANCH   1   2
ATOM      2  N   UNL     1       2.320   1.059   0.093  0.00  0.00    -0.276 N 
ATOM      3  C   UNL     1       1.129   1.684   0.005  0.00  0.00    +0.307 C 
ATOM      4  O   UNL     1       1.084   2.897  -0.077  0.00  0.00    -0.252 OA
ATOM      5  N   UNL     1      -0.011   0.966   0.007  0.00  0.00    -0.269 N 
ATOM      6  H   UNL     1       0.031  -0.133   0.011  0.00  0.00    +0.156 HD
BRANCH   5   7
ATOM      7  C   UNL     1      -1.250   1.618   0.005  0.00  0.00    +0.035 A 
ATOM      8  C   UNL     1      -2.325   1.072   0.693  0.00  0.00    +0.024 A 
ATOM      9  C   UNL     1      -3.544   1.721   0.694  0.00  0.00    +0.017 A 
ATOM     10  C   UNL     1      -3.698   2.908   0.001  0.00  0.00    +0.018 A 
ATOM     11  C   UNL     1      -2.630   3.452  -0.690  0.00  0.00    +0.017 A 
ATOM     12  C   UNL     1      -1.407   2.810  -0.690  0.00  0.00    +0.024 A 
ATOM     13 BR   UNL     1      -5.370   3.790  -0.001  0.00  0.00    -0.050 Br
ENDBRANCH   5   7
BRANCH   2  14
ATOM     14  C   UNL     1       2.375  -0.402   0.192  0.00  0.00    +0.113 C 
BRANCH  14  16
ATOM     15  C   UNL     1       2.633  -2.521  -1.106  0.00  0.00    +0.009 C 
ATOM     16  C   UNL     1       2.450  -1.005  -1.212  0.00  0.00    +0.000 C 
ATOM     17  C   UNL     1       1.157  -0.699  -1.969  0.00  0.00    +0.009 C 
ENDBRANCH  14  16
ENDBRANCH   2  14
ENDBRANCH   1   2
BRANCH   1  18
ATOM     18  C   UNL     1       3.929   2.202   1.506  0.00  0.00    +0.234 C 
ATOM     19  O   UNL     1       3.226   1.842   2.426  0.00  0.00    -0.274 OA
ATOM     20  N   UNL     1       5.040   2.924   1.748  0.00  0.00    -0.291 N 
BRANCH  20  21
ATOM     21  C   UNL     1       5.399   3.276   3.124  0.00  0.00    +0.143 C 
BRANCH  21  22
ATOM     22  C   UNL     1       6.277   2.198   3.705  0.00  0.00    -0.030 A 
ATOM     23  C   UNL     1       5.710   1.131   4.377  0.00  0.00    +0.005 A 
ATOM     24  C   UNL     1       6.516   0.140   4.905  0.00  0.00    +0.000 A 
ATOM     25  C   UNL     1       7.889   0.221   4.772  0.00  0.00    +0.000 A 
ATOM     26  C   UNL     1       8.457   1.291   4.105  0.00  0.00    +0.000 A 
ATOM     27  C   UNL     1       7.651   2.279   3.572  0.00  0.00    +0.005 A 
ENDBRANCH  21  22
ENDBRANCH  20  21
BRANCH  20  28
ATOM     28  C   UNL     1       5.889   3.358   0.636  0.00  0.00    +0.150 C 
BRANCH  28  29
ATOM     29  C   UNL     1       5.425   4.706   0.146  0.00  0.00    +0.007 A 
ATOM     30  C   UNL     1       5.808   5.941   0.552  0.00  0.00    +0.013 A 
ATOM     31  C   UNL     1       5.244   7.050  -0.050  0.00  0.00    +0.008 A 
ATOM     32  C   UNL     1       4.316   6.869  -1.021  0.00  0.00    +0.045 A 
ATOM     33  S   UNL     1       4.222   5.089  -1.116  0.00  0.00    -0.100 S 
ENDBRANCH  28  29
ENDBRANCH  20  28
ENDBRANCH   1  18
TORSDOF 9
