REMARK  Name = ZINC09866627
REMARK  8 active torsions:
REMARK  status: ('A' for Active; 'I' for Inactive)
REMARK    1  A    between atoms: C_1  and  C_2
REMARK    2  A    between atoms: C_3  and  C_9
REMARK    3  A    between atoms: N_5  and  C_7
REMARK    4  A    between atoms: C_10  and  C_11
REMARK    5  A    between atoms: N_13  and  C_14
REMARK    6  A    between atoms: N_13  and  C_15
REMARK    7  A    between atoms: C_15  and  C_16
REMARK    8  A    between atoms: C_18  and  N_23
REMARK                            x       y       z     vdW  Elec       q    Type
REMARK                         _______ _______ _______ _____ _____    ______ ____
ROOT
ATOM      1  C   UNL     1       0.656  -0.104  -4.911  0.00  0.00    +0.239 C 
ATOM      2  O   UNL     1      -0.046   0.726  -5.460  0.00  0.00    -0.271 OA
ATOM      3  N   UNL     1       1.596  -0.764  -5.616  0.00  0.00    -0.297 N 
ATOM      4  C   UNL     1       2.517  -1.677  -4.934  0.00  0.00    +0.132 C 
ENDROOT
BRANCH   1   6
ATOM      5  C   UNL     1      -0.457   0.287  -2.824  0.00  0.00    +0.018 C 
ATOM      6  C   UNL     1       0.485  -0.375  -3.530  0.00  0.00    +0.068 C 
BRANCH   5   9
ATOM      7  C   UNL     1      -0.583   2.455  -0.510  0.00  0.00    +0.068 C 
ATOM      8  C   UNL     1      -0.693   0.961  -0.350  0.00  0.00    +0.069 A 
ATOM      9  C   UNL     1      -0.634   0.007  -1.393  0.00  0.00    +0.034 A 
ATOM     10  C   UNL     1      -0.776  -1.242  -0.811  0.00  0.00    +0.134 A 
ATOM     11  N   UNL     1      -0.913  -1.053   0.513  0.00  0.00    -0.255 N 
ATOM     12  N   UNL     1      -0.852   0.320   0.775  0.00  0.00    -0.175 NA
ATOM     13  C   UNL     1      -1.090  -2.107   1.515  0.00  0.00    +0.174 C 
ATOM     14 CL   UNL     1      -0.778  -2.769  -1.637  0.00  0.00    -0.062 Cl
ENDBRANCH   5   9
ENDBRANCH   1   6
BRANCH   3  15
ATOM     15  C   UNL     1       1.698  -0.568  -7.064  0.00  0.00    +0.144 C 
BRANCH  15  16
ATOM     16  C   UNL     1       0.726  -1.483  -7.764  0.00  0.00    -0.010 A 
ATOM     17  C   UNL     1      -0.486  -0.992  -8.211  0.00  0.00    +0.039 A 
ATOM     18  C   UNL     1      -1.378  -1.831  -8.853  0.00  0.00    +0.127 A 
ATOM     19  C   UNL     1      -1.058  -3.161  -9.048  0.00  0.00    +0.034 A 
ATOM     20  C   UNL     1       0.154  -3.653  -8.602  0.00  0.00    +0.022 A 
ATOM     21  C   UNL     1       1.050  -2.813  -7.965  0.00  0.00    +0.046 A 
ATOM     22 CL   UNL     1       2.575  -3.428  -7.411  0.00  0.00    -0.083 Cl
BRANCH  18  23
ATOM     23  N   UNL     1      -2.676  -1.304  -9.330  0.00  0.00    +0.056 N 
ATOM     24  O   UNL     1      -2.957  -0.141  -9.159  0.00  0.00    -0.126 OA
ATOM     25  O   UNL     1      -3.456  -2.038  -9.892  0.00  0.00    -0.126 OA
ENDBRANCH  18  23
ENDBRANCH  15  16
ENDBRANCH   3  15
TORSDOF 5
