REMARK  Name = ZINC26992836
REMARK  4 active torsions:
REMARK  status: ('A' for Active; 'I' for Inactive)
REMARK    1  A    between atoms: C_4  and  C_7
REMARK    2  A    between atoms: C_7  and  C_9
REMARK    3  A    between atoms: C_11  and  C_30
REMARK    4  A    between atoms: C_33  and  N_36
REMARK                            x       y       z     vdW  Elec       q    Type
REMARK                         _______ _______ _______ _____ _____    ______ ____
ROOT
ATOM      1  C   UNL     1      -3.433   1.458  -1.127  0.00  0.00    +0.103 C 
ATOM      2  C   UNL     1      -3.569   1.491   0.412  0.00  0.00    +0.050 C 
ATOM      3  C   UNL     1      -5.085   1.640   0.641  0.00  0.00    +0.077 C 
ATOM      4  C   UNL     1      -5.481   1.082   2.013  0.00  0.00    +0.090 C 
ATOM      5  S   UNL     1      -6.062  -0.610   1.583  0.00  0.00    -0.144 S 
ATOM      6  C   UNL     1      -5.830  -0.533  -0.239  0.00  0.00    +0.155 C 
ATOM      7  N   UNL     1      -5.719   0.930  -0.485  0.00  0.00    -0.271 NA
ATOM      8  C   UNL     1      -4.838   1.139  -1.649  0.00  0.00    +0.137 C 
ATOM      9  C   UNL     1      -5.355   2.248  -2.525  0.00  0.00    +0.006 A 
ATOM     10  C   UNL     1      -5.602   3.586  -2.308  0.00  0.00    +0.046 A 
ATOM     11  C   UNL     1      -6.090   4.375  -3.337  0.00  0.00    +0.124 A 
ATOM     12  C   UNL     1      -6.327   3.815  -4.581  0.00  0.00    +0.040 A 
ATOM     13  C   UNL     1      -6.081   2.475  -4.800  0.00  0.00    +0.026 A 
ATOM     14  C   UNL     1      -5.591   1.675  -3.770  0.00  0.00    +0.039 A 
ATOM     15  N   UNL     1      -5.269   0.316  -3.744  0.00  0.00    -0.283 N 
ATOM     16  C   UNL     1      -4.822  -0.077  -2.538  0.00  0.00    +0.243 C 
ATOM     17  O   UNL     1      -4.472  -1.196  -2.225  0.00  0.00    -0.273 OA
ATOM     18  F   UNL     1      -6.334   5.687  -3.127  0.00  0.00    -0.205 F 
ATOM     19  H   UNL     1      -5.396  -0.296  -4.650  0.00  0.00    +0.155 HD
ENDROOT
BRANCH   2  20
ATOM     20  C   UNL     1      -2.828   2.672   0.984  0.00  0.00    -0.042 A 
ATOM     21  C   UNL     1      -3.529   3.761   1.466  0.00  0.00    +0.006 A 
ATOM     22  C   UNL     1      -2.849   4.842   1.996  0.00  0.00    +0.033 A 
ATOM     23  C   UNL     1      -1.468   4.835   2.040  0.00  0.00    +0.126 A 
ATOM     24  C   UNL     1      -0.766   3.748   1.553  0.00  0.00    +0.033 A 
ATOM     25  C   UNL     1      -1.446   2.667   1.023  0.00  0.00    +0.006 A 
BRANCH  23  26
ATOM     26  N   UNL     1      -0.739   5.992   2.608  0.00  0.00    +0.056 N 
ATOM     27  O   UNL     1      -1.358   6.949   3.037  0.00  0.00    -0.126 OA
ATOM     28  O   UNL     1       0.478   5.986   2.646  0.00  0.00    -0.126 OA
ENDBRANCH  23  26
ENDBRANCH   2  20
BRANCH   1  29
ATOM     29  C   UNL     1      -2.974   2.798  -1.641  0.00  0.00    +0.169 C 
ATOM     30  O   UNL     1      -3.340   3.815  -1.091  0.00  0.00    -0.292 OA
BRANCH  29  34
ATOM     31  C   UNL     1      -0.405   3.013  -5.009  0.00  0.00    +0.000 A 
ATOM     32  C   UNL     1      -0.819   4.176  -4.384  0.00  0.00    +0.001 A 
ATOM     33  C   UNL     1      -1.654   4.115  -3.288  0.00  0.00    +0.011 A 
ATOM     34  C   UNL     1      -2.083   2.873  -2.809  0.00  0.00    +0.018 A 
ATOM     35  C   UNL     1      -1.654   1.701  -3.442  0.00  0.00    +0.011 A 
ATOM     36  C   UNL     1      -0.824   1.780  -4.540  0.00  0.00    +0.001 A 
ENDBRANCH  29  34
ENDBRANCH   1  29
TORSDOF 4
