REMARK  Name = ZINC01306218
REMARK  5 active torsions:
REMARK  status: ('A' for Active; 'I' for Inactive)
REMARK    1  A    between atoms: C_6  and  N_7
REMARK    2  A    between atoms: N_7  and  C_8
REMARK    3  A    between atoms: C_9  and  C_10
REMARK    4  A    between atoms: C_9  and  C_12
REMARK    5  A    between atoms: C_14  and  C_17
REMARK                            x       y       z     vdW  Elec       q    Type
REMARK                         _______ _______ _______ _____ _____    ______ ____
ROOT
ATOM      1  C   UNL     1       1.154  -6.307  -0.042  0.00  0.00    +0.120 A 
ATOM      2  N   UNL     1       1.162  -4.982  -0.041  0.00  0.00    -0.238 NA
ATOM      3  C   UNL     1       0.035  -4.291  -0.021  0.00  0.00    +0.086 A 
ATOM      4  C   UNL     1      -1.162  -4.956  -0.013  0.00  0.00    +0.075 A 
ATOM      5  S   UNL     1      -0.599  -6.654  -0.027  0.00  0.00    -0.074 S 
ENDROOT
BRANCH   3   6
ATOM      6  C   UNL     1       0.068  -2.810  -0.014  0.00  0.00    +0.086 A 
ATOM      7  C   UNL     1       1.262  -2.140  -0.021  0.00  0.00    +0.028 A 
ATOM      8  C   UNL     1       1.236  -0.677  -0.013  0.00  0.00    +0.019 A 
ATOM      9  C   UNL     1       2.430   0.055  -0.021  0.00  0.00    +0.026 A 
ATOM     10  C   UNL     1       2.387   1.431  -0.014  0.00  0.00    +0.019 A 
ATOM     11  C   UNL     1       1.166   2.093   0.002  0.00  0.00    +0.019 A 
ATOM     12  C   UNL     1      -0.017   1.386   0.010  0.00  0.00    +0.048 A 
ATOM     13  C   UNL     1       0.002  -0.004   0.002  0.00  0.00    +0.139 A 
ATOM     14  O   UNL     1      -1.157  -0.697   0.009  0.00  0.00    -0.422 OA
ATOM     15  C   UNL     1      -1.179  -2.038   0.002  0.00  0.00    +0.347 A 
ATOM     16  O   UNL     1      -2.247  -2.622   0.009  0.00  0.00    -0.244 OA
ATOM     17 BR   UNL     1       3.996   2.424  -0.024  0.00  0.00    -0.050 Br
ENDBRANCH   3   6
BRANCH   1  19
ATOM     18  C   UNL     1       2.064  -8.592  -0.061  0.00  0.00    +0.093 C 
ATOM     19  C   UNL     1       2.291  -7.248  -0.057  0.00  0.00    +0.098 C 
BRANCH  18  20
ATOM     20  N   UNL     1       3.117  -9.462  -0.075  0.00  0.00    -0.319 N 
ATOM     21  H   UNL     1       4.026  -9.124  -0.082  0.00  0.00    +0.152 HD
BRANCH  20  27
ATOM     22  C   UNL     1       1.583 -11.326  -0.069  0.00  0.00    +0.027 A 
ATOM     23  C   UNL     1       1.351 -12.688  -0.074  0.00  0.00    +0.051 A 
ATOM     24  C   UNL     1       2.416 -13.575  -0.089  0.00  0.00    +0.166 A 
ATOM     25  C   UNL     1       3.723 -13.092  -0.099  0.00  0.00    +0.168 A 
ATOM     26  C   UNL     1       3.954 -11.727  -0.100  0.00  0.00    +0.072 A 
ATOM     27  C   UNL     1       2.884 -10.841  -0.080  0.00  0.00    +0.035 A 
ATOM     28  O   UNL     1       4.580 -14.154  -0.113  0.00  0.00    -0.453 OA
ATOM     29  C   UNL     1       3.787 -15.283  -0.524  0.00  0.00    +0.466 C 
ATOM     30  O   UNL     1       2.456 -14.940  -0.097  0.00  0.00    -0.453 OA
ENDBRANCH  20  27
ENDBRANCH  18  20
BRANCH  19  31
ATOM     31  C   UNL     1       3.633  -6.748  -0.067  0.00  0.00    +0.103 C 
ATOM     32  N   UNL     1       4.698  -6.352  -0.076  0.00  0.00    -0.191 NA
ENDBRANCH  19  31
ENDBRANCH   1  19
TORSDOF 5
