REMARK  Name = ZINC12584247
REMARK  6 active torsions:
REMARK  status: ('A' for Active; 'I' for Inactive)
REMARK    1  A    between atoms: C_4  and  C_23
REMARK    2  A    between atoms: C_5  and  C_7
REMARK    3  A    between atoms: N_9  and  N_10
REMARK    4  A    between atoms: C_11  and  C_13
REMARK    5  A    between atoms: C_13  and  O_14
REMARK    6  A    between atoms: O_14  and  C_15
REMARK                            x       y       z     vdW  Elec       q    Type
REMARK                         _______ _______ _______ _____ _____    ______ ____
ROOT
ATOM      1  N   UNL     1       3.909  -2.193  -0.032  0.00  0.00    -0.231 N 
ATOM      2  C   UNL     1       3.713  -0.860  -0.005  0.00  0.00    +0.267 C 
ATOM      3  O   UNL     1       4.664  -0.107   0.007  0.00  0.00    -0.271 OA
ATOM      4  H   UNL     1       3.149  -2.795  -0.041  0.00  0.00    +0.173 HD
ENDROOT
BRANCH   1   7
ATOM      5  C   UNL     1       5.408  -4.043  -0.073  0.00  0.00    +0.261 C 
ATOM      6  O   UNL     1       4.455  -4.797  -0.085  0.00  0.00    -0.269 OA
ATOM      7  N   UNL     1       5.212  -2.709  -0.046  0.00  0.00    -0.230 N 
ATOM      8  H   UNL     1       5.972  -2.107  -0.036  0.00  0.00    +0.173 HD
BRANCH   5  13
ATOM      9  C   UNL     1       9.158  -4.245  -0.212  0.00  0.00    +0.001 A 
ATOM     10  C   UNL     1       9.367  -5.609  -0.117  0.00  0.00    +0.001 A 
ATOM     11  C   UNL     1       8.295  -6.475  -0.006  0.00  0.00    +0.016 A 
ATOM     12  C   UNL     1       6.996  -5.976   0.009  0.00  0.00    +0.075 A 
ATOM     13  C   UNL     1       6.783  -4.588  -0.088  0.00  0.00    +0.052 A 
ATOM     14  C   UNL     1       7.874  -3.732  -0.204  0.00  0.00    +0.014 A 
BRANCH  12  15
ATOM     15  C   UNL     1       5.846  -6.897   0.127  0.00  0.00    +0.387 C 
ATOM     16  O   UNL     1       5.031  -6.742   1.014  0.00  0.00    -0.241 OA
ATOM     17  O   UNL     1       5.702  -7.910  -0.750  0.00  0.00    -0.241 OA
ENDBRANCH  12  15
ENDBRANCH   5  13
ENDBRANCH   1   7
BRANCH   2  18
ATOM     18  C   UNL     1       2.312  -0.305   0.011  0.00  0.00    +0.326 C 
BRANCH  18  19
ATOM     19  O   UNL     1       2.366   1.123   0.039  0.00  0.00    -0.482 OA
BRANCH  19  20
ATOM     20  C   UNL     1       1.179   1.785   0.055  0.00  0.00    +0.135 A 
ATOM     21  C   UNL     1      -0.013   1.075   0.045  0.00  0.00    +0.048 A 
ATOM     22  C   UNL     1      -1.218   1.750   0.057  0.00  0.00    +0.019 A 
ATOM     23  C   UNL     1      -1.238   3.133   0.089  0.00  0.00    +0.019 A 
ATOM     24  C   UNL     1      -0.051   3.843   0.099  0.00  0.00    +0.034 A 
ATOM     25  C   UNL     1       1.157   3.172   0.082  0.00  0.00    +0.061 A 
ATOM     26 BR   UNL     1       2.780   4.144   0.096  0.00  0.00    -0.046 Br
ATOM     27 BR   UNL     1      -2.890   4.053   0.111  0.00  0.00    -0.050 Br
ENDBRANCH  19  20
ENDBRANCH  18  19
ENDBRANCH   2  18
TORSDOF 6
