REMARK  Name = ZINC07287662
REMARK  8 active torsions:
REMARK  status: ('A' for Active; 'I' for Inactive)
REMARK    1  A    between atoms: C_1  and  C_2
REMARK    2  A    between atoms: C_2  and  C_3
REMARK    3  A    between atoms: C_3  and  C_4
REMARK    4  A    between atoms: C_3  and  C_5
REMARK    5  A    between atoms: C_3  and  C_6
REMARK    6  A    between atoms: C_9  and  N_12
REMARK    7  A    between atoms: C_13  and  C_15
REMARK    8  A    between atoms: C_15  and  N_16
REMARK                            x       y       z     vdW  Elec       q    Type
REMARK                         _______ _______ _______ _____ _____    ______ ____
ROOT
ATOM      1  N   UNL     1       0.060  -6.045  -2.530  0.00  0.00    -0.311 N 
ATOM      2  C   UNL     1       0.160  -6.711  -3.697  0.00  0.00    +0.231 C 
ATOM      3  O   UNL     1       0.233  -6.098  -4.741  0.00  0.00    -0.274 OA
ATOM      4  H   UNL     1       0.002  -6.535  -1.695  0.00  0.00    +0.149 HD
ENDROOT
BRANCH   1   8
ATOM      5  C   UNL     1       0.739  -2.027  -1.265  0.00  0.00    -0.005 C 
ATOM      6  C   UNL     1      -0.696  -2.557  -1.254  0.00  0.00    +0.006 C 
ATOM      7  C   UNL     1      -0.676  -4.087  -1.263  0.00  0.00    +0.022 C 
ATOM      8  C   UNL     1       0.041  -4.580  -2.522  0.00  0.00    +0.073 C 
ATOM      9  C   UNL     1       1.476  -4.051  -2.532  0.00  0.00    +0.022 C 
ATOM     10  C   UNL     1       1.455  -2.521  -2.524  0.00  0.00    +0.006 C 
BRANCH   5  11
ATOM     11  C   UNL     1       0.718  -0.497  -1.257  0.00  0.00    -0.032 C 
ATOM     12  C   UNL     1      -0.022   0.009  -2.496  0.00  0.00    +0.011 C 
ATOM     13  C   UNL     1       2.154   0.032  -1.268  0.00  0.00    +0.011 C 
BRANCH  11  15
ATOM     14  C   UNL     1      -0.019   1.526   0.010  0.00  0.00    +0.004 C 
ATOM     15  C   UNL     1       0.002  -0.004   0.002  0.00  0.00    +0.003 C 
ENDBRANCH  11  15
ENDBRANCH   5  11
ENDBRANCH   1   8
BRANCH   2  16
ATOM     16  C   UNL     1       0.180  -8.218  -3.705  0.00  0.00    +0.213 C 
BRANCH  16  17
ATOM     17  N   UNL     1       0.294  -8.697  -5.085  0.00  0.00    -0.215 N 
ATOM     18  C   UNL     1      -0.759  -8.955  -5.888  0.00  0.00    +0.247 C 
ATOM     19  O   UNL     1      -1.935  -8.839  -5.615  0.00  0.00    -0.273 OA
ATOM     20  C   UNL     1      -0.165  -9.419  -7.197  0.00  0.00    +0.113 C 
ATOM     21  C   UNL     1      -0.562  -8.474  -8.326  0.00  0.00    +0.035 C 
ATOM     22  C   UNL     1       0.074  -8.944  -9.636  0.00  0.00    +0.003 C 
ATOM     23  C   UNL     1      -0.396 -10.365  -9.950  0.00  0.00    +0.000 C 
ATOM     24  C   UNL     1       0.030 -11.305  -8.820  0.00  0.00    +0.003 C 
ATOM     25  C   UNL     1      -0.606 -10.845  -7.507  0.00  0.00    +0.035 C 
ATOM     26  N   UNL     1       1.285  -9.367  -6.970  0.00  0.00    -0.285 N 
ATOM     27  C   UNL     1       1.457  -8.928  -5.708  0.00  0.00    +0.310 C 
ATOM     28  O   UNL     1       2.545  -8.764  -5.191  0.00  0.00    -0.252 OA
ATOM     29  H   UNL     1       1.982  -9.599  -7.604  0.00  0.00    +0.151 HD
ENDBRANCH  16  17
ENDBRANCH   2  16
TORSDOF 5
