REMARK  Name = ZINC67616439
REMARK  4 active torsions:
REMARK  status: ('A' for Active; 'I' for Inactive)
REMARK    1  A    between atoms: C_4  and  C_7
REMARK    2  A    between atoms: C_10  and  N_12
REMARK    3  A    between atoms: N_15  and  C_16
REMARK    4  A    between atoms: C_16  and  C_17
REMARK                            x       y       z     vdW  Elec       q    Type
REMARK                         _______ _______ _______ _____ _____    ______ ____
ROOT
ATOM      1  C   UNL     1       8.631  -2.604  -5.045  0.00  0.00    -0.014 A 
ATOM      2  C   UNL     1       9.292  -1.455  -5.461  0.00  0.00    +0.010 A 
ATOM      3  C   UNL     1      10.658  -1.517  -5.668  0.00  0.00    +0.042 A 
ATOM      4  C   UNL     1      11.320  -2.722  -5.454  0.00  0.00    +0.099 A 
ATOM      5  N   UNL     1      10.654  -3.796  -5.059  0.00  0.00    -0.349 N 
ATOM      6  C   UNL     1       9.352  -3.764  -4.848  0.00  0.00    +0.089 A 
ATOM      7  N   UNL     1      12.693  -2.800  -5.659  0.00  0.00    -0.312 N 
ATOM      8  C   UNL     1      13.448  -1.668  -6.223  0.00  0.00    +0.111 C 
ATOM      9  C   UNL     1      14.428  -1.180  -5.157  0.00  0.00    +0.054 C 
ATOM     10  C   UNL     1      15.175  -2.337  -4.546  0.00  0.00    -0.041 A 
ATOM     11  C   UNL     1      16.371  -2.060  -3.895  0.00  0.00    +0.004 A 
ATOM     12  C   UNL     1      17.100  -3.071  -3.306  0.00  0.00    +0.000 A 
ATOM     13  C   UNL     1      16.637  -4.373  -3.360  0.00  0.00    +0.000 A 
ATOM     14  C   UNL     1      15.452  -4.652  -4.008  0.00  0.00    +0.005 A 
ATOM     15  C   UNL     1      14.721  -3.635  -4.607  0.00  0.00    -0.027 A 
ATOM     16  C   UNL     1      13.448  -4.009  -5.317  0.00  0.00    +0.141 C 
ATOM     17  H   UNL     1      11.136  -4.626  -4.916  0.00  0.00    +0.167 HD
ENDROOT
BRANCH   1  18
ATOM     18  C   UNL     1       7.143  -2.582  -4.808  0.00  0.00    +0.142 C 
BRANCH  18  22
ATOM     19  N   UNL     1       5.362  -1.798  -1.688  0.00  0.00    -0.296 N 
ATOM     20  C   UNL     1       5.607  -2.134  -2.970  0.00  0.00    +0.300 C 
ATOM     21  O   UNL     1       4.683  -2.363  -3.726  0.00  0.00    -0.253 OA
ATOM     22  N   UNL     1       6.877  -2.217  -3.414  0.00  0.00    -0.295 N 
ATOM     23  H   UNL     1       6.099  -1.616  -1.085  0.00  0.00    +0.151 HD
ATOM     24  H   UNL     1       7.614  -2.035  -2.811  0.00  0.00    +0.151 HD
BRANCH  19  27
ATOM     25  C   UNL     1       3.711  -0.800  -0.004  0.00  0.00    +0.041 C 
ATOM     26  C   UNL     1       3.670  -2.321   0.162  0.00  0.00    +0.033 C 
ATOM     27  C   UNL     1       3.982  -1.708  -1.206  0.00  0.00    +0.082 C 
BRANCH  25  31
ATOM     28  C   UNL     1      -0.010   1.296   0.084  0.00  0.00    +0.000 A 
ATOM     29  C   UNL     1       1.180   1.999   0.093  0.00  0.00    +0.000 A 
ATOM     30  C   UNL     1       2.384   1.321   0.065  0.00  0.00    +0.004 A 
ATOM     31  C   UNL     1       2.398  -0.061   0.028  0.00  0.00    -0.042 A 
ATOM     32  C   UNL     1       1.208  -0.764   0.019  0.00  0.00    +0.004 A 
ATOM     33  C   UNL     1       0.004  -0.086   0.046  0.00  0.00    +0.000 A 
ENDBRANCH  25  31
ENDBRANCH  19  27
ENDBRANCH  18  22
ENDBRANCH   1  18
TORSDOF 4
