REMARK  Name = ZINC09693600
REMARK  3 active torsions:
REMARK  status: ('A' for Active; 'I' for Inactive)
REMARK    1  A    between atoms: C_6  and  C_7
REMARK    2  A    between atoms: N_14  and  C_21
REMARK    3  A    between atoms: C_18  and  C_19
REMARK                            x       y       z     vdW  Elec       q    Type
REMARK                         _______ _______ _______ _____ _____    ______ ____
ROOT
ATOM      1  C   UNL     1      -0.019   1.528   0.010  0.00  0.00    +0.070 C 
ATOM      2  C   UNL     1       0.002  -0.004   0.002  0.00  0.00    +0.110 C 
ATOM      3  C   UNL     1       0.918  -0.476  -1.094  0.00  0.00    +0.222 C 
ATOM      4  O   UNL     1       0.639  -1.479  -1.716  0.00  0.00    -0.275 OA
ATOM      5  N   UNL     1       2.050   0.204  -1.395  0.00  0.00    -0.248 N 
ATOM      6  C   UNL     1       2.840  -0.281  -2.517  0.00  0.00    +0.222 C 
ATOM      7  N   UNL     1       4.250   0.044  -2.494  0.00  0.00    -0.304 N 
ATOM      8  C   UNL     1       4.521   1.477  -2.328  0.00  0.00    +0.182 C 
ATOM      9  S   UNL     1       4.028   1.936  -0.643  0.00  0.00    -0.090 S 
ATOM     10  C   UNL     1       2.365   1.343  -0.684  0.00  0.00    +0.087 C 
ATOM     11  C   UNL     1       1.404   2.027  -0.001  0.00  0.00    +0.065 C 
ENDROOT
BRANCH   7  12
ATOM     12  C   UNL     1       4.899  -0.461  -3.623  0.00  0.00    +0.034 A 
ATOM     13  C   UNL     1       4.183  -1.173  -4.577  0.00  0.00    +0.043 A 
ATOM     14  C   UNL     1       4.826  -1.667  -5.696  0.00  0.00    +0.044 A 
ATOM     15  C   UNL     1       6.185  -1.462  -5.861  0.00  0.00    +0.040 A 
ATOM     16  C   UNL     1       6.902  -0.757  -4.910  0.00  0.00    +0.044 A 
ATOM     17  C   UNL     1       6.262  -0.256  -3.792  0.00  0.00    +0.043 A 
ATOM     18 CL   UNL     1       8.606  -0.502  -5.122  0.00  0.00    -0.083 Cl
ATOM     19 CL   UNL     1       3.931  -2.551  -6.892  0.00  0.00    -0.083 Cl
ENDBRANCH   7  12
BRANCH   1  25
ATOM     20  C   UNL     1      -0.267   1.717  -2.473  0.00  0.00    +0.007 A 
ATOM     21  C   UNL     1      -0.932   2.173  -3.595  0.00  0.00    +0.038 A 
ATOM     22  C   UNL     1      -2.067   2.954  -3.458  0.00  0.00    +0.123 A 
ATOM     23  C   UNL     1      -2.537   3.272  -2.195  0.00  0.00    +0.038 A 
ATOM     24  C   UNL     1      -1.874   2.811  -1.074  0.00  0.00    +0.007 A 
ATOM     25  C   UNL     1      -0.741   2.031  -1.213  0.00  0.00    -0.039 A 
ATOM     26  F   UNL     1      -2.714   3.405  -4.554  0.00  0.00    -0.205 F 
ENDBRANCH   1  25
BRANCH  11  27
ATOM     27  C   UNL     1       1.746   3.223   0.708  0.00  0.00    +0.098 C 
ATOM     28  N   UNL     1       2.018   4.172   1.271  0.00  0.00    -0.191 NA
ENDBRANCH  11  27
TORSDOF 3
