REMARK  Name = ZINC11818505
REMARK  11 active torsions:
REMARK  status: ('A' for Active; 'I' for Inactive)
REMARK    1  A    between atoms: N_9  and  C_10
REMARK    2  A    between atoms: C_10  and  C_11
REMARK    3  A    between atoms: C_11  and  N_61
REMARK    4  A    between atoms: C_12  and  C_13
REMARK    5  A    between atoms: C_12  and  N_61
REMARK    6  A    between atoms: C_16  and  O_19
REMARK    7  A    between atoms: O_19  and  C_20
REMARK    8  A    between atoms: C_20  and  C_21
REMARK    9  A    between atoms: C_21  and  C_23
REMARK   10  A    between atoms: C_21  and  O_29
REMARK   11  A    between atoms: C_23  and  N_64
REMARK                            x       y       z     vdW  Elec       q    Type
REMARK                         _______ _______ _______ _____ _____    ______ ____
ROOT
ATOM      1  C   UNL     1       9.410  -1.670   5.728  0.00  0.00    -0.064 A 
ATOM      2  C   UNL     1       9.816  -0.832   4.706  0.00  0.00    +0.005 A 
ATOM      3  C   UNL     1       8.900  -0.383   3.774  0.00  0.00    +0.046 A 
ATOM      4  C   UNL     1       7.572  -0.773   3.864  0.00  0.00    +0.121 A 
ATOM      5  C   UNL     1       7.166  -1.609   4.894  0.00  0.00    +0.046 A 
ATOM      6  C   UNL     1       8.086  -2.060   5.820  0.00  0.00    +0.005 A 
ENDROOT
BRANCH   1   7
ATOM      7  C   UNL     1      10.411  -2.159   6.743  0.00  0.00    -0.047 C 
BRANCH   7   8
ATOM      8  N   UNL     1      10.461  -1.208   7.869  0.00  0.00    +0.383 N 
ATOM      9  H   UNL     1      10.741  -0.284   7.520  0.00  0.00    -0.085 HD
ATOM     10  H   UNL     1       9.531  -1.143   8.299  0.00  0.00    -0.085 HD
BRANCH   8  11
ATOM     11  C   UNL     1      11.434  -1.662   8.880  0.00  0.00    -0.060 C 
BRANCH  11  12
ATOM     12  C   UNL     1      11.465  -0.657  10.034  0.00  0.00    +0.103 C 
BRANCH  12  21
ATOM     13  C   UNL     1      16.509  -0.665  11.501  0.00  0.00    +0.001 A 
ATOM     14  C   UNL     1      15.959  -0.075  10.371  0.00  0.00    +0.002 A 
ATOM     15  C   UNL     1      14.606  -0.161  10.122  0.00  0.00    +0.026 A 
ATOM     16  C   UNL     1      13.782  -0.844  11.010  0.00  0.00    +0.049 A 
ATOM     17  C   UNL     1      14.345  -1.440  12.154  0.00  0.00    -0.000 A 
ATOM     18  C   UNL     1      15.718  -1.341  12.387  0.00  0.00    +0.010 A 
ATOM     19  C   UNL     1      13.233  -2.070  12.870  0.00  0.00    +0.027 A 
ATOM     20  C   UNL     1      12.121  -1.828  12.160  0.00  0.00    +0.087 A 
ATOM     21  N   UNL     1      12.430  -1.101  11.042  0.00  0.00    -0.348 N 
ENDBRANCH  12  21
ENDBRANCH  11  12
ENDBRANCH   8  11
ENDBRANCH   7   8
ENDBRANCH   1   7
BRANCH   4  22
ATOM     22  O   UNL     1       6.670  -0.332   2.949  0.00  0.00    -0.489 OA
BRANCH  22  23
ATOM     23  C   UNL     1       5.320  -0.774   3.104  0.00  0.00    +0.258 C 
BRANCH  23  24
ATOM     24  C   UNL     1       4.457  -0.179   1.989  0.00  0.00    +0.135 C 
BRANCH  24  25
ATOM     25  O   UNL     1       4.883  -0.700   0.729  0.00  0.00    -0.390 OA
ATOM     26  H   UNL     1       4.817  -1.662   0.658  0.00  0.00    +0.210 HD
ENDBRANCH  24  25
BRANCH  24  27
ATOM     27  C   UNL     1       2.991  -0.550   2.226  0.00  0.00    -0.044 C 
BRANCH  27  33
ATOM     28  C   UNL     1       0.793  -0.505   1.212  0.00  0.00    -0.079 C 
ATOM     29  C   UNL     1       0.002  -0.004   0.002  0.00  0.00    -0.019 C 
ATOM     30  C   UNL     1      -0.019   1.527   0.010  0.00  0.00    -0.004 C 
ATOM     31  C   UNL     1       1.421   2.049  -0.001  0.00  0.00    -0.019 C 
ATOM     32  C   UNL     1       2.171   1.488   1.210  0.00  0.00    -0.079 C 
ATOM     33  N   UNL     1       2.176   0.012   1.129  0.00  0.00    +0.381 N 
ATOM     34  H   UNL     1       2.584  -0.271   0.231  0.00  0.00    -0.082 HD
ENDBRANCH  27  33
ENDBRANCH  24  27
ENDBRANCH  23  24
ENDBRANCH  22  23
ENDBRANCH   4  22
TORSDOF 11
