REMARK  Name = ZINC01050743
REMARK  6 active torsions:
REMARK  status: ('A' for Active; 'I' for Inactive)
REMARK    1  A    between atoms: C_1  and  C_2
REMARK    2  A    between atoms: C_7  and  N_21
REMARK    3  A    between atoms: C_8  and  C_13
REMARK    4  A    between atoms: N_14  and  C_15
REMARK    5  A    between atoms: N_21  and  C_22
REMARK    6  A    between atoms: C_22  and  C_23
REMARK                            x       y       z     vdW  Elec       q    Type
REMARK                         _______ _______ _______ _____ _____    ______ ____
ROOT
ATOM      1  C   UNL     1       8.850  -5.561   1.656  0.00  0.00    +0.045 C 
ATOM      2  C   UNL     1       8.622  -4.383   0.744  0.00  0.00    -0.034 A 
ATOM      3  C   UNL     1       9.639  -3.963  -0.124  0.00  0.00    +0.008 A 
ATOM      4  C   UNL     1       9.424  -2.897  -0.947  0.00  0.00    +0.047 A 
ATOM      5  C   UNL     1       8.184  -2.233  -0.911  0.00  0.00    +0.142 A 
ATOM      6  N   UNL     1       7.983  -1.191  -1.718  0.00  0.00    -0.214 NA
ATOM      7  C   UNL     1       6.834  -0.529  -1.725  0.00  0.00    +0.135 A 
ATOM      8  C   UNL     1       5.792  -0.932  -0.859  0.00  0.00    +0.098 A 
ATOM      9  C   UNL     1       6.019  -2.035  -0.004  0.00  0.00    +0.269 A 
ATOM     10  O   UNL     1       5.149  -2.413   0.763  0.00  0.00    -0.266 OA
ATOM     11  N   UNL     1       7.212  -2.665  -0.053  0.00  0.00    -0.267 N 
ATOM     12  C   UNL     1       7.437  -3.733   0.765  0.00  0.00    +0.099 A 
ENDROOT
BRANCH   8  13
ATOM     13  C   UNL     1       4.554  -0.244  -0.844  0.00  0.00    +0.128 C 
ATOM     14  N   UNL     1       3.600  -0.630  -0.035  0.00  0.00    -0.255 NA
BRANCH  14  15
ATOM     15  C   UNL     1       2.404   0.034  -0.021  0.00  0.00    +0.064 A 
ATOM     16  C   UNL     1       1.204  -0.681  -0.013  0.00  0.00    +0.028 A 
ATOM     17  C   UNL     1       0.002  -0.004   0.002  0.00  0.00    +0.002 A 
ATOM     18  C   UNL     1      -0.017   1.379   0.010  0.00  0.00    +0.000 A 
ATOM     19  C   UNL     1       1.168   2.094   0.002  0.00  0.00    +0.002 A 
ATOM     20  C   UNL     1       2.377   1.431  -0.013  0.00  0.00    +0.028 A 
ENDBRANCH  14  15
ENDBRANCH   8  13
BRANCH   7  21
ATOM     21  N   UNL     1       6.657   0.543  -2.571  0.00  0.00    -0.324 N 
ATOM     22  H   UNL     1       5.815   1.025  -2.574  0.00  0.00    +0.148 HD
BRANCH  21  23
ATOM     23  C   UNL     1       7.740   0.957  -3.466  0.00  0.00    +0.138 C 
BRANCH  23  24
ATOM     24  C   UNL     1       7.294   2.144  -4.279  0.00  0.00    -0.030 A 
ATOM     25  C   UNL     1       6.676   1.953  -5.501  0.00  0.00    +0.005 A 
ATOM     26  C   UNL     1       6.262   3.042  -6.245  0.00  0.00    +0.000 A 
ATOM     27  C   UNL     1       6.476   4.324  -5.771  0.00  0.00    +0.000 A 
ATOM     28  C   UNL     1       7.099   4.515  -4.553  0.00  0.00    +0.000 A 
ATOM     29  C   UNL     1       7.508   3.426  -3.807  0.00  0.00    +0.005 A 
ENDBRANCH  23  24
ENDBRANCH  21  23
ENDBRANCH   7  21
TORSDOF 5
