REMARK  Name = ZINC41586519
REMARK  9 active torsions:
REMARK  status: ('A' for Active; 'I' for Inactive)
REMARK    1  A    between atoms: C_1  and  C_2
REMARK    2  A    between atoms: C_2  and  O_3
REMARK    3  A    between atoms: O_3  and  C_4
REMARK    4  A    between atoms: C_4  and  C_6
REMARK    5  A    between atoms: N_11  and  C_13
REMARK    6  A    between atoms: C_13  and  C_14
REMARK    7  A    between atoms: C_15  and  O_37
REMARK    8  A    between atoms: C_22  and  C_23
REMARK    9  A    between atoms: C_26  and  C_29
REMARK                            x       y       z     vdW  Elec       q    Type
REMARK                         _______ _______ _______ _____ _____    ______ ____
ROOT
ATOM      1  C   UNL     1       2.734  -6.429   4.838  0.00  0.00    +0.020 A 
ATOM      2  C   UNL     1       4.088  -6.720   4.892  0.00  0.00    +0.122 A 
ATOM      3  C   UNL     1       4.652  -7.254   6.047  0.00  0.00    +0.046 A 
ATOM      4  C   UNL     1       3.873  -7.499   7.142  0.00  0.00    +0.019 A 
ATOM      5  C   UNL     1       2.508  -7.211   7.102  0.00  0.00    +0.068 A 
ATOM      6  C   UNL     1       1.929  -6.665   5.945  0.00  0.00    +0.144 A 
ATOM      7  O   UNL     1       0.608  -6.467   6.146  0.00  0.00    -0.451 OA
ATOM      8  C   UNL     1       0.227  -6.840   7.390  0.00  0.00    +0.176 C 
ATOM      9  C   UNL     1      -1.029  -6.768   7.900  0.00  0.00    +0.058 C 
ATOM     10  C   UNL     1       1.419  -7.353   8.085  0.00  0.00    +0.231 C 
ATOM     11  O   UNL     1       1.492  -7.783   9.223  0.00  0.00    -0.283 OA
ENDROOT
BRANCH   9  12
ATOM     12  C   UNL     1      -2.103  -6.139   7.120  0.00  0.00    -0.021 A 
ATOM     13  C   UNL     1      -3.365  -5.943   7.695  0.00  0.00    +0.008 A 
ATOM     14  C   UNL     1      -4.362  -5.357   6.968  0.00  0.00    +0.009 A 
ATOM     15  C   UNL     1      -4.123  -4.955   5.652  0.00  0.00    -0.018 A 
ATOM     16  C   UNL     1      -2.867  -5.149   5.077  0.00  0.00    +0.009 A 
ATOM     17  C   UNL     1      -1.865  -5.730   5.802  0.00  0.00    +0.008 A 
BRANCH  15  18
ATOM     18  C   UNL     1      -5.207  -4.320   4.865  0.00  0.00    -0.018 A 
ATOM     19  C   UNL     1      -6.463  -4.119   5.438  0.00  0.00    +0.008 A 
ATOM     20  C   UNL     1      -7.467  -3.527   4.700  0.00  0.00    +0.001 A 
ATOM     21  C   UNL     1      -7.231  -3.134   3.395  0.00  0.00    +0.000 A 
ATOM     22  C   UNL     1      -5.988  -3.331   2.821  0.00  0.00    +0.001 A 
ATOM     23  C   UNL     1      -4.974  -3.917   3.551  0.00  0.00    +0.008 A 
ENDBRANCH  15  18
ENDBRANCH   9  12
BRANCH   2  24
ATOM     24  O   UNL     1       4.871  -6.481   3.809  0.00  0.00    -0.506 OA
ATOM     25  H   UNL     1       5.261  -5.597   3.793  0.00  0.00    +0.292 HD
ENDBRANCH   2  24
BRANCH   1  26
ATOM     26  C   UNL     1       2.137  -5.850   3.581  0.00  0.00    -0.036 C 
BRANCH  26  31
ATOM     27  C   UNL     1       1.507  -2.291   2.570  0.00  0.00    +0.081 C 
ATOM     28  C   UNL     1       2.952  -1.785   2.598  0.00  0.00    +0.011 C 
ATOM     29  C   UNL     1       3.689  -2.438   3.770  0.00  0.00    -0.018 C 
ATOM     30  C   UNL     1       3.611  -3.960   3.631  0.00  0.00    -0.078 C 
ATOM     31  N   UNL     1       2.205  -4.384   3.637  0.00  0.00    +0.383 N 
ATOM     32  C   UNL     1       1.509  -3.819   2.475  0.00  0.00    -0.064 C 
ATOM     33  H   UNL     1       1.761  -4.060   4.483  0.00  0.00    -0.081 HD
BRANCH  27  34
ATOM     34  C   UNL     1       0.795  -1.714   1.374  0.00  0.00    +0.308 C 
ATOM     35  O   UNL     1       0.334  -2.448   0.533  0.00  0.00    -0.251 OA
BRANCH  34  36
ATOM     36  O   UNL     1       0.673  -0.384   1.243  0.00  0.00    -0.465 OA
BRANCH  36  38
ATOM     37  C   UNL     1      -0.054   1.623   0.110  0.00  0.00    +0.048 C 
ATOM     38  C   UNL     1      -0.015   0.094   0.085  0.00  0.00    +0.229 C 
ENDBRANCH  36  38
ENDBRANCH  34  36
ENDBRANCH  27  34
ENDBRANCH  26  31
ENDBRANCH   1  26
TORSDOF 8
