REMARK  Name = ZINC30270177
REMARK  11 active torsions:
REMARK  status: ('A' for Active; 'I' for Inactive)
REMARK    1  A    between atoms: C_1  and  C_2
REMARK    2  A    between atoms: C_2  and  C_3
REMARK    3  A    between atoms: C_3  and  C_4
REMARK    4  A    between atoms: C_4  and  C_6
REMARK    5  A    between atoms: C_4  and  N_7
REMARK    6  A    between atoms: N_7  and  C_8
REMARK    7  A    between atoms: N_7  and  C_9
REMARK    8  A    between atoms: C_9  and  C_10
REMARK    9  A    between atoms: N_12  and  C_13
REMARK   10  A    between atoms: C_13  and  C_15
REMARK   11  A    between atoms: C_13  and  C_22
REMARK                            x       y       z     vdW  Elec       q    Type
REMARK                         _______ _______ _______ _____ _____    ______ ____
ROOT
ATOM      1  C   UNL     1      -1.667  -0.128   0.982  0.00  0.00    +0.197 C 
ATOM      2  O   UNL     1      -2.402   0.831   1.089  0.00  0.00    -0.278 OA
ATOM      3  N   UNL     1      -2.106  -1.355   1.325  0.00  0.00    -0.306 N 
ATOM      4  H   UNL     1      -1.439  -2.225   1.228  0.00  0.00    +0.150 HD
ENDROOT
BRANCH   1   5
ATOM      5  C   UNL     1      -0.262   0.053   0.466  0.00  0.00    +0.019 C 
BRANCH   5   6
ATOM      6  N   UNL     1      -0.030   1.472   0.165  0.00  0.00    +0.385 N 
ATOM      7  C   UNL     1      -0.873   1.918  -0.952  0.00  0.00    -0.095 C 
ATOM      8  H   UNL     1      -0.310   2.056   1.054  0.00  0.00    -0.081 HD
BRANCH   6   9
ATOM      9  C   UNL     1       1.390   1.726  -0.113  0.00  0.00    -0.071 C 
ATOM     10  C   UNL     1       2.224   1.356   1.115  0.00  0.00    -0.013 C 
BRANCH   9  11
ATOM     11  C   UNL     1       1.589   3.207  -0.438  0.00  0.00    -0.016 C 
BRANCH  11  13
ATOM     12  C   UNL     1       3.225   4.906  -1.262  0.00  0.00    +0.004 C 
ATOM     13  C   UNL     1       3.053   3.457  -0.805  0.00  0.00    -0.005 C 
ENDBRANCH  11  13
ENDBRANCH   9  11
ENDBRANCH   6   9
ENDBRANCH   5   6
ENDBRANCH   1   5
BRANCH   3  14
ATOM     14  C   UNL     1      -3.471  -1.531   1.826  0.00  0.00    +0.140 C 
BRANCH  14  15
ATOM     15  C   UNL     1      -3.926  -2.943   1.561  0.00  0.00    -0.022 A 
ATOM     16  C   UNL     1      -3.044  -3.995   1.726  0.00  0.00    +0.008 A 
ATOM     17  C   UNL     1      -3.462  -5.291   1.488  0.00  0.00    +0.038 A 
ATOM     18  C   UNL     1      -4.760  -5.534   1.073  0.00  0.00    +0.123 A 
ATOM     19  C   UNL     1      -5.640  -4.479   0.902  0.00  0.00    +0.038 A 
ATOM     20  C   UNL     1      -5.222  -3.185   1.146  0.00  0.00    +0.008 A 
ATOM     21  F   UNL     1      -5.168  -6.800   0.834  0.00  0.00    -0.205 F 
ENDBRANCH  14  15
BRANCH  14  22
ATOM     22  C   UNL     1      -3.499  -1.265   3.309  0.00  0.00    +0.014 A 
ATOM     23  C   UNL     1      -4.433  -0.609   4.041  0.00  0.00    +0.013 A 
ATOM     24  C   UNL     1      -4.250  -0.487   5.406  0.00  0.00    +0.008 A 
ATOM     25  C   UNL     1      -3.139  -1.018   5.971  0.00  0.00    +0.045 A 
ATOM     26  S   UNL     1      -2.308  -1.725   4.557  0.00  0.00    -0.099 S 
ENDBRANCH  14  22
ENDBRANCH   3  14
TORSDOF 8
