REMARK  Name = ZINC03850197
REMARK  6 active torsions:
REMARK  status: ('A' for Active; 'I' for Inactive)
REMARK    1  A    between atoms: C_1  and  C_2
REMARK    2  A    between atoms: C_5  and  S_8
REMARK    3  A    between atoms: S_8  and  O_11
REMARK    4  A    between atoms: O_11  and  C_12
REMARK    5  A    between atoms: C_18  and  C_36
REMARK    6  A    between atoms: C_29  and  C_35
REMARK                            x       y       z     vdW  Elec       q    Type
REMARK                         _______ _______ _______ _____ _____    ______ ____
ROOT
ATOM      1  C   UNL     1      -0.114   1.344  -2.563  0.00  0.00    +0.156 C 
ATOM      2  C   UNL     1      -0.725   2.442  -3.474  0.00  0.00    +0.035 C 
ATOM      3  C   UNL     1      -1.413   3.467  -2.527  0.00  0.00    +0.007 C 
ATOM      4  C   UNL     1      -0.775   3.142  -1.170  0.00  0.00    +0.001 C 
ATOM      5  C   UNL     1      -0.770   1.603  -1.193  0.00  0.00    -0.000 C 
ATOM      6  C   UNL     1      -0.013   1.087   0.008  0.00  0.00    +0.010 C 
ATOM      7  C   UNL     1      -0.738   1.584   1.276  0.00  0.00    +0.005 C 
ATOM      8  C   UNL     1      -0.789   3.101   1.309  0.00  0.00    -0.001 C 
ATOM      9  C   UNL     1      -1.400   3.729   0.064  0.00  0.00    -0.004 C 
ATOM     10  C   UNL     1      -2.914   3.771   0.017  0.00  0.00    +0.004 C 
ATOM     11  C   UNL     1      -3.520   3.646   1.419  0.00  0.00    +0.005 C 
ATOM     12  C   UNL     1      -2.622   4.451   2.348  0.00  0.00    +0.002 C 
ATOM     13  C   UNL     1      -1.333   3.667   2.608  0.00  0.00    -0.025 C 
ATOM     14  C   UNL     1      -0.329   4.630   3.254  0.00  0.00    +0.015 C 
ATOM     15  C   UNL     1      -0.862   5.106   4.607  0.00  0.00    +0.075 C 
ATOM     16  C   UNL     1      -2.284   5.593   4.493  0.00  0.00    +0.134 C 
ATOM     17  O   UNL     1      -2.627   6.604   5.067  0.00  0.00    -0.297 OA
ATOM     18  C   UNL     1      -3.291   4.823   3.663  0.00  0.00    +0.078 C 
ATOM     19  C   UNL     1      -1.615   2.533   3.593  0.00  0.00    +0.012 C 
ATOM     20  C   UNL     1      -2.163   0.982  -1.237  0.00  0.00    +0.014 C 
ENDROOT
BRANCH   1  21
ATOM     21  O   UNL     1      -0.470   0.046  -3.033  0.00  0.00    -0.230 OA
BRANCH  21  22
ATOM     22  S   UNL     1       0.632  -0.653  -3.814  0.00  0.00    +0.112 S 
ATOM     23  O   UNL     1       0.052  -1.821  -4.379  0.00  0.00    -0.142 OA
ATOM     24  O   UNL     1       1.264   0.343  -4.607  0.00  0.00    -0.142 OA
BRANCH  22  29
ATOM     25  C   UNL     1       4.739  -2.531   0.188  0.00  0.00    +0.044 C 
ATOM     26  C   UNL     1       3.713  -2.062  -0.812  0.00  0.00    -0.050 A 
ATOM     27  C   UNL     1       2.660  -2.887  -1.161  0.00  0.00    +0.005 A 
ATOM     28  C   UNL     1       1.720  -2.457  -2.078  0.00  0.00    +0.030 A 
ATOM     29  C   UNL     1       1.831  -1.202  -2.646  0.00  0.00    +0.117 A 
ATOM     30  C   UNL     1       2.887  -0.379  -2.301  0.00  0.00    +0.030 A 
ATOM     31  C   UNL     1       3.825  -0.807  -1.380  0.00  0.00    +0.005 A 
ENDBRANCH  22  29
ENDBRANCH  21  22
ENDBRANCH   1  21
TORSDOF 3
