REMARK  Name = ZINC35662546
REMARK  5 active torsions:
REMARK  status: ('A' for Active; 'I' for Inactive)
REMARK    1  A    between atoms: C_5  and  C_7
REMARK    2  A    between atoms: C_7  and  O_8
REMARK    3  A    between atoms: O_8  and  C_9
REMARK    4  A    between atoms: C_10  and  C_17
REMARK    5  A    between atoms: C_17  and  O_18
REMARK                            x       y       z     vdW  Elec       q    Type
REMARK                         _______ _______ _______ _____ _____    ______ ____
ROOT
ATOM      1  C   UNL     1      -0.272  -4.030  -0.017  0.00  0.00    +0.145 A 
ATOM      2  C   UNL     1      -0.360  -4.714  -1.221  0.00  0.00    +0.022 A 
ATOM      3  C   UNL     1      -0.523  -6.086  -1.225  0.00  0.00    +0.029 A 
ATOM      4  C   UNL     1      -0.598  -6.779  -0.029  0.00  0.00    +0.043 A 
ATOM      5  C   UNL     1      -0.510  -6.100   1.173  0.00  0.00    +0.043 A 
ATOM      6  C   UNL     1      -0.342  -4.727   1.181  0.00  0.00    +0.084 A 
ATOM      7 CL   UNL     1      -0.225  -3.876   2.690  0.00  0.00    -0.080 Cl
ATOM      8 CL   UNL     1      -0.803  -8.503  -0.038  0.00  0.00    -0.083 Cl
ENDROOT
BRANCH   1   9
ATOM      9  O   UNL     1      -0.112  -2.680  -0.011  0.00  0.00    -0.486 OA
BRANCH   9  10
ATOM     10  C   UNL     1       1.229  -2.186  -0.022  0.00  0.00    +0.266 C 
BRANCH  10  15
ATOM     11  C   UNL     1      -0.017   1.378   0.010  0.00  0.00    +0.000 A 
ATOM     12  C   UNL     1       1.171   2.086   0.002  0.00  0.00    +0.001 A 
ATOM     13  C   UNL     1       2.377   1.412  -0.013  0.00  0.00    +0.020 A 
ATOM     14  C   UNL     1       2.397   0.029  -0.021  0.00  0.00    +0.047 A 
ATOM     15  C   UNL     1       1.208  -0.679  -0.013  0.00  0.00    +0.008 A 
ATOM     16  C   UNL     1       0.002  -0.004   0.002  0.00  0.00    +0.008 A 
ATOM     17 CL   UNL     1       3.912  -0.818  -0.041  0.00  0.00    -0.083 Cl
ENDBRANCH  10  15
ENDBRANCH   9  10
ENDBRANCH   1   9
BRANCH   2  18
ATOM     18  C   UNL     1      -0.279  -3.960  -2.523  0.00  0.00    +0.194 C 
BRANCH  18  19
ATOM     19  O   UNL     1      -0.394  -4.878  -3.612  0.00  0.00    -0.390 OA
ATOM     20  H   UNL     1      -0.350  -4.462  -4.484  0.00  0.00    +0.210 HD
ENDBRANCH  18  19
ENDBRANCH   2  18
TORSDOF 5
