REMARK  Name = ZINC13033698
REMARK  7 active torsions:
REMARK  status: ('A' for Active; 'I' for Inactive)
REMARK    1  A    between atoms: C_12  and  C_13
REMARK    2  A    between atoms: C_13  and  N_64
REMARK    3  A    between atoms: C_14  and  C_15
REMARK    4  A    between atoms: C_14  and  N_64
REMARK    5  A    between atoms: N_19  and  C_20
REMARK    6  A    between atoms: C_25  and  C_26
REMARK    7  A    between atoms: C_25  and  N_64
REMARK                            x       y       z     vdW  Elec       q    Type
REMARK                         _______ _______ _______ _____ _____    ______ ____
ROOT
ATOM      1  N   UNL     1      -2.259   3.542   3.217  0.00  0.00    +0.389 N 
ATOM      2  H   UNL     1      -1.635   4.215   2.757  0.00  0.00    -0.081 HD
ENDROOT
BRANCH   1   3
ATOM      3  C   UNL     1      -3.292   4.282   3.972  0.00  0.00    -0.037 C 
BRANCH   3  15
ATOM      4  C   UNL     1      -4.906   5.312   2.395  0.00  0.00    +0.017 A 
ATOM      5  C   UNL     1      -5.347   6.451   1.592  0.00  0.00    +0.002 A 
ATOM      6  C   UNL     1      -6.512   6.382   0.818  0.00  0.00    +0.059 A 
ATOM      7  C   UNL     1      -6.902   7.471   0.067  0.00  0.00    +0.163 A 
ATOM      8  C   UNL     1      -6.138   8.642   0.076  0.00  0.00    +0.164 A 
ATOM      9  C   UNL     1      -4.984   8.719   0.838  0.00  0.00    +0.075 A 
ATOM     10  C   UNL     1      -4.578   7.631   1.599  0.00  0.00    +0.053 A 
ATOM     11  N   UNL     1      -3.430   7.690   2.364  0.00  0.00    -0.322 N 
ATOM     12  H   UNL     1      -2.901   8.503   2.368  0.00  0.00    +0.169 HD
ATOM     13  C   UNL     1      -3.036   6.638   3.102  0.00  0.00    +0.251 A 
ATOM     14  O   UNL     1      -2.017   6.727   3.765  0.00  0.00    -0.268 OA
ATOM     15  C   UNL     1      -3.771   5.436   3.129  0.00  0.00    +0.001 A 
ATOM     16  O   UNL     1      -6.517   9.722  -0.659  0.00  0.00    -0.485 OA
ATOM     17  C   UNL     1      -7.470   9.489  -1.701  0.00  0.00    +0.270 C 
ATOM     18  C   UNL     1      -8.601   8.622  -1.134  0.00  0.00    +0.270 C 
ATOM     19  O   UNL     1      -8.036   7.387  -0.683  0.00  0.00    -0.485 OA
ENDBRANCH   3  15
ENDBRANCH   1   3
BRANCH   1  20
ATOM     20  C   UNL     1      -1.464   2.703   4.139  0.00  0.00    +0.001 C 
BRANCH  20  21
ATOM     21  C   UNL     1      -0.263   2.173   3.399  0.00  0.00    +0.135 A 
ATOM     22  N   UNL     1      -0.206   1.080   2.679  0.00  0.00    -0.115 NA
ATOM     23  N   UNL     1       0.989   0.973   2.210  0.00  0.00    -0.023 NA
ATOM     24  N   UNL     1       1.699   1.966   2.619  0.00  0.00    -0.044 NA
ATOM     25  N   UNL     1       0.963   2.728   3.356  0.00  0.00    -0.228 N 
BRANCH  25  26
ATOM     26  C   UNL     1       1.382   3.965   4.019  0.00  0.00    +0.111 C 
ATOM     27  C   UNL     1       1.915   4.969   2.976  0.00  0.00    +0.027 C 
ATOM     28  C   UNL     1       3.096   5.671   3.694  0.00  0.00    +0.002 C 
ATOM     29  C   UNL     1       3.742   4.516   4.499  0.00  0.00    +0.002 C 
ATOM     30  C   UNL     1       2.543   3.677   4.987  0.00  0.00    +0.027 C 
ENDBRANCH  25  26
ENDBRANCH  20  21
ENDBRANCH   1  20
BRANCH   1  31
ATOM     31  C   UNL     1      -2.895   2.696   2.186  0.00  0.00    -0.046 C 
BRANCH  31  32
ATOM     32  C   UNL     1      -3.726   1.589   2.838  0.00  0.00    +0.102 C 
ATOM     33  C   UNL     1      -4.246   0.595   1.768  0.00  0.00    +0.032 C 
ATOM     34  C   UNL     1      -5.498   0.001   2.459  0.00  0.00    +0.030 C 
ATOM     35  C   UNL     1      -5.866   1.042   3.534  0.00  0.00    +0.160 C 
ATOM     36  O   UNL     1      -4.936   2.131   3.414  0.00  0.00    -0.378 OA
ENDBRANCH  31  32
ENDBRANCH   1  31
TORSDOF 7
