REMARK  Name = ZINC34107143
REMARK  8 active torsions:
REMARK  status: ('A' for Active; 'I' for Inactive)
REMARK    1  A    between atoms: C_1  and  C_2
REMARK    2  A    between atoms: C_10  and  O_34
REMARK    3  A    between atoms: C_21  and  C_22
REMARK    4  A    between atoms: C_25  and  O_30
REMARK    5  A    between atoms: C_26  and  O_28
REMARK    6  A    between atoms: O_28  and  C_29
REMARK    7  A    between atoms: O_30  and  C_31
REMARK    8  A    between atoms: O_34  and  C_35
REMARK                            x       y       z     vdW  Elec       q    Type
REMARK                         _______ _______ _______ _____ _____    ______ ____
ROOT
ATOM      1  C   UNL     1      -0.133   1.642   0.167  0.00  0.00    +0.020 C 
ATOM      2  C   UNL     1      -0.031   0.115   0.179  0.00  0.00    +0.034 C 
ATOM      3  C   UNL     1       0.765  -0.386  -1.023  0.00  0.00    +0.015 C 
ATOM      4  C   UNL     1       2.146   0.249  -1.065  0.00  0.00    +0.009 C 
ATOM      5  C   UNL     1       2.715   0.444   0.341  0.00  0.00    +0.023 C 
ATOM      6  C   UNL     1       4.210   0.211   0.268  0.00  0.00    -0.041 A 
ATOM      7  C   UNL     1       5.010   1.268  -0.140  0.00  0.00    +0.008 A 
ATOM      8  C   UNL     1       6.377   1.114  -0.235  0.00  0.00    +0.046 A 
ATOM      9  C   UNL     1       6.952  -0.109   0.079  0.00  0.00    +0.120 A 
ATOM     10  C   UNL     1       6.151  -1.161   0.489  0.00  0.00    +0.049 A 
ATOM     11  C   UNL     1       4.774  -1.002   0.590  0.00  0.00    -0.040 A 
ATOM     12  C   UNL     1       3.974  -2.184   1.071  0.00  0.00    +0.036 C 
ATOM     13  C   UNL     1       2.479  -1.976   0.824  0.00  0.00    +0.009 C 
ATOM     14  C   UNL     1       2.104  -0.564   1.307  0.00  0.00    +0.001 C 
ATOM     15  C   UNL     1       0.632  -0.382   1.476  0.00  0.00    +0.010 C 
ATOM     16  C   UNL     1      -0.055  -1.742   1.714  0.00  0.00    +0.043 C 
ATOM     17  C   UNL     1      -1.416  -1.611   1.067  0.00  0.00    -0.004 C 
ATOM     18  C   UNL     1      -2.479  -2.418   1.306  0.00  0.00    +0.015 C 
ATOM     19  C   UNL     1      -1.406  -0.520   0.176  0.00  0.00    +0.165 C 
ATOM     20  O   UNL     1      -2.352  -0.147  -0.489  0.00  0.00    -0.292 OA
ENDROOT
BRANCH  18  21
ATOM     21  C   UNL     1      -2.322  -3.606   2.153  0.00  0.00    -0.021 A 
ATOM     22  C   UNL     1      -1.089  -4.269   2.212  0.00  0.00    +0.012 A 
ATOM     23  C   UNL     1      -0.945  -5.384   3.008  0.00  0.00    +0.050 A 
ATOM     24  C   UNL     1      -2.019  -5.854   3.752  0.00  0.00    +0.162 A 
ATOM     25  C   UNL     1      -3.251  -5.200   3.698  0.00  0.00    +0.162 A 
ATOM     26  C   UNL     1      -3.403  -4.078   2.909  0.00  0.00    +0.057 A 
BRANCH  25  27
ATOM     27  O   UNL     1      -4.299  -5.665   4.429  0.00  0.00    -0.491 OA
ATOM     28  C   UNL     1      -5.530  -4.946   4.326  0.00  0.00    +0.277 C 
ENDBRANCH  25  27
BRANCH  24  29
ATOM     29  O   UNL     1      -1.871  -6.954   4.535  0.00  0.00    -0.491 OA
ATOM     30  C   UNL     1      -0.584  -7.575   4.543  0.00  0.00    +0.277 C 
ENDBRANCH  24  29
ENDBRANCH  18  21
BRANCH   9  31
ATOM     31  O   UNL     1       8.297  -0.274  -0.017  0.00  0.00    -0.495 OA
ATOM     32  C   UNL     1       9.061   0.855  -0.447  0.00  0.00    +0.277 C 
ENDBRANCH   9  31
TORSDOF 4
