REMARK  Name = ZINC22798312
REMARK  8 active torsions:
REMARK  status: ('A' for Active; 'I' for Inactive)
REMARK    1  A    between atoms: C_1  and  N_2
REMARK    2  A    between atoms: N_5  and  C_8
REMARK    3  A    between atoms: C_8  and  C_10
REMARK    4  A    between atoms: C_8  and  C_26
REMARK    5  A    between atoms: C_10  and  N_11
REMARK    6  A    between atoms: N_11  and  S_12
REMARK    7  A    between atoms: S_12  and  C_15
REMARK    8  A    between atoms: C_19  and  C_21
REMARK                            x       y       z     vdW  Elec       q    Type
REMARK                         _______ _______ _______ _____ _____    ______ ____
ROOT
ATOM      1  C   UNL     1      -1.193   2.126   0.101  0.00  0.00    +0.102 C 
ENDROOT
BRANCH   1   2
ATOM      2  C   UNL     1       0.050   1.275   0.062  0.00  0.00    -0.025 A 
ATOM      3  C   UNL     1       1.296   1.868   0.146  0.00  0.00    +0.009 A 
ATOM      4  C   UNL     1       2.439   1.092   0.104  0.00  0.00    +0.050 A 
ATOM      5  C   UNL     1       2.338  -0.284  -0.022  0.00  0.00    +0.166 A 
ATOM      6  C   UNL     1       1.083  -0.882  -0.108  0.00  0.00    +0.167 A 
ATOM      7  C   UNL     1      -0.058  -0.098  -0.065  0.00  0.00    +0.054 A 
ATOM      8  O   UNL     1       1.250  -2.232  -0.226  0.00  0.00    -0.453 OA
ATOM      9  C   UNL     1       2.601  -2.491   0.198  0.00  0.00    +0.466 C 
ATOM     10  O   UNL     1       3.291  -1.259  -0.087  0.00  0.00    -0.453 OA
ENDBRANCH   1   2
BRANCH   1  15
ATOM     11  C   UNL     1      -1.285   6.452  -3.529  0.00  0.00    -0.096 C 
ATOM     12  N   UNL     1      -1.507   5.226  -2.752  0.00  0.00    +0.379 N 
ATOM     13  C   UNL     1      -0.340   4.336  -2.827  0.00  0.00    -0.064 C 
ATOM     14  C   UNL     1      -0.641   3.039  -2.073  0.00  0.00    +0.066 C 
ATOM     15  N   UNL     1      -0.971   3.353  -0.676  0.00  0.00    -0.298 NA
ATOM     16  C   UNL     1      -2.138   4.243  -0.600  0.00  0.00    +0.066 C 
ATOM     17  C   UNL     1      -1.837   5.540  -1.355  0.00  0.00    -0.064 C 
ATOM     18  H   UNL     1      -2.365   4.698  -3.193  0.00  0.00    -0.082 HD
ENDBRANCH   1  15
BRANCH   1  19
ATOM     19  C   UNL     1      -1.514   2.493   1.552  0.00  0.00    +0.129 C 
BRANCH  19  20
ATOM     20  N   UNL     1      -1.810   1.274   2.309  0.00  0.00    -0.188 NA
ATOM     21  H   UNL     1      -2.203   0.386   1.791  0.00  0.00    +0.148 HD
BRANCH  20  22
ATOM     22  S   UNL     1      -1.793   1.303   3.965  0.00  0.00    +0.058 S 
ATOM     23  O   UNL     1      -2.141  -0.005   4.397  0.00  0.00    -0.153 OA
ATOM     24  O   UNL     1      -0.579   1.934   4.347  0.00  0.00    -0.153 OA
BRANCH  22  25
ATOM     25  C   UNL     1      -3.098   2.368   4.480  0.00  0.00    +0.106 A 
ATOM     26  C   UNL     1      -2.857   3.717   4.664  0.00  0.00    +0.031 A 
ATOM     27  C   UNL     1      -3.881   4.554   5.064  0.00  0.00    +0.041 A 
ATOM     28  C   UNL     1      -5.147   4.040   5.291  0.00  0.00    +0.135 A 
ATOM     29  C   UNL     1      -5.386   2.688   5.112  0.00  0.00    +0.092 A 
ATOM     30  C   UNL     1      -4.361   1.853   4.707  0.00  0.00    +0.043 A 
ATOM     31  F   UNL     1      -6.148   4.857   5.686  0.00  0.00    -0.205 F 
BRANCH  29  32
ATOM     32  C   UNL     1      -6.762   2.127   5.358  0.00  0.00    +0.420 C 
ATOM     33  F   UNL     1      -6.755   0.749   5.112  0.00  0.00    -0.166 F 
ATOM     34  F   UNL     1      -7.131   2.361   6.687  0.00  0.00    -0.166 F 
ATOM     35  F   UNL     1      -7.679   2.748   4.503  0.00  0.00    -0.166 F 
ENDBRANCH  29  32
ENDBRANCH  22  25
ENDBRANCH  20  22
ENDBRANCH  19  20
ENDBRANCH   1  19
TORSDOF 7
