REMARK  Name = ZINC65523923
REMARK  13 active torsions:
REMARK  status: ('A' for Active; 'I' for Inactive)
REMARK    1  A    between atoms: C_1  and  C_2
REMARK    2  A    between atoms: C_2  and  S_3
REMARK    3  A    between atoms: S_3  and  N_6
REMARK    4  A    between atoms: N_6  and  C_7
REMARK    5  A    between atoms: C_7  and  C_8
REMARK    6  A    between atoms: C_8  and  N_9
REMARK    7  A    between atoms: N_12  and  C_13
REMARK    8  A    between atoms: C_13  and  C_14
REMARK    9  A    between atoms: C_14  and  C_15
REMARK   10  A    between atoms: C_14  and  C_16
REMARK   11  A    between atoms: C_14  and  N_17
REMARK   12  A    between atoms: C_19  and  C_24
REMARK   13  A    between atoms: C_21  and  C_23
REMARK                            x       y       z     vdW  Elec       q    Type
REMARK                         _______ _______ _______ _____ _____    ______ ____
ROOT
ATOM      1  N   UNL     1       2.355  -5.092  -0.537  0.00  0.00    -0.298 N 
ATOM      2  C   UNL     1       2.579  -6.420  -0.481  0.00  0.00    +0.300 C 
ATOM      3  O   UNL     1       2.203  -7.060   0.481  0.00  0.00    -0.253 OA
ATOM      4  N   UNL     1       3.222  -7.038  -1.492  0.00  0.00    -0.301 N 
ATOM      5  H   UNL     1       2.655  -4.582  -1.305  0.00  0.00    +0.150 HD
ATOM      6  H   UNL     1       3.522  -6.528  -2.260  0.00  0.00    +0.150 HD
ENDROOT
BRANCH   1   7
ATOM      7  C   UNL     1       1.657  -4.420   0.561  0.00  0.00    +0.122 C 
BRANCH   7   8
ATOM      8  C   UNL     1       1.533  -2.928   0.250  0.00  0.00    +0.124 C 
BRANCH   8   9
ATOM      9  N   UNL     1       0.835  -2.256   1.349  0.00  0.00    -0.193 NA
ATOM     10  H   UNL     1       0.346  -2.778   2.004  0.00  0.00    +0.148 HD
BRANCH   9  11
ATOM     11  S   UNL     1       0.879  -0.605   1.472  0.00  0.00    +0.029 S 
ATOM     12  O   UNL     1       2.259  -0.273   1.388  0.00  0.00    -0.158 OA
ATOM     13  O   UNL     1       0.132  -0.308   2.643  0.00  0.00    -0.158 OA
BRANCH  11  15
ATOM     14  C   UNL     1      -0.019   1.526   0.010  0.00  0.00    +0.029 C 
ATOM     15  C   UNL     1       0.002  -0.004   0.002  0.00  0.00    +0.181 C 
ENDBRANCH  11  15
ENDBRANCH   9  11
ENDBRANCH   8   9
ENDBRANCH   7   8
ENDBRANCH   1   7
BRANCH   4  16
ATOM     16  C   UNL     1       3.466  -8.482  -1.431  0.00  0.00    +0.093 C 
BRANCH  16  17
ATOM     17  C   UNL     1       4.206  -8.927  -2.694  0.00  0.00    -0.055 C 
ATOM     18  C   UNL     1       4.461 -10.435  -2.630  0.00  0.00    -0.008 C 
ATOM     19  C   UNL     1       3.355  -8.606  -3.924  0.00  0.00    -0.008 C 
BRANCH  17  20
ATOM     20  N   UNL     1       5.488  -8.217  -2.786  0.00  0.00    +0.384 N 
ATOM     21  C   UNL     1       6.300  -8.520  -1.601  0.00  0.00    -0.075 C 
ATOM     22  C   UNL     1       7.603  -7.719  -1.653  0.00  0.00    -0.031 C 
ATOM     23  C   UNL     1       8.380  -8.101  -2.917  0.00  0.00    +0.003 C 
ATOM     24  C   UNL     1       7.496  -7.851  -4.142  0.00  0.00    -0.031 C 
ATOM     25  C   UNL     1       6.197  -8.646  -3.998  0.00  0.00    -0.075 C 
ATOM     26  C   UNL     1       8.234  -8.301  -5.404  0.00  0.00    +0.005 C 
ATOM     27  C   UNL     1       7.283  -6.223  -1.682  0.00  0.00    +0.005 C 
ATOM     28  H   UNL     1       5.319  -7.224  -2.831  0.00  0.00    -0.081 HD
ENDBRANCH  17  20
ENDBRANCH  16  17
ENDBRANCH   4  16
TORSDOF 8
