REMARK  Name = ZINC13500115
REMARK  14 active torsions:
REMARK  status: ('A' for Active; 'I' for Inactive)
REMARK    1  A    between atoms: C_1  and  C_2
REMARK    2  A    between atoms: C_2  and  C_3
REMARK    3  A    between atoms: C_3  and  C_4
REMARK    4  A    between atoms: C_4  and  C_6
REMARK    5  A    between atoms: C_4  and  N_74
REMARK    6  A    between atoms: N_10  and  C_11
REMARK    7  A    between atoms: C_11  and  C_12
REMARK    8  A    between atoms: C_11  and  C_13
REMARK    9  A    between atoms: C_11  and  C_14
REMARK   10  A    between atoms: C_14  and  C_15
REMARK   11  A    between atoms: C_16  and  C_17
REMARK   12  A    between atoms: C_16  and  N_74
REMARK   13  A    between atoms: C_23  and  C_29
REMARK   14  A    between atoms: C_30  and  N_74
REMARK                            x       y       z     vdW  Elec       q    Type
REMARK                         _______ _______ _______ _____ _____    ______ ____
ROOT
ATOM      1  N   UNL     1       1.325  -3.374   5.101  0.00  0.00    +0.391 N 
ATOM      2  H   UNL     1       1.642  -4.050   4.396  0.00  0.00    -0.080 HD
ENDROOT
BRANCH   1   3
ATOM      3  C   UNL     1       1.898  -2.049   4.786  0.00  0.00    -0.067 C 
ATOM      4  C   UNL     1       3.409  -2.196   4.598  0.00  0.00    -0.015 C 
ATOM      5  C   UNL     1       4.015  -0.835   4.250  0.00  0.00    -0.002 C 
ATOM      6  C   UNL     1       3.736   0.153   5.384  0.00  0.00    -0.000 C 
ATOM      7  C   UNL     1       2.224   0.301   5.571  0.00  0.00    -0.002 C 
ATOM      8  C   UNL     1       1.619  -1.060   5.920  0.00  0.00    -0.015 C 
ENDBRANCH   1   3
BRANCH   1   9
ATOM      9  C   UNL     1       1.784  -3.819   6.433  0.00  0.00    +0.003 C 
BRANCH   9  10
ATOM     10  C   UNL     1       1.003  -3.125   7.519  0.00  0.00    +0.139 A 
ATOM     11  N   UNL     1      -0.265  -2.793   7.481  0.00  0.00    -0.115 NA
ATOM     12  N   UNL     1      -0.559  -2.220   8.597  0.00  0.00    -0.023 NA
ATOM     13  N   UNL     1       0.487  -2.177   9.345  0.00  0.00    -0.043 NA
ATOM     14  N   UNL     1       1.470  -2.730   8.718  0.00  0.00    -0.225 N 
BRANCH  14  15
ATOM     15  C   UNL     1       2.838  -2.893   9.216  0.00  0.00    +0.061 C 
ATOM     16  C   UNL     1       3.252  -4.361   9.097  0.00  0.00    +0.036 C 
ATOM     17  C   UNL     1       3.789  -2.027   8.388  0.00  0.00    +0.036 C 
BRANCH  15  18
ATOM     18  C   UNL     1       2.902  -2.463  10.683  0.00  0.00    +0.026 C 
ATOM     19  C   UNL     1       4.330  -2.634  11.203  0.00  0.00    +0.006 C 
ENDBRANCH  15  18
ENDBRANCH  14  15
ENDBRANCH   9  10
BRANCH   9  20
ATOM     20  C   UNL     1       1.578  -5.331   6.544  0.00  0.00    -0.008 C 
BRANCH  20  22
ATOM     21  C   UNL     1       2.177  -7.545   5.552  0.00  0.00    +0.004 C 
ATOM     22  C   UNL     1       2.472  -6.043   5.527  0.00  0.00    -0.005 C 
ENDBRANCH  20  22
ENDBRANCH   9  20
ENDBRANCH   1   9
BRANCH   1  23
ATOM     23  C   UNL     1      -0.151  -3.307   5.071  0.00  0.00    -0.036 C 
BRANCH  23  24
ATOM     24  C   UNL     1      -0.607  -3.340   3.635  0.00  0.00    +0.001 A 
ATOM     25  C   UNL     1      -0.927  -4.524   3.056  0.00  0.00    +0.017 A 
ATOM     26  C   UNL     1      -1.367  -4.522   1.659  0.00  0.00    -0.001 A 
ATOM     27  C   UNL     1      -1.710  -5.711   1.008  0.00  0.00    +0.010 A 
ATOM     28  C   UNL     1      -2.117  -5.676  -0.296  0.00  0.00    +0.001 A 
ATOM     29  C   UNL     1      -2.198  -4.469  -0.978  0.00  0.00    +0.005 A 
ATOM     30  C   UNL     1      -1.859  -3.286  -0.358  0.00  0.00    -0.026 A 
ATOM     31  C   UNL     1      -1.442  -3.298   0.969  0.00  0.00    +0.052 A 
ATOM     32  N   UNL     1      -1.102  -2.128   1.616  0.00  0.00    -0.322 N 
ATOM     33  H   UNL     1      -1.155  -1.286   1.139  0.00  0.00    +0.169 HD
ATOM     34  C   UNL     1      -0.700  -2.140   2.899  0.00  0.00    +0.251 A 
ATOM     35  O   UNL     1      -0.408  -1.087   3.439  0.00  0.00    -0.268 OA
ATOM     36  C   UNL     1      -1.945  -1.985  -1.113  0.00  0.00    +0.046 C 
ENDBRANCH  23  24
ENDBRANCH   1  23
TORSDOF 9
