REMARK  Name = ZINC67400775
REMARK  8 active torsions:
REMARK  status: ('A' for Active; 'I' for Inactive)
REMARK    1  A    between atoms: C_1  and  C_2
REMARK    2  A    between atoms: C_2  and  C_4
REMARK    3  A    between atoms: C_2  and  N_15
REMARK    4  A    between atoms: N_6  and  C_7
REMARK    5  A    between atoms: C_12  and  C_13
REMARK    6  A    between atoms: C_18  and  C_21
REMARK    7  A    between atoms: C_21  and  C_23
REMARK    8  A    between atoms: C_21  and  O_30
REMARK                            x       y       z     vdW  Elec       q    Type
REMARK                         _______ _______ _______ _____ _____    ______ ____
ROOT
ATOM      1  N   UNL     1       1.061  -0.715   0.650  0.00  0.00    +0.387 N 
ATOM      2  C   UNL     1       1.056  -2.036   0.012  0.00  0.00    -0.077 C 
ATOM      3  C   UNL     1       2.039  -2.960   0.735  0.00  0.00    -0.012 C 
ATOM      4  C   UNL     1       3.446  -2.360   0.657  0.00  0.00    +0.019 C 
ATOM      5  C   UNL     1       3.423  -0.952   1.259  0.00  0.00    -0.012 C 
ATOM      6  C   UNL     1       2.389  -0.102   0.517  0.00  0.00    -0.077 C 
ATOM      7  H   UNL     1       0.835  -0.815   1.628  0.00  0.00    -0.081 HD
ENDROOT
BRANCH   1   9
ATOM      8  C   UNL     1       0.109   1.541   0.624  0.00  0.00    -0.004 C 
ATOM      9  C   UNL     1       0.060   0.144   0.003  0.00  0.00    +0.016 C 
BRANCH   9  10
ATOM     10  C   UNL     1      -1.312  -0.447   0.201  0.00  0.00    +0.203 C 
ATOM     11  O   UNL     1      -1.541  -1.135   1.172  0.00  0.00    -0.277 OA
ATOM     12  N   UNL     1      -2.284  -0.210  -0.703  0.00  0.00    -0.286 N 
ATOM     13  H   UNL     1      -2.082   0.278  -1.516  0.00  0.00    +0.155 HD
BRANCH  12  14
ATOM     14  C   UNL     1      -3.579  -0.668  -0.468  0.00  0.00    +0.051 A 
ATOM     15  C   UNL     1      -3.986  -0.981   0.822  0.00  0.00    +0.024 A 
ATOM     16  C   UNL     1      -5.269  -1.434   1.052  0.00  0.00    +0.002 A 
ATOM     17  C   UNL     1      -6.161  -1.579   0.002  0.00  0.00    +0.001 A 
ATOM     18  C   UNL     1      -5.775  -1.274  -1.286  0.00  0.00    +0.021 A 
ATOM     19  C   UNL     1      -4.481  -0.808  -1.533  0.00  0.00    +0.073 A 
BRANCH  19  20
ATOM     20  C   UNL     1      -4.076  -0.483  -2.868  0.00  0.00    +0.101 C 
ATOM     21  N   UNL     1      -3.755  -0.225  -3.926  0.00  0.00    -0.191 NA
ENDBRANCH  19  20
ENDBRANCH  12  14
ENDBRANCH   9  10
ENDBRANCH   1   9
BRANCH   4  22
ATOM     22  C   UNL     1       4.420  -3.237   1.446  0.00  0.00    +0.147 C 
BRANCH  22  23
ATOM     23  C   UNL     1       5.804  -2.645   1.369  0.00  0.00    -0.019 A 
ATOM     24  C   UNL     1       6.185  -1.660   2.261  0.00  0.00    +0.007 A 
ATOM     25  C   UNL     1       7.454  -1.117   2.191  0.00  0.00    +0.020 A 
ATOM     26  C   UNL     1       8.343  -1.559   1.228  0.00  0.00    +0.041 A 
ATOM     27  C   UNL     1       7.962  -2.545   0.335  0.00  0.00    +0.020 A 
ATOM     28  C   UNL     1       6.694  -3.091   0.410  0.00  0.00    +0.007 A 
ATOM     29 CL   UNL     1       9.937  -0.877   1.139  0.00  0.00    -0.084 Cl
ENDBRANCH  22  23
BRANCH  22  30
ATOM     30  O   UNL     1       4.005  -3.302   2.811  0.00  0.00    -0.387 OA
ATOM     31  H   UNL     1       3.973  -2.442   3.254  0.00  0.00    +0.210 HD
ENDBRANCH  22  30
ENDBRANCH   4  22
TORSDOF 7
