REMARK  Name = ZINC01102217
REMARK  5 active torsions:
REMARK  status: ('A' for Active; 'I' for Inactive)
REMARK    1  A    between atoms: C_1  and  C_2
REMARK    2  A    between atoms: C_2  and  C_3
REMARK    3  A    between atoms: C_2  and  C_4
REMARK    4  A    between atoms: C_2  and  C_5
REMARK    5  A    between atoms: C_7  and  C_29
REMARK                            x       y       z     vdW  Elec       q    Type
REMARK                         _______ _______ _______ _____ _____    ______ ____
ROOT
ATOM      1  C   UNL     1       0.002  -0.004   0.002  0.00  0.00    +0.048 A 
ATOM      2  C   UNL     1       0.336  -0.674   1.166  0.00  0.00    +0.037 A 
ATOM      3  C   UNL     1       0.373  -2.044   1.238  0.00  0.00    +0.068 A 
ATOM      4  C   UNL     1       0.047  -2.735   0.041  0.00  0.00    +0.041 A 
ATOM      5  C   UNL     1       0.005  -4.183  -0.129  0.00  0.00    +0.063 A 
ATOM      6  C   UNL     1      -0.319  -4.633  -1.393  0.00  0.00    +0.098 A 
ATOM      7  S   UNL     1      -0.599  -3.161  -2.352  0.00  0.00    -0.062 S 
ATOM      8  C   UNL     1      -0.276  -1.958  -1.101  0.00  0.00    +0.112 A 
ATOM      9  N   UNL     1      -0.306  -0.643  -1.120  0.00  0.00    -0.244 NA
ATOM     10  C   UNL     1      -0.400  -6.001  -1.870  0.00  0.00    +0.257 C 
ATOM     11  O   UNL     1       0.385  -6.385  -2.717  0.00  0.00    -0.269 OA
ATOM     12  N   UNL     1      -1.327  -6.855  -1.392  0.00  0.00    -0.275 N 
ATOM     13  C   UNL     1      -2.246  -6.448  -0.451  0.00  0.00    +0.085 A 
ATOM     14  C   UNL     1      -2.009  -6.022   0.850  0.00  0.00    +0.069 A 
ATOM     15  C   UNL     1      -3.208  -5.695   1.631  0.00  0.00    -0.023 A 
ATOM     16  C   UNL     1      -4.387  -5.819   0.992  0.00  0.00    -0.004 A 
ATOM     17  S   UNL     1      -3.959  -6.371  -0.635  0.00  0.00    -0.077 S 
ATOM     18  C   UNL     1      -5.751  -5.544   1.546  0.00  0.00    +0.043 C 
ATOM     19  C   UNL     1      -5.643  -5.458   3.075  0.00  0.00    +0.005 C 
ATOM     20  C   UNL     1      -4.465  -4.548   3.437  0.00  0.00    +0.005 C 
ATOM     21  C   UNL     1      -3.146  -5.238   3.084  0.00  0.00    +0.037 C 
ATOM     22  C   UNL     1      -0.655  -5.891   1.422  0.00  0.00    +0.251 C 
ATOM     23  O   UNL     1      -0.359  -6.585   2.376  0.00  0.00    -0.270 OA
ATOM     24  N   UNL     1       0.251  -5.053   0.947  0.00  0.00    -0.280 N 
ATOM     25  H   UNL     1      -1.347  -7.769  -1.716  0.00  0.00    +0.156 HD
ATOM     26  H   UNL     1       1.128  -5.039   1.361  0.00  0.00    +0.155 HD
ENDROOT
BRANCH   1  28
ATOM     27  C   UNL     1       1.417   2.032  -0.001  0.00  0.00    +0.017 C 
ATOM     28  C   UNL     1      -0.018   1.503   0.010  0.00  0.00    +0.005 C 
ATOM     29  C   UNL     1      -0.758   2.010  -1.229  0.00  0.00    +0.017 C 
ATOM     30  C   UNL     1      -0.735   1.996   1.269  0.00  0.00    +0.017 C 
ENDBRANCH   1  28
BRANCH   3  31
ATOM     31  C   UNL     1       0.736  -2.770   2.508  0.00  0.00    +0.418 C 
ATOM     32  F   UNL     1       1.006  -1.839   3.516  0.00  0.00    -0.166 F 
ATOM     33  F   UNL     1      -0.331  -3.586   2.900  0.00  0.00    -0.166 F 
ATOM     34  F   UNL     1       1.870  -3.559   2.286  0.00  0.00    -0.166 F 
ENDBRANCH   3  31
TORSDOF 2
