REMARK  Name = ZINC02957552
REMARK  3 active torsions:
REMARK  status: ('A' for Active; 'I' for Inactive)
REMARK    1  A    between atoms: C_3  and  C_10
REMARK    2  A    between atoms: C_5  and  N_7
REMARK    3  A    between atoms: C_12  and  C_15
REMARK                            x       y       z     vdW  Elec       q    Type
REMARK                         _______ _______ _______ _____ _____    ______ ____
ROOT
ATOM      1  C   UNL     1      -0.070   5.323   0.033  0.00  0.00    +0.109 A 
ATOM      2  N   UNL     1      -1.106   6.146   0.047  0.00  0.00    -0.239 NA
ATOM      3  C   UNL     1      -0.942   7.456   0.054  0.00  0.00    +0.086 A 
ATOM      4  C   UNL     1       0.328   7.975   0.046  0.00  0.00    +0.075 A 
ATOM      5  S   UNL     1       1.299   6.473   0.035  0.00  0.00    -0.075 S 
ENDROOT
BRANCH   3   6
ATOM      6  C   UNL     1      -2.118   8.357   0.071  0.00  0.00    +0.086 A 
ATOM      7  C   UNL     1      -3.387   7.844   0.079  0.00  0.00    +0.028 A 
ATOM      8  C   UNL     1      -4.513   8.780   0.096  0.00  0.00    +0.020 A 
ATOM      9  C   UNL     1      -5.831   8.305   0.105  0.00  0.00    +0.031 A 
ATOM     10  C   UNL     1      -6.877   9.200   0.121  0.00  0.00    +0.042 A 
ATOM     11  C   UNL     1      -6.630  10.566   0.129  0.00  0.00    +0.023 A 
ATOM     12  C   UNL     1      -5.338  11.047   0.119  0.00  0.00    +0.048 A 
ATOM     13  C   UNL     1      -4.266  10.163   0.103  0.00  0.00    +0.139 A 
ATOM     14  O   UNL     1      -3.000  10.634   0.096  0.00  0.00    -0.422 OA
ATOM     15  C   UNL     1      -1.940   9.812   0.085  0.00  0.00    +0.347 A 
ATOM     16  O   UNL     1      -0.817  10.281   0.083  0.00  0.00    -0.244 OA
ATOM     17 CL   UNL     1      -8.512   8.616   0.133  0.00  0.00    -0.084 Cl
ENDBRANCH   3   6
BRANCH   1  20
ATOM     18  C   UNL     1      -1.222   1.748   0.017  0.00  0.00    +0.003 A 
ATOM     19  C   UNL     1      -1.247   3.128   0.031  0.00  0.00    +0.011 A 
ATOM     20  C   UNL     1      -0.050   3.845   0.024  0.00  0.00    +0.009 A 
ATOM     21  C   UNL     1       1.166   3.160   0.008  0.00  0.00    +0.043 A 
ATOM     22  C   UNL     1       1.178   1.781   0.000  0.00  0.00    +0.127 A 
ATOM     23  C   UNL     1      -0.013   1.076   0.008  0.00  0.00    +0.033 A 
BRANCH  22  24
ATOM     24  N   UNL     1       2.467   1.054  -0.016  0.00  0.00    +0.056 N 
ATOM     25  O   UNL     1       2.479  -0.164  -0.022  0.00  0.00    -0.126 OA
ATOM     26  O   UNL     1       3.516   1.673  -0.022  0.00  0.00    -0.126 OA
ENDBRANCH  22  24
ENDBRANCH   1  20
TORSDOF 3
