REMARK  Name = ZINC26331130
REMARK  3 active torsions:
REMARK  status: ('A' for Active; 'I' for Inactive)
REMARK    1  A    between atoms: C_7  and  C_19
REMARK    2  A    between atoms: N_9  and  C_10
REMARK    3  A    between atoms: C_10  and  C_11
REMARK                            x       y       z     vdW  Elec       q    Type
REMARK                         _______ _______ _______ _____ _____    ______ ____
ROOT
ATOM      1  C   UNL     1       1.167   3.169   0.008  0.00  0.00    +0.001 A 
ATOM      2  C   UNL     1       1.171   1.782   0.000  0.00  0.00    +0.002 A 
ATOM      3  C   UNL     1      -0.013   1.076   0.008  0.00  0.00    +0.026 A 
ATOM      4  C   UNL     1      -1.226   1.756   0.017  0.00  0.00    +0.050 A 
ATOM      5  C   UNL     1      -1.229   3.159   0.031  0.00  0.00    +0.008 A 
ATOM      6  C   UNL     1      -0.025   3.860   0.023  0.00  0.00    +0.010 A 
ATOM      7  C   UNL     1      -2.648   3.561   0.047  0.00  0.00    +0.013 A 
ATOM      8  C   UNL     1      -3.377   2.405   0.047  0.00  0.00    +0.095 A 
ATOM      9  N   UNL     1      -2.542   1.338   0.034  0.00  0.00    -0.342 N 
ENDROOT
BRANCH   7  10
ATOM     10  C   UNL     1      -3.172   4.930   0.059  0.00  0.00    +0.057 C 
ATOM     11  C   UNL     1      -4.182   5.676  -0.727  0.00  0.00    +0.236 C 
ATOM     12  O   UNL     1      -4.923   5.409  -1.651  0.00  0.00    -0.283 OA
ATOM     13  C   UNL     1      -3.909   6.889   0.092  0.00  0.00    +0.245 C 
ATOM     14  O   UNL     1      -4.316   8.034   0.138  0.00  0.00    -0.282 OA
ATOM     15  C   UNL     1      -2.934   6.076   0.821  0.00  0.00    +0.103 C 
ATOM     16 CL   UNL     1      -1.867   6.415   2.148  0.00  0.00    -0.079 Cl
ENDBRANCH   7  10
BRANCH   9  17
ATOM     17  C   UNL     1      -2.974  -0.062   0.029  0.00  0.00    +0.157 C 
BRANCH  17  18
ATOM     18  C   UNL     1      -2.990  -0.587   1.442  0.00  0.00    -0.026 A 
ATOM     19  C   UNL     1      -4.137  -0.476   2.207  0.00  0.00    +0.007 A 
ATOM     20  C   UNL     1      -4.153  -0.957   3.502  0.00  0.00    +0.022 A 
ATOM     21  C   UNL     1      -3.022  -1.550   4.035  0.00  0.00    +0.059 A 
ATOM     22  C   UNL     1      -1.875  -1.661   3.268  0.00  0.00    +0.060 A 
ATOM     23  C   UNL     1      -1.861  -1.183   1.970  0.00  0.00    +0.026 A 
ATOM     24 CL   UNL     1      -0.455  -2.405   3.935  0.00  0.00    -0.082 Cl
ATOM     25 CL   UNL     1      -3.043  -2.155   5.662  0.00  0.00    -0.082 Cl
ENDBRANCH  17  18
ENDBRANCH   9  17
TORSDOF 3
