REMARK  Name = ZINC32946626
REMARK  9 active torsions:
REMARK  status: ('A' for Active; 'I' for Inactive)
REMARK    1  A    between atoms: C_1  and  C_2
REMARK    2  A    between atoms: C_2  and  C_4
REMARK    3  A    between atoms: C_2  and  N_14
REMARK    4  A    between atoms: C_15  and  C_17
REMARK    5  A    between atoms: C_17  and  S_18
REMARK    6  A    between atoms: S_18  and  C_19
REMARK    7  A    between atoms: C_23  and  S_29
REMARK    8  A    between atoms: N_27  and  C_28
REMARK    9  A    between atoms: S_29  and  N_32
REMARK                            x       y       z     vdW  Elec       q    Type
REMARK                         _______ _______ _______ _____ _____    ______ ____
ROOT
ATOM      1  C   UNL     1      -0.637  -2.665  -0.006  0.00  0.00    +0.173 C 
ENDROOT
BRANCH   1   3
ATOM      2  N   UNL     1      -1.340  -5.037  -0.011  0.00  0.00    -0.312 N 
ATOM      3  C   UNL     1      -1.696  -3.737  -0.001  0.00  0.00    +0.224 C 
ATOM      4  O   UNL     1      -2.869  -3.429   0.013  0.00  0.00    -0.275 OA
ATOM      5  H   UNL     1      -0.276  -5.315  -0.024  0.00  0.00    +0.149 HD
BRANCH   2   7
ATOM      6  C   UNL     1      -2.832  -6.345  -1.440  0.00  0.00    +0.028 C 
ATOM      7  C   UNL     1      -2.370  -6.078  -0.006  0.00  0.00    +0.076 C 
BRANCH   7   8
ATOM      8  C   UNL     1      -1.792  -7.363   0.591  0.00  0.00    -0.010 C 
ATOM      9  C   UNL     1      -1.330  -7.097   2.024  0.00  0.00    +0.012 C 
ATOM     10  C   UNL     1      -0.753  -8.382   2.621  0.00  0.00    -0.010 C 
ATOM     11  C   UNL     1      -1.828  -9.470   2.626  0.00  0.00    +0.007 C 
ATOM     12  C   UNL     1      -2.291  -9.736   1.192  0.00  0.00    -0.010 C 
ATOM     13  C   UNL     1      -2.868  -8.451   0.596  0.00  0.00    +0.012 C 
ATOM     14  C   UNL     1      -1.100 -10.200   0.350  0.00  0.00    +0.007 C 
ATOM     15  C   UNL     1      -0.025  -9.112   0.345  0.00  0.00    -0.010 C 
ATOM     16  C   UNL     1       0.438  -8.845   1.779  0.00  0.00    +0.007 C 
ATOM     17  C   UNL     1      -0.602  -7.827  -0.252  0.00  0.00    +0.012 C 
ENDBRANCH   7   8
ENDBRANCH   2   7
ENDBRANCH   1   3
BRANCH   1  18
ATOM     18  S   UNL     1      -1.426  -1.036   0.011  0.00  0.00    -0.078 S 
BRANCH  18  19
ATOM     19  C   UNL     1       0.002  -0.004   0.002  0.00  0.00    +0.170 A 
ATOM     20  N   UNL     1       1.241  -0.432  -0.012  0.00  0.00    -0.222 NA
ATOM     21  C   UNL     1       2.090   0.629  -0.015  0.00  0.00    +0.092 A 
ATOM     22  C   UNL     1       3.482   0.743  -0.027  0.00  0.00    +0.058 A 
ATOM     23  C   UNL     1       4.066   1.990  -0.027  0.00  0.00    +0.107 A 
ATOM     24  C   UNL     1       3.282   3.134  -0.013  0.00  0.00    +0.030 A 
ATOM     25  C   UNL     1       1.906   3.038  -0.000  0.00  0.00    +0.030 A 
ATOM     26  C   UNL     1       1.301   1.791  -0.001  0.00  0.00    +0.069 A 
ATOM     27  N   UNL     1      -0.017   1.362   0.009  0.00  0.00    -0.322 N 
ATOM     28  C   UNL     1      -1.208   2.215   0.020  0.00  0.00    +0.151 C 
BRANCH  23  29
ATOM     29  S   UNL     1       5.822   2.133  -0.043  0.00  0.00    +0.056 S 
ATOM     30  O   UNL     1       6.323   0.928  -0.605  0.00  0.00    -0.153 OA
ATOM     31  O   UNL     1       6.120   3.410  -0.590  0.00  0.00    -0.153 OA
BRANCH  29  32
ATOM     32  N   UNL     1       6.325   2.165   1.535  0.00  0.00    -0.204 NA
ATOM     33  H   UNL     1       7.421   2.254   1.568  0.00  0.00    +0.144 HD
ATOM     34  H   UNL     1       6.018   1.235   2.036  0.00  0.00    +0.144 HD
ENDBRANCH  29  32
ENDBRANCH  23  29
ENDBRANCH  18  19
ENDBRANCH   1  18
TORSDOF 7
