REMARK  Name = ZINC44402915
REMARK  7 active torsions:
REMARK  status: ('A' for Active; 'I' for Inactive)
REMARK    1  A    between atoms: C_1  and  C_2
REMARK    2  A    between atoms: C_2  and  C_3
REMARK    3  A    between atoms: C_3  and  C_5
REMARK    4  A    between atoms: C_3  and  N_22
REMARK    5  A    between atoms: C_5  and  C_6
REMARK    6  A    between atoms: C_7  and  O_20
REMARK    7  A    between atoms: O_20  and  C_21
REMARK                            x       y       z     vdW  Elec       q    Type
REMARK                         _______ _______ _______ _____ _____    ______ ____
ROOT
ATOM      1  C   UNL     1       1.277  -2.528   2.581  0.00  0.00    +0.038 A 
ATOM      2  C   UNL     1       2.630  -2.829   2.624  0.00  0.00    +0.127 A 
ATOM      3  C   UNL     1       3.202  -3.281   3.804  0.00  0.00    +0.050 A 
ATOM      4  C   UNL     1       2.424  -3.432   4.937  0.00  0.00    +0.053 A 
ATOM      5  C   UNL     1       1.071  -3.133   4.897  0.00  0.00    +0.170 A 
ATOM      6  C   UNL     1       0.497  -2.673   3.718  0.00  0.00    +0.176 A 
ATOM      7  O   UNL     1      -0.827  -2.362   3.663  0.00  0.00    -0.421 OA
ATOM      8  C   UNL     1      -1.653  -2.873   4.715  0.00  0.00    +0.509 C 
ATOM      9  C   UNL     1      -0.944  -2.613   6.051  0.00  0.00    +0.509 C 
ATOM     10  O   UNL     1       0.319  -3.292   6.022  0.00  0.00    -0.421 OA
ATOM     11  F   UNL     1      -0.747  -1.238   6.221  0.00  0.00    -0.155 F 
ATOM     12  F   UNL     1      -1.720  -3.113   7.102  0.00  0.00    -0.155 F 
ATOM     13  F   UNL     1      -2.890  -2.220   4.703  0.00  0.00    -0.155 F 
ATOM     14  F   UNL     1      -1.842  -4.248   4.541  0.00  0.00    -0.155 F 
ENDROOT
BRANCH   2  15
ATOM     15  O   UNL     1       3.395  -2.682   1.510  0.00  0.00    -0.495 OA
ATOM     16  C   UNL     1       4.781  -3.011   1.627  0.00  0.00    +0.277 C 
ENDBRANCH   2  15
BRANCH   1  17
ATOM     17  C   UNL     1       0.655  -2.037   1.299  0.00  0.00    +0.026 C 
BRANCH  17  18
ATOM     18  C   UNL     1       0.742  -0.511   1.242  0.00  0.00    -0.071 C 
BRANCH  18  19
ATOM     19  N   UNL     1       2.151  -0.103   1.171  0.00  0.00    +0.380 N 
ATOM     20  H   UNL     1       2.209   0.904   1.134  0.00  0.00    -0.090 HD
ATOM     21  H   UNL     1       2.639  -0.437   1.989  0.00  0.00    -0.090 HD
ATOM     22  H   UNL     1       2.574  -0.495   0.344  0.00  0.00    -0.090 HD
ENDBRANCH  18  19
BRANCH  18  24
ATOM     23  C   UNL     1      -0.019   1.526   0.010  0.00  0.00    +0.002 C 
ATOM     24  C   UNL     1       0.002  -0.004   0.002  0.00  0.00    -0.019 C 
ENDBRANCH  18  24
ENDBRANCH  17  18
ENDBRANCH   1  17
TORSDOF 5
