REMARK  Name = ZINC38337664
REMARK  9 active torsions:
REMARK  status: ('A' for Active; 'I' for Inactive)
REMARK    1  A    between atoms: C_1  and  C_2
REMARK    2  A    between atoms: C_12  and  C_19
REMARK    3  A    between atoms: C_16  and  C_17
REMARK    4  A    between atoms: C_16  and  C_18
REMARK    5  A    between atoms: C_19  and  C_20
REMARK    6  A    between atoms: C_19  and  C_21
REMARK    7  A    between atoms: C_22  and  C_24
REMARK    8  A    between atoms: C_24  and  C_25
REMARK    9  A    between atoms: C_24  and  C_26
REMARK                            x       y       z     vdW  Elec       q    Type
REMARK                         _______ _______ _______ _____ _____    ______ ____
ROOT
ATOM      1  C   UNL     1       0.957  -1.511  -1.352  0.00  0.00    +0.018 C 
ATOM      2  C   UNL     1       0.769  -1.548   0.166  0.00  0.00    +0.079 C 
ATOM      3  C   UNL     1       0.780  -2.983   0.653  0.00  0.00    -0.017 A 
ATOM      4  C   UNL     1       0.107  -3.951  -0.066  0.00  0.00    +0.006 A 
ATOM      5  C   UNL     1       0.120  -5.266   0.362  0.00  0.00    +0.000 A 
ATOM      6  C   UNL     1       0.808  -5.616   1.510  0.00  0.00    +0.002 A 
ATOM      7  C   UNL     1       1.480  -4.652   2.236  0.00  0.00    +0.025 A 
ATOM      8  C   UNL     1       1.463  -3.331   1.811  0.00  0.00    +0.057 A 
ATOM      9  N   UNL     1       2.125  -2.346   2.574  0.00  0.00    -0.198 N 
ATOM     10  N   UNL     1       1.774  -1.058   2.318  0.00  0.00    -0.161 NA
ATOM     11  C   UNL     1       1.925  -0.828   0.849  0.00  0.00    +0.193 C 
ATOM     12  O   UNL     1       1.883   0.597   0.750  0.00  0.00    -0.439 OA
ATOM     13  C   UNL     1       2.661   1.055   1.768  0.00  0.00    +0.331 C 
ATOM     14  O   UNL     1       3.251   2.109   1.800  0.00  0.00    -0.249 OA
ATOM     15  C   UNL     1       2.652  -0.011   2.861  0.00  0.00    +0.134 C 
ATOM     16  C   UNL     1       2.074   0.558   4.158  0.00  0.00    +0.041 C 
ATOM     17  C   UNL     1       4.062  -0.558   3.094  0.00  0.00    +0.041 C 
ATOM     18  C   UNL     1       3.051  -2.663   3.501  0.00  0.00    +0.236 C 
ATOM     19  O   UNL     1       3.879  -3.517   3.263  0.00  0.00    -0.274 OA
ENDROOT
BRANCH  11  20
ATOM     20  C   UNL     1       3.264  -1.379   0.354  0.00  0.00    +0.044 C 
ATOM     21  C   UNL     1       3.097  -2.847  -0.042  0.00  0.00    +0.013 C 
ATOM     22  C   UNL     1       3.730  -0.573  -0.860  0.00  0.00    +0.013 C 
ENDBRANCH  11  20
BRANCH  18  23
ATOM     23  C   UNL     1       3.058  -1.957   4.832  0.00  0.00    +0.071 C 
ATOM     24  C   UNL     1       1.856  -2.417   5.660  0.00  0.00    +0.017 C 
ATOM     25  C   UNL     1       4.350  -2.290   5.580  0.00  0.00    +0.017 C 
ENDBRANCH  18  23
TORSDOF 2
