REMARK  Name = ZINC12562982
REMARK  8 active torsions:
REMARK  status: ('A' for Active; 'I' for Inactive)
REMARK    1  A    between atoms: C_1  and  C_2
REMARK    2  A    between atoms: C_2  and  N_3
REMARK    3  A    between atoms: N_3  and  C_4
REMARK    4  A    between atoms: N_3  and  C_6
REMARK    5  A    between atoms: C_4  and  C_5
REMARK    6  A    between atoms: C_11  and  C_29
REMARK    7  A    between atoms: N_13  and  C_14
REMARK    8  A    between atoms: C_17  and  C_20
REMARK                            x       y       z     vdW  Elec       q    Type
REMARK                         _______ _______ _______ _____ _____    ______ ____
ROOT
ATOM      1  C   UNL     1       2.611  -0.763   0.516  0.00  0.00    +0.033 A 
ATOM      2  C   UNL     1       3.398   0.261  -0.015  0.00  0.00    +0.024 A 
ATOM      3  C   UNL     1       4.703   0.392   0.357  0.00  0.00    +0.013 A 
ATOM      4  C   UNL     1       5.265  -0.512   1.272  0.00  0.00    +0.018 A 
ATOM      5  C   UNL     1       6.629  -0.407   1.637  0.00  0.00    +0.030 A 
ATOM      6  C   UNL     1       7.190  -1.435   2.384  0.00  0.00    +0.097 A 
ATOM      7  C   UNL     1       6.323  -2.583   2.715  0.00  0.00    +0.212 A 
ATOM      8  N   UNL     1       6.831  -3.773   2.956  0.00  0.00    -0.325 N 
ATOM      9  O   UNL     1       4.983  -2.367   2.763  0.00  0.00    -0.438 OA
ATOM     10  C   UNL     1       4.464  -1.528   1.833  0.00  0.00    +0.139 A 
ATOM     11  C   UNL     1       3.142  -1.649   1.444  0.00  0.00    +0.070 A 
ATOM     12  H   UNL     1       6.262  -4.486   3.286  0.00  0.00    +0.169 HD
ENDROOT
BRANCH   8  13
ATOM     13  C   UNL     1       8.160  -4.005   2.740  0.00  0.00    +0.042 A 
ATOM     14  C   UNL     1       8.932  -4.622   3.729  0.00  0.00    +0.026 A 
ATOM     15  C   UNL     1      10.271  -4.855   3.510  0.00  0.00    +0.010 A 
ATOM     16  C   UNL     1      10.857  -4.476   2.302  0.00  0.00    -0.018 A 
ATOM     17  C   UNL     1      10.088  -3.860   1.314  0.00  0.00    +0.010 A 
ATOM     18  C   UNL     1       8.748  -3.631   1.528  0.00  0.00    +0.026 A 
BRANCH  16  19
ATOM     19  C   UNL     1      12.299  -4.728   2.068  0.00  0.00    -0.018 A 
ATOM     20  C   UNL     1      13.070  -5.348   3.051  0.00  0.00    +0.008 A 
ATOM     21  C   UNL     1      14.412  -5.581   2.827  0.00  0.00    +0.001 A 
ATOM     22  C   UNL     1      14.992  -5.199   1.631  0.00  0.00    +0.000 A 
ATOM     23  C   UNL     1      14.233  -4.583   0.652  0.00  0.00    +0.001 A 
ATOM     24  C   UNL     1      12.889  -4.351   0.862  0.00  0.00    +0.008 A 
ENDBRANCH  16  19
ENDBRANCH   8  13
BRANCH   6  25
ATOM     25  C   UNL     1       8.592  -1.383   2.827  0.00  0.00    +0.247 C 
ATOM     26  O   UNL     1       8.921  -1.918   3.869  0.00  0.00    -0.270 OA
ATOM     27  N   UNL     1       9.511  -0.741   2.079  0.00  0.00    -0.325 N 
ATOM     28  H   UNL     1       9.261  -0.362   1.222  0.00  0.00    +0.145 HD
ATOM     29  H   UNL     1      10.424  -0.659   2.397  0.00  0.00    +0.145 HD
ENDBRANCH   6  25
BRANCH   1  30
ATOM     30  N   UNL     1       1.285  -0.892   0.118  0.00  0.00    -0.330 N 
BRANCH  30  32
ATOM     31  C   UNL     1       0.116   1.242  -0.131  0.00  0.00    +0.024 C 
ATOM     32  C   UNL     1       0.720   0.040  -0.861  0.00  0.00    +0.102 C 
ENDBRANCH  30  32
BRANCH  30  33
ATOM     33  C   UNL     1       0.454  -1.961   0.677  0.00  0.00    +0.102 C 
ATOM     34  C   UNL     1       0.571  -3.210  -0.199  0.00  0.00    +0.024 C 
ENDBRANCH  30  33
ENDBRANCH   1  30
TORSDOF 6
