REMARK  Name = ZINC05227138
REMARK  4 active torsions:
REMARK  status: ('A' for Active; 'I' for Inactive)
REMARK    1  A    between atoms: C_1  and  O_2
REMARK    2  A    between atoms: O_2  and  C_3
REMARK    3  A    between atoms: C_3  and  C_5
REMARK    4  A    between atoms: C_7  and  O_31
REMARK                            x       y       z     vdW  Elec       q    Type
REMARK                         _______ _______ _______ _____ _____    ______ ____
ROOT
ATOM      1  C   UNL     1       1.410   2.067  -0.000  0.00  0.00    +0.129 C 
ATOM      2  C   UNL     1       2.173   1.553   1.213  0.00  0.00    +0.129 C 
ATOM      3  C   UNL     1       2.204   0.023   1.186  0.00  0.00    +0.032 C 
ATOM      4  C   UNL     1       0.772  -0.513   1.222  0.00  0.00    +0.004 C 
ATOM      5  C   UNL     1       0.002  -0.004   0.002  0.00  0.00    -0.024 C 
ATOM      6  C   UNL     1      -0.019   1.526   0.010  0.00  0.00    +0.005 C 
ATOM      7  C   UNL     1      -0.753   2.020   1.260  0.00  0.00    -0.005 C 
ATOM      8  C   UNL     1      -2.167   1.437   1.268  0.00  0.00    -0.020 C 
ATOM      9  C   UNL     1      -2.898   1.882   2.510  0.00  0.00    +0.006 A 
ATOM     10  C   UNL     1      -3.651   1.044   3.259  0.00  0.00    -0.022 A 
ATOM     11  C   UNL     1      -3.844  -0.416   2.937  0.00  0.00    +0.019 C 
ATOM     12  C   UNL     1      -3.398  -0.649   1.486  0.00  0.00    -0.073 C 
ATOM     13  C   UNL     1      -1.437  -0.529   0.055  0.00  0.00    -0.074 C 
ATOM     14  C   UNL     1      -4.186   1.818   4.357  0.00  0.00    +0.003 A 
ATOM     15  C   UNL     1      -5.016   1.492   5.435  0.00  0.00    +0.010 A 
ATOM     16  C   UNL     1      -5.329   2.505   6.307  0.00  0.00    +0.001 A 
ATOM     17  C   UNL     1      -4.852   3.795   6.139  0.00  0.00    +0.002 A 
ATOM     18  C   UNL     1      -4.030   4.146   5.082  0.00  0.00    +0.026 A 
ATOM     19  C   UNL     1      -3.695   3.138   4.181  0.00  0.00    +0.047 A 
ATOM     20  N   UNL     1      -2.921   3.137   3.055  0.00  0.00    -0.359 N 
ATOM     21  H   UNL     1      -2.457   3.910   2.696  0.00  0.00    +0.166 HD
ATOM     22  N   UNL     1      -2.059  -0.038   1.304  0.00  0.00    +0.386 N 
ATOM     23  H   UNL     1      -1.464  -0.307   2.097  0.00  0.00    -0.081 HD
ENDROOT
BRANCH   1  24
ATOM     24  C   UNL     1       1.376   3.573   0.027  0.00  0.00    +0.313 C 
ATOM     25  O   UNL     1       0.316   4.153   0.052  0.00  0.00    -0.250 OA
BRANCH  24  27
ATOM     26  C   UNL     1       2.413   5.718   0.050  0.00  0.00    +0.280 C 
ATOM     27  O   UNL     1       2.522   4.271   0.023  0.00  0.00    -0.468 OA
ENDBRANCH  24  27
ENDBRANCH   1  24
BRANCH   2  28
ATOM     28  O   UNL     1       1.520   1.995   2.405  0.00  0.00    -0.391 OA
ATOM     29  H   UNL     1       1.950   1.704   3.221  0.00  0.00    +0.210 HD
ENDBRANCH   2  28
TORSDOF 3
