REMARK  Name = ZINC64697338
REMARK  12 active torsions:
REMARK  status: ('A' for Active; 'I' for Inactive)
REMARK    1  A    between atoms: C_1  and  C_2
REMARK    2  A    between atoms: C_2  and  N_3
REMARK    3  A    between atoms: C_9  and  C_11
REMARK    4  A    between atoms: C_11  and  C_13
REMARK    5  A    between atoms: C_11  and  N_14
REMARK    6  A    between atoms: N_14  and  C_15
REMARK    7  A    between atoms: C_15  and  C_16
REMARK    8  A    between atoms: C_16  and  C_18
REMARK    9  A    between atoms: C_16  and  C_27
REMARK   10  A    between atoms: C_21  and  N_24
REMARK   11  A    between atoms: N_24  and  C_25
REMARK   12  A    between atoms: N_24  and  C_26
REMARK                            x       y       z     vdW  Elec       q    Type
REMARK                         _______ _______ _______ _____ _____    ______ ____
ROOT
ATOM      1  C   UNL     1       5.463  -7.019  -4.072  0.00  0.00    +0.030 C 
ENDROOT
BRANCH   1   2
ATOM      2  C   UNL     1       6.117  -6.520  -5.335  0.00  0.00    -0.036 C 
ATOM      3  C   UNL     1       7.341  -5.957  -5.449  0.00  0.00    -0.001 A 
ATOM      4  C   UNL     1       8.390  -5.650  -4.469  0.00  0.00    +0.010 A 
ATOM      5  C   UNL     1       9.536  -5.070  -4.894  0.00  0.00    +0.001 A 
ATOM      6  C   UNL     1       9.745  -4.755  -6.244  0.00  0.00    +0.002 A 
ATOM      7  C   UNL     1       8.829  -5.005  -7.202  0.00  0.00    +0.026 A 
ATOM      8  C   UNL     1       7.588  -5.614  -6.868  0.00  0.00    +0.043 A 
ATOM      9  N   UNL     1       6.556  -5.952  -7.603  0.00  0.00    -0.380 N 
ATOM     10  C   UNL     1       5.539  -6.554  -6.732  0.00  0.00    +0.145 C 
ATOM     11  H   UNL     1       6.478  -5.829  -8.562  0.00  0.00    +0.160 HD
ENDBRANCH   1   2
BRANCH   1  12
ATOM     12  C   UNL     1       5.174  -8.491  -4.204  0.00  0.00    -0.042 A 
ATOM     13  C   UNL     1       4.346  -8.944  -5.216  0.00  0.00    +0.006 A 
ATOM     14  C   UNL     1       4.079 -10.293  -5.340  0.00  0.00    +0.023 A 
ATOM     15  C   UNL     1       4.641 -11.196  -4.446  0.00  0.00    +0.029 A 
ATOM     16  C   UNL     1       5.472 -10.738  -3.431  0.00  0.00    +0.023 A 
ATOM     17  C   UNL     1       5.740  -9.388  -3.317  0.00  0.00    +0.006 A 
BRANCH  15  18
ATOM     18  N   UNL     1       4.372 -12.561  -4.569  0.00  0.00    -0.336 N 
ATOM     19  C   UNL     1       3.401 -13.030  -5.559  0.00  0.00    +0.129 C 
ATOM     20  C   UNL     1       5.062 -13.524  -3.706  0.00  0.00    +0.129 C 
ENDBRANCH  15  18
ENDBRANCH   1  12
BRANCH   1  21
ATOM     21  C   UNL     1       4.155  -6.260  -3.841  0.00  0.00    -0.069 C 
BRANCH  21  22
ATOM     22  N   UNL     1       4.448  -4.842  -3.593  0.00  0.00    +0.387 N 
ATOM     23  H   UNL     1       4.926  -4.453  -4.392  0.00  0.00    -0.085 HD
ATOM     24  H   UNL     1       5.035  -4.758  -2.776  0.00  0.00    -0.085 HD
BRANCH  22  25
ATOM     25  C   UNL     1       3.192  -4.114  -3.371  0.00  0.00    +0.013 C 
ATOM     26  C   UNL     1       2.528  -4.620  -2.089  0.00  0.00    -0.004 C 
BRANCH  25  33
ATOM     27  N   UNL     1       0.587   0.081  -4.142  0.00  0.00    -0.300 NA
ATOM     28  C   UNL     1       0.422  -1.340  -4.474  0.00  0.00    +0.103 C 
ATOM     29  C   UNL     1       1.074  -2.195  -3.382  0.00  0.00    +0.123 C 
ATOM     30  N   UNL     1       2.467  -1.754  -3.213  0.00  0.00    -0.300 N 
ATOM     31  C   UNL     1       2.723  -0.320  -3.013  0.00  0.00    +0.123 C 
ATOM     32  C   UNL     1       2.006   0.462  -4.119  0.00  0.00    +0.103 C 
ATOM     33  C   UNL     1       3.482  -2.641  -3.239  0.00  0.00    +0.201 C 
ATOM     34  O   UNL     1       4.628  -2.253  -3.157  0.00  0.00    -0.277 OA
BRANCH  27  36
ATOM     35  C   UNL     1      -1.668   0.677  -4.887  0.00  0.00    +0.020 C 
ATOM     36  C   UNL     1      -0.171   0.930  -5.071  0.00  0.00    +0.081 C 
ENDBRANCH  27  36
ENDBRANCH  25  33
ENDBRANCH  22  25
ENDBRANCH  21  22
ENDBRANCH   1  21
TORSDOF 8
