REMARK  Name = ZINC16576223
REMARK  4 active torsions:
REMARK  status: ('A' for Active; 'I' for Inactive)
REMARK    1  A    between atoms: C_1  and  C_2
REMARK    2  A    between atoms: C_2  and  C_3
REMARK    3  A    between atoms: C_2  and  C_6
REMARK    4  A    between atoms: C_2  and  O_9
REMARK                            x       y       z     vdW  Elec       q    Type
REMARK                         _______ _______ _______ _____ _____    ______ ____
ROOT
ATOM      1  C   UNL     1      -1.433  -0.534   0.013  0.00  0.00    +0.042 C 
ATOM      2  C   UNL     1       0.002  -0.004   0.002  0.00  0.00    +0.069 C 
ENDROOT
BRANCH   2   3
ATOM      3  C   UNL     1       0.718  -0.497  -1.257  0.00  0.00    +0.021 C 
ATOM      4  C   UNL     1       1.431   0.546  -2.119  0.00  0.00    +0.007 C 
ATOM      5  C   UNL     1       0.129  -0.092  -2.609  0.00  0.00    +0.007 C 
ENDBRANCH   2   3
BRANCH   2   6
ATOM      6  C   UNL     1       0.742  -0.511   1.242  0.00  0.00    +0.021 C 
ATOM      7  C   UNL     1       0.092  -1.645   2.038  0.00  0.00    +0.007 C 
ATOM      8  C   UNL     1       0.113  -0.223   2.606  0.00  0.00    +0.007 C 
ENDBRANCH   2   6
BRANCH   2   9
ATOM      9  O   UNL     1      -0.017   1.425   0.010  0.00  0.00    -0.388 OA
ATOM     10  H   UNL     1       0.861   1.830   0.004  0.00  0.00    +0.210 HD
ENDBRANCH   2   9
TORSDOF 3
