REMARK  Name = ZINC13020303
REMARK  11 active torsions:
REMARK  status: ('A' for Active; 'I' for Inactive)
REMARK    1  A    between atoms: C_1  and  C_2
REMARK    2  A    between atoms: C_2  and  C_4
REMARK    3  A    between atoms: C_2  and  N_6
REMARK    4  A    between atoms: C_7  and  C_28
REMARK    5  A    between atoms: C_10  and  S_11
REMARK    6  A    between atoms: S_11  and  C_12
REMARK    7  A    between atoms: C_12  and  C_14
REMARK    8  A    between atoms: C_12  and  C_15
REMARK    9  A    between atoms: N_17  and  C_18
REMARK   10  A    between atoms: C_21  and  S_24
REMARK   11  A    between atoms: S_24  and  C_25
REMARK                            x       y       z     vdW  Elec       q    Type
REMARK                         _______ _______ _______ _____ _____    ______ ____
ROOT
ATOM      1  S   UNL     1      -1.411  -1.152  -0.388  0.00  0.00    -0.073 S 
ENDROOT
BRANCH   1   6
ATOM      2  N   UNL     1      -0.079   1.307  -0.487  0.00  0.00    -0.288 N 
ATOM      3  C   UNL     1       1.229   1.731  -0.400  0.00  0.00    +0.172 A 
ATOM      4  N   UNL     1       1.971   0.659  -0.229  0.00  0.00    -0.128 NA
ATOM      5  N   UNL     1       1.227  -0.389  -0.204  0.00  0.00    -0.122 NA
ATOM      6  C   UNL     1      -0.033  -0.053  -0.356  0.00  0.00    +0.193 A 
BRANCH   3   7
ATOM      7  C   UNL     1       1.706   3.121  -0.484  0.00  0.00    +0.056 A 
ATOM      8  C   UNL     1       2.926   3.639  -0.131  0.00  0.00    +0.019 A 
ATOM      9  C   UNL     1       3.147   4.987  -0.306  0.00  0.00    +0.008 A 
ATOM     10  C   UNL     1       2.151   5.762  -0.809  0.00  0.00    +0.046 A 
ATOM     11  S   UNL     1       0.844   4.573  -1.064  0.00  0.00    -0.094 S 
ENDBRANCH   3   7
BRANCH   2  13
ATOM     12  C   UNL     1      -1.972   1.723  -1.977  0.00  0.00    +0.043 C 
ATOM     13  C   UNL     1      -1.268   2.139  -0.684  0.00  0.00    +0.201 C 
BRANCH  13  14
ATOM     14  C   UNL     1      -2.207   1.956   0.480  0.00  0.00    +0.378 C 
ATOM     15  O   UNL     1      -3.325   1.536   0.295  0.00  0.00    -0.244 OA
ATOM     16  O   UNL     1      -1.802   2.259   1.724  0.00  0.00    -0.244 OA
ENDBRANCH  13  14
ENDBRANCH   2  13
ENDBRANCH   1   6
BRANCH   1  17
ATOM     17  C   UNL     1      -0.557  -2.732  -0.159  0.00  0.00    +0.137 C 
ATOM     18  C   UNL     1       0.343  -3.005  -1.365  0.00  0.00    +0.029 C 
BRANCH  17  19
ATOM     19  C   UNL     1      -1.573  -3.837  -0.030  0.00  0.00    +0.230 C 
ATOM     20  O   UNL     1      -2.677  -3.707  -0.516  0.00  0.00    -0.274 OA
ATOM     21  N   UNL     1      -1.256  -4.971   0.627  0.00  0.00    -0.285 N 
ATOM     22  H   UNL     1      -0.352  -5.108   0.950  0.00  0.00    +0.155 HD
BRANCH  21  23
ATOM     23  C   UNL     1      -2.233  -5.952   0.843  0.00  0.00    +0.033 A 
ATOM     24  C   UNL     1      -3.555  -5.582   1.051  0.00  0.00    +0.024 A 
ATOM     25  C   UNL     1      -4.519  -6.548   1.258  0.00  0.00    +0.017 A 
ATOM     26  C   UNL     1      -4.163  -7.892   1.270  0.00  0.00    +0.013 A 
ATOM     27  C   UNL     1      -2.840  -8.262   1.068  0.00  0.00    +0.017 A 
ATOM     28  C   UNL     1      -1.878  -7.295   0.855  0.00  0.00    +0.024 A 
BRANCH  26  29
ATOM     29  S   UNL     1      -5.392  -9.126   1.542  0.00  0.00    -0.056 S 
BRANCH  29  30
ATOM     30  C   UNL     1      -6.926  -8.180   1.748  0.00  0.00    +0.404 C 
ATOM     31  F   UNL     1      -6.797  -7.315   2.841  0.00  0.00    -0.197 F 
ATOM     32  F   UNL     1      -7.174  -7.435   0.591  0.00  0.00    -0.197 F 
ENDBRANCH  29  30
ENDBRANCH  26  29
ENDBRANCH  21  23
ENDBRANCH  17  19
ENDBRANCH   1  17
TORSDOF 9
