REMARK  Name = ZINC51146126
REMARK  6 active torsions:
REMARK  status: ('A' for Active; 'I' for Inactive)
REMARK    1  A    between atoms: C_1  and  C_2
REMARK    2  A    between atoms: C_2  and  C_3
REMARK    3  A    between atoms: N_6  and  C_9
REMARK    4  A    between atoms: C_9  and  C_10
REMARK    5  A    between atoms: C_19  and  N_20
REMARK    6  A    between atoms: N_20  and  N_21
REMARK                            x       y       z     vdW  Elec       q    Type
REMARK                         _______ _______ _______ _____ _____    ______ ____
ROOT
ATOM      1  C   UNL     1      -4.681  -4.296   1.395  0.00  0.00    -0.022 A 
ATOM      2  C   UNL     1      -4.926  -5.007   0.259  0.00  0.00    +0.015 A 
ATOM      3  C   UNL     1      -4.824  -6.412   0.315  0.00  0.00    +0.001 A 
ATOM      4  C   UNL     1      -5.063  -7.205  -0.818  0.00  0.00    +0.010 A 
ATOM      5  C   UNL     1      -4.955  -8.560  -0.727  0.00  0.00    +0.001 A 
ATOM      6  C   UNL     1      -4.610  -9.170   0.477  0.00  0.00    +0.002 A 
ATOM      7  C   UNL     1      -4.372  -8.430   1.595  0.00  0.00    +0.028 A 
ATOM      8  C   UNL     1      -4.473  -7.030   1.540  0.00  0.00    +0.073 A 
ATOM      9  N   UNL     1      -4.244  -6.279   2.623  0.00  0.00    -0.231 NA
ATOM     10  C   UNL     1      -4.332  -4.966   2.576  0.00  0.00    +0.134 A 
ENDROOT
BRANCH  10  11
ATOM     11  N   UNL     1      -4.080  -4.229   3.723  0.00  0.00    -0.267 N 
ATOM     12  H   UNL     1      -4.145  -3.261   3.702  0.00  0.00    +0.167 HD
BRANCH  11  13
ATOM     13  N   UNL     1      -3.739  -4.865   4.883  0.00  0.00    -0.255 NA
ATOM     14  H   UNL     1      -3.586  -4.202   5.628  0.00  0.00    +0.140 HD
ATOM     15  H   UNL     1      -4.438  -5.545   5.142  0.00  0.00    +0.140 HD
ENDBRANCH  11  13
ENDBRANCH  10  11
BRANCH   1  16
ATOM     16  C   UNL     1      -4.778  -2.792   1.380  0.00  0.00    -0.039 C 
BRANCH  16  20
ATOM     17  C   UNL     1      -1.433  -0.534   0.013  0.00  0.00    -0.015 C 
ATOM     18  C   UNL     1      -2.109  -0.154   1.334  0.00  0.00    -0.015 C 
ATOM     19  C   UNL     1      -3.516  -0.754   1.371  0.00  0.00    -0.078 C 
ATOM     20  N   UNL     1      -3.432  -2.216   1.265  0.00  0.00    +0.382 N 
ATOM     21  C   UNL     1      -2.850  -2.589  -0.030  0.00  0.00    -0.078 C 
ATOM     22  C   UNL     1      -1.417  -2.059  -0.121  0.00  0.00    -0.015 C 
ATOM     23  H   UNL     1      -2.851  -2.573   2.009  0.00  0.00    -0.081 HD
BRANCH  17  25
ATOM     24  C   UNL     1      -0.019   1.526   0.010  0.00  0.00    +0.004 C 
ATOM     25  C   UNL     1       0.002  -0.004   0.002  0.00  0.00    -0.000 C 
ENDBRANCH  17  25
ENDBRANCH  16  20
ENDBRANCH   1  16
TORSDOF 5
