REMARK  Name = ZINC12499283
REMARK  6 active torsions:
REMARK  status: ('A' for Active; 'I' for Inactive)
REMARK    1  A    between atoms: C_1  and  C_2
REMARK    2  A    between atoms: C_4  and  O_9
REMARK    3  A    between atoms: O_9  and  C_10
REMARK    4  A    between atoms: C_10  and  C_11
REMARK    5  A    between atoms: N_13  and  C_14
REMARK    6  A    between atoms: C_14  and  N_16
REMARK                            x       y       z     vdW  Elec       q    Type
REMARK                         _______ _______ _______ _____ _____    ______ ____
ROOT
ATOM      1  C   UNL     1      -1.410  -0.550   0.304  0.00  0.00    +0.256 C 
ATOM      2  O   UNL     1      -2.295   0.238   0.048  0.00  0.00    -0.272 OA
ATOM      3  N   UNL     1      -1.665  -1.873   0.302  0.00  0.00    -0.265 N 
ATOM      4  H   UNL     1      -0.957  -2.504   0.507  0.00  0.00    +0.157 HD
ENDROOT
BRANCH   3   5
ATOM      5  C   UNL     1      -2.904  -2.321   0.017  0.00  0.00    +0.144 C 
ATOM      6  S   UNL     1      -4.185  -1.207  -0.209  0.00  0.00    -0.018 S 
BRANCH   5   7
ATOM      7  N   UNL     1      -3.135  -3.644  -0.089  0.00  0.00    -0.282 N 
ATOM      8  C   UNL     1      -2.018  -4.598  -0.106  0.00  0.00    +0.113 C 
ATOM      9  C   UNL     1      -2.288  -5.616  -1.222  0.00  0.00    +0.024 C 
ATOM     10  C   UNL     1      -3.561  -6.392  -0.885  0.00  0.00    +0.038 C 
ATOM     11  C   UNL     1      -4.687  -5.444  -0.566  0.00  0.00    -0.026 A 
ATOM     12  C   UNL     1      -4.445  -4.134  -0.180  0.00  0.00    +0.039 A 
ATOM     13  C   UNL     1      -5.507  -3.286   0.106  0.00  0.00    +0.024 A 
ATOM     14  C   UNL     1      -6.805  -3.748   0.015  0.00  0.00    +0.002 A 
ATOM     15  C   UNL     1      -7.046  -5.054  -0.368  0.00  0.00    +0.000 A 
ATOM     16  C   UNL     1      -5.992  -5.899  -0.657  0.00  0.00    +0.005 A 
ENDBRANCH   5   7
ENDBRANCH   3   5
BRANCH   1  17
ATOM     17  C   UNL     1      -0.025  -0.050   0.622  0.00  0.00    +0.324 C 
BRANCH  17  18
ATOM     18  O   UNL     1      -0.008   1.378   0.560  0.00  0.00    -0.483 OA
BRANCH  18  22
ATOM     19  C   UNL     1       2.564   5.502   1.002  0.00  0.00    +0.045 C 
ATOM     20  C   UNL     1       2.467   3.999   1.048  0.00  0.00    -0.033 A 
ATOM     21  C   UNL     1       1.264   3.376   0.780  0.00  0.00    +0.050 A 
ATOM     22  C   UNL     1       1.176   1.993   0.823  0.00  0.00    +0.122 A 
ATOM     23  C   UNL     1       2.295   1.237   1.141  0.00  0.00    +0.047 A 
ATOM     24  C   UNL     1       3.498   1.864   1.403  0.00  0.00    +0.019 A 
ATOM     25  C   UNL     1       3.584   3.244   1.359  0.00  0.00    +0.021 A 
ATOM     26 BR   UNL     1       5.230   4.100   1.725  0.00  0.00    -0.050 Br
ENDBRANCH  18  22
ENDBRANCH  17  18
ENDBRANCH   1  17
TORSDOF 5
