REMARK  Name = ZINC11338846
REMARK  11 active torsions:
REMARK  status: ('A' for Active; 'I' for Inactive)
REMARK    1  A    between atoms: C_1  and  N_2
REMARK    2  A    between atoms: C_3  and  C_11
REMARK    3  A    between atoms: N_7  and  C_10
REMARK    4  A    between atoms: C_11  and  N_12
REMARK    5  A    between atoms: N_12  and  C_13
REMARK    6  A    between atoms: N_12  and  C_21
REMARK    7  A    between atoms: C_13  and  C_14
REMARK    8  A    between atoms: C_14  and  C_15
REMARK    9  A    between atoms: C_22  and  N_37
REMARK   10  A    between atoms: N_23  and  C_30
REMARK   11  A    between atoms: C_30  and  C_31
REMARK                            x       y       z     vdW  Elec       q    Type
REMARK                         _______ _______ _______ _____ _____    ______ ____
ROOT
ATOM      1  N   UNL     1      -3.109  -1.773  -1.312  0.00  0.00    -0.317 N 
ENDROOT
BRANCH   1   2
ATOM      2  C   UNL     1      -3.427  -2.265  -2.600  0.00  0.00    +0.134 A 
ATOM      3  C   UNL     1      -3.761  -3.580  -2.778  0.00  0.00    +0.127 A 
ATOM      4  N   UNL     1      -4.070  -4.032  -4.040  0.00  0.00    -0.276 N 
ATOM      5  C   UNL     1      -4.036  -3.193  -5.092  0.00  0.00    +0.331 A 
ATOM      6  O   UNL     1      -4.308  -3.611  -6.201  0.00  0.00    -0.246 OA
ATOM      7  N   UNL     1      -3.704  -1.899  -4.935  0.00  0.00    -0.273 N 
ATOM      8  H   UNL     1      -3.685  -1.293  -5.730  0.00  0.00    +0.173 HD
ATOM      9  C   UNL     1      -3.398  -1.411  -3.717  0.00  0.00    +0.277 A 
ATOM     10  O   UNL     1      -3.099  -0.236  -3.584  0.00  0.00    -0.266 OA
BRANCH   3  11
ATOM     11  N   UNL     1      -3.792  -4.441  -1.704  0.00  0.00    -0.343 N 
ATOM     12  H   UNL     1      -3.576  -4.116  -0.816  0.00  0.00    +0.144 HD
ATOM     13  H   UNL     1      -4.029  -5.372  -1.836  0.00  0.00    +0.144 HD
ENDBRANCH   3  11
BRANCH   4  14
ATOM     14  C   UNL     1      -4.434  -5.437  -4.242  0.00  0.00    +0.163 C 
BRANCH  14  15
ATOM     15  C   UNL     1      -3.192  -6.242  -4.524  0.00  0.00    -0.028 A 
ATOM     16  C   UNL     1      -2.760  -6.413  -5.826  0.00  0.00    +0.005 A 
ATOM     17  C   UNL     1      -1.618  -7.148  -6.085  0.00  0.00    +0.000 A 
ATOM     18  C   UNL     1      -0.913  -7.720  -5.042  0.00  0.00    +0.000 A 
ATOM     19  C   UNL     1      -1.348  -7.553  -3.740  0.00  0.00    +0.000 A 
ATOM     20  C   UNL     1      -2.487  -6.814  -3.482  0.00  0.00    +0.005 A 
ENDBRANCH  14  15
ENDBRANCH   4  14
ENDBRANCH   1   2
BRANCH   1  21
ATOM     21  C   UNL     1      -4.058  -0.732  -0.897  0.00  0.00    +0.159 C 
BRANCH  21  24
ATOM     22  C   UNL     1      -4.532  -2.588   1.214  0.00  0.00    +0.154 C 
ATOM     23  N   UNL     1      -5.635  -2.233   0.317  0.00  0.00    -0.299 N 
ATOM     24  C   UNL     1      -5.421  -1.344  -0.701  0.00  0.00    +0.045 A 
ATOM     25  C   UNL     1      -6.439  -1.013  -1.524  0.00  0.00    +0.093 A 
ATOM     26  C   UNL     1      -7.709  -1.604  -1.321  0.00  0.00    +0.257 A 
ATOM     27  O   UNL     1      -8.641  -1.325  -2.054  0.00  0.00    -0.268 OA
ATOM     28  N   UNL     1      -7.879  -2.477  -0.307  0.00  0.00    -0.264 N 
ATOM     29  C   UNL     1      -6.848  -2.784   0.502  0.00  0.00    +0.332 A 
ATOM     30  O   UNL     1      -7.016  -3.572   1.413  0.00  0.00    -0.246 OA
ATOM     31  C   UNL     1      -9.190  -3.091  -0.085  0.00  0.00    +0.157 C 
ENDBRANCH  21  24
ENDBRANCH   1  21
BRANCH   1  32
ATOM     32  C   UNL     1      -1.728  -1.276  -1.265  0.00  0.00    +0.110 C 
BRANCH  32  33
ATOM     33  C   UNL     1      -1.340  -0.986   0.187  0.00  0.00    +0.049 C 
BRANCH  33  34
ATOM     34  C   UNL     1       0.077  -0.476   0.235  0.00  0.00    -0.072 C 
ATOM     35  C   UNL     1       0.261   0.805   0.243  0.00  0.00    -0.028 C 
ATOM     36  C   UNL     1       1.611   1.461   0.279  0.00  0.00    +0.027 C 
ATOM     37  C   UNL     1       2.674   0.455   0.727  0.00  0.00    +0.004 C 
ATOM     38  C   UNL     1       2.514  -0.822  -0.106  0.00  0.00    +0.005 C 
ATOM     39  C   UNL     1       1.188  -1.485   0.272  0.00  0.00    +0.030 C 
ENDBRANCH  33  34
ENDBRANCH  32  33
ENDBRANCH   1  32
TORSDOF 9
