REMARK  Name = ZINC12845148
REMARK  8 active torsions:
REMARK  status: ('A' for Active; 'I' for Inactive)
REMARK    1  A    between atoms: C_1  and  C_2
REMARK    2  A    between atoms: C_2  and  C_3
REMARK    3  A    between atoms: C_3  and  C_5
REMARK    4  A    between atoms: C_3  and  C_6
REMARK    5  A    between atoms: C_9  and  N_12
REMARK    6  A    between atoms: C_13  and  C_15
REMARK    7  A    between atoms: C_20  and  C_27
REMARK    8  A    between atoms: C_23  and  C_26
REMARK                            x       y       z     vdW  Elec       q    Type
REMARK                         _______ _______ _______ _____ _____    ______ ____
ROOT
ATOM      1  N   UNL     1      -1.040  -2.219  -0.000  0.00  0.00    -0.279 N 
ATOM      2  C   UNL     1      -1.198  -0.890  -0.158  0.00  0.00    +0.287 C 
ATOM      3  O   UNL     1      -2.311  -0.422  -0.300  0.00  0.00    -0.266 OA
ATOM      4  H   UNL     1      -0.149  -2.601   0.036  0.00  0.00    +0.155 HD
ENDROOT
BRANCH   2   5
ATOM      5  C   UNL     1      -0.017  -0.001  -0.159  0.00  0.00    +0.238 A 
ATOM      6  N   UNL     1       1.262  -0.397  -0.011  0.00  0.00    -0.189 NA
ATOM      7  C   UNL     1       2.047   0.641  -0.059  0.00  0.00    +0.215 A 
ATOM      8  N   UNL     1       1.280   1.747  -0.245  0.00  0.00    -0.224 N 
ATOM      9  N   UNL     1      -0.044   1.310  -0.304  0.00  0.00    -0.143 NA
ATOM     10  C   UNL     1       1.808   3.107  -0.354  0.00  0.00    +0.178 C 
ATOM     11  C   UNL     1       3.300   3.031  -0.699  0.00  0.00    +0.054 C 
ATOM     12  C   UNL     1       4.003   2.054   0.250  0.00  0.00    +0.072 C 
ATOM     13  N   UNL     1       3.430   0.709   0.051  0.00  0.00    -0.311 N 
ATOM     14  C   UNL     1       5.502   2.028  -0.056  0.00  0.00    +0.028 C 
ATOM     15  H   UNL     1       3.987  -0.083  -0.000  0.00  0.00    +0.149 HD
BRANCH  10  16
ATOM     16  C   UNL     1       1.061   3.860  -1.456  0.00  0.00    +0.365 C 
ATOM     17  F   UNL     1      -0.301   3.914  -1.144  0.00  0.00    -0.207 F 
ATOM     18  F   UNL     1       1.568   5.160  -1.559  0.00  0.00    -0.207 F 
ENDBRANCH  10  16
ENDBRANCH   2   5
BRANCH   1  22
ATOM     19  C   UNL     1      -4.379  -4.688   0.333  0.00  0.00    -0.044 A 
ATOM     20  C   UNL     1      -3.234  -5.156  -0.285  0.00  0.00    +0.006 A 
ATOM     21  C   UNL     1      -2.125  -4.340  -0.397  0.00  0.00    +0.023 A 
ATOM     22  C   UNL     1      -2.161  -3.048   0.111  0.00  0.00    +0.034 A 
ATOM     23  C   UNL     1      -3.311  -2.582   0.735  0.00  0.00    +0.023 A 
ATOM     24  C   UNL     1      -4.418  -3.401   0.840  0.00  0.00    +0.006 A 
BRANCH  19  25
ATOM     25  C   UNL     1      -5.587  -5.581   0.454  0.00  0.00    +0.016 C 
ATOM     26  C   UNL     1      -6.772  -4.935  -0.265  0.00  0.00    +0.012 C 
BRANCH  25  28
ATOM     27  C   UNL     1      -7.078  -6.780   2.060  0.00  0.00    +0.004 C 
ATOM     28  C   UNL     1      -5.931  -5.776   1.932  0.00  0.00    +0.004 C 
ENDBRANCH  25  28
ENDBRANCH  19  25
ENDBRANCH   1  22
TORSDOF 5
