REMARK  Name = ZINC15866642
REMARK  8 active torsions:
REMARK  status: ('A' for Active; 'I' for Inactive)
REMARK    1  A    between atoms: C_1  and  C_2
REMARK    2  A    between atoms: C_4  and  C_28
REMARK    3  A    between atoms: C_6  and  N_8
REMARK    4  A    between atoms: N_8  and  S_9
REMARK    5  A    between atoms: S_9  and  C_12
REMARK    6  A    between atoms: C_14  and  C_20
REMARK    7  A    between atoms: C_16  and  C_19
REMARK    8  A    between atoms: C_17  and  C_18
REMARK                            x       y       z     vdW  Elec       q    Type
REMARK                         _______ _______ _______ _____ _____    ______ ____
ROOT
ATOM      1  C   UNL     1      -0.124   1.801   2.428  0.00  0.00    +0.112 A 
ATOM      2  C   UNL     1      -0.575   2.285   3.639  0.00  0.00    +0.039 A 
ATOM      3  C   UNL     1      -1.745   3.041   3.692  0.00  0.00    +0.004 A 
ATOM      4  C   UNL     1      -2.453   3.303   2.521  0.00  0.00    +0.013 A 
ATOM      5  C   UNL     1      -1.990   2.819   1.315  0.00  0.00    -0.045 A 
ATOM      6  C   UNL     1      -0.831   2.065   1.268  0.00  0.00    -0.021 A 
ATOM      7  C   UNL     1      -0.333   1.534  -0.051  0.00  0.00    +0.046 C 
ATOM      8  C   UNL     1      -2.751   3.107   0.046  0.00  0.00    +0.044 C 
ENDROOT
BRANCH   3   9
ATOM      9  C   UNL     1      -2.235   3.564   4.992  0.00  0.00    +0.091 A 
ATOM     10  C   UNL     1      -3.419   4.335   5.039  0.00  0.00    +0.035 A 
ATOM     11  C   UNL     1      -3.842   4.795   6.251  0.00  0.00    +0.073 A 
ATOM     12  C   UNL     1      -3.062   4.481   7.386  0.00  0.00    +0.265 A 
ATOM     13  O   UNL     1      -3.397   4.875   8.491  0.00  0.00    -0.266 OA
ATOM     14  N   UNL     1      -1.945   3.744   7.240  0.00  0.00    -0.243 N 
ATOM     15  H   UNL     1      -1.413   3.532   8.023  0.00  0.00    +0.192 HD
ATOM     16  N   UNL     1      -1.564   3.314   6.091  0.00  0.00    -0.171 NA
ENDBRANCH   3   9
BRANCH   1  17
ATOM     17  S   UNL     1       1.355   0.847   2.358  0.00  0.00    +0.073 S 
ATOM     18  O   UNL     1       2.174   1.439   1.359  0.00  0.00    -0.150 OA
ATOM     19  O   UNL     1       1.792   0.676   3.699  0.00  0.00    -0.150 OA
BRANCH  17  20
ATOM     20  N   UNL     1       0.942  -0.657   1.800  0.00  0.00    -0.216 N 
ATOM     21  H   UNL     1       1.286  -0.970   0.949  0.00  0.00    +0.174 HD
BRANCH  20  27
ATOM     22  C   UNL     1      -0.287  -2.604   6.142  0.00  0.00    +0.044 C 
ATOM     23  C   UNL     1      -0.521  -2.437   4.663  0.00  0.00    -0.048 A 
ATOM     24  C   UNL     1      -1.574  -3.094   4.052  0.00  0.00    +0.006 A 
ATOM     25  C   UNL     1      -1.792  -2.944   2.695  0.00  0.00    -0.048 A 
ATOM     26  C   UNL     1      -0.960  -2.136   1.945  0.00  0.00    +0.028 A 
ATOM     27  C   UNL     1       0.098  -1.474   2.555  0.00  0.00    +0.049 A 
ATOM     28  C   UNL     1       0.318  -1.632   3.918  0.00  0.00    +0.028 A 
ATOM     29  C   UNL     1      -2.941  -3.662   2.033  0.00  0.00    +0.044 C 
ENDBRANCH  20  27
ENDBRANCH  17  20
ENDBRANCH   1  17
TORSDOF 4
