REMARK  Name = ZINC13984708
REMARK  5 active torsions:
REMARK  status: ('A' for Active; 'I' for Inactive)
REMARK    1  A    between atoms: C_4  and  C_8
REMARK    2  A    between atoms: N_9  and  N_10
REMARK    3  A    between atoms: C_11  and  C_13
REMARK    4  A    between atoms: C_13  and  N_14
REMARK    5  A    between atoms: C_15  and  C_17
REMARK                            x       y       z     vdW  Elec       q    Type
REMARK                         _______ _______ _______ _____ _____    ______ ____
ROOT
ATOM      1  N   UNL     1       0.002  -0.004   0.002  0.00  0.00    -0.206 N 
ATOM      2  C   UNL     1      -0.016   1.344   0.009  0.00  0.00    +0.249 C 
ATOM      3  O   UNL     1      -1.075   1.936   0.018  0.00  0.00    -0.272 OA
ATOM      4  H   UNL     1       0.849  -0.478  -0.009  0.00  0.00    +0.177 HD
ENDROOT
BRANCH   1   6
ATOM      5  C   UNL     1      -1.184  -2.019   0.003  0.00  0.00    +0.141 C 
ATOM      6  N   UNL     1      -1.202  -0.721   0.010  0.00  0.00    -0.188 NA
BRANCH   5  10
ATOM      7  C   UNL     1      -4.832  -4.191   0.027  0.00  0.00    +0.003 A 
ATOM      8  C   UNL     1      -3.626  -4.870   0.011  0.00  0.00    +0.021 A 
ATOM      9  C   UNL     1      -2.436  -4.171   0.003  0.00  0.00    +0.051 A 
ATOM     10  C   UNL     1      -2.451  -2.773   0.011  0.00  0.00    +0.031 A 
ATOM     11  C   UNL     1      -3.672  -2.094   0.032  0.00  0.00    +0.051 A 
ATOM     12  C   UNL     1      -4.854  -2.808   0.035  0.00  0.00    +0.021 A 
ATOM     13 CL   UNL     1      -3.704  -0.359   0.048  0.00  0.00    -0.083 Cl
ATOM     14 CL   UNL     1      -0.925  -5.025  -0.016  0.00  0.00    -0.083 Cl
ENDBRANCH   5  10
ENDBRANCH   1   6
BRANCH   2  15
ATOM     15  C   UNL     1       1.278   2.115   0.001  0.00  0.00    +0.201 C 
BRANCH  15  16
ATOM     16  N   UNL     1       0.991   3.551   0.012  0.00  0.00    -0.306 N 
ATOM     17  C   UNL     1       2.004   4.441   0.007  0.00  0.00    +0.217 C 
ATOM     18  O   UNL     1       3.152   4.052  -0.006  0.00  0.00    -0.276 OA
ATOM     19  H   UNL     1       0.072   3.862   0.022  0.00  0.00    +0.149 HD
BRANCH  17  20
ATOM     20  C   UNL     1       1.708   5.919   0.018  0.00  0.00    +0.075 C 
ATOM     21  C   UNL     1       0.889   6.284  -1.222  0.00  0.00    +0.013 C 
ATOM     22  C   UNL     1       0.589   7.784  -1.211  0.00  0.00    +0.001 C 
ATOM     23  C   UNL     1       1.904   8.567  -1.219  0.00  0.00    +0.000 C 
ATOM     24  C   UNL     1       2.723   8.202   0.020  0.00  0.00    +0.001 C 
ATOM     25  C   UNL     1       3.023   6.702   0.009  0.00  0.00    +0.013 C 
ENDBRANCH  17  20
ENDBRANCH  15  16
ENDBRANCH   2  15
TORSDOF 5
