REMARK  Name = ZINC54443822
REMARK  8 active torsions:
REMARK  status: ('A' for Active; 'I' for Inactive)
REMARK    1  A    between atoms: C_1  and  C_2
REMARK    2  A    between atoms: C_2  and  C_3
REMARK    3  A    between atoms: C_2  and  C_4
REMARK    4  A    between atoms: C_2  and  C_5
REMARK    5  A    between atoms: N_7  and  C_11
REMARK    6  A    between atoms: C_11  and  N_12
REMARK    7  A    between atoms: N_15  and  C_18
REMARK    8  A    between atoms: C_23  and  O_24
REMARK                            x       y       z     vdW  Elec       q    Type
REMARK                         _______ _______ _______ _____ _____    ______ ____
ROOT
ATOM      1  N   UNL     1       3.812   0.361  -4.008  0.00  0.00    -0.281 NA
ATOM      2  C   UNL     1       3.753   1.742  -3.513  0.00  0.00    +0.105 C 
ATOM      3  C   UNL     1       5.136   2.156  -2.998  0.00  0.00    +0.120 C 
ATOM      4  N   UNL     1       6.122   1.919  -4.064  0.00  0.00    -0.325 N 
ATOM      5  C   UNL     1       6.148   0.595  -4.705  0.00  0.00    +0.120 C 
ATOM      6  C   UNL     1       4.725   0.243  -5.153  0.00  0.00    +0.105 C 
ENDROOT
BRANCH   4   7
ATOM      7  C   UNL     1       7.011   2.925  -4.457  0.00  0.00    +0.072 A 
ATOM      8  C   UNL     1       8.248   3.041  -3.839  0.00  0.00    +0.027 A 
ATOM      9  C   UNL     1       9.125   4.035  -4.229  0.00  0.00    +0.002 A 
ATOM     10  C   UNL     1       8.773   4.916  -5.235  0.00  0.00    +0.004 A 
ATOM     11  C   UNL     1       7.542   4.807  -5.856  0.00  0.00    +0.047 A 
ATOM     12  C   UNL     1       6.660   3.810  -5.474  0.00  0.00    +0.138 A 
BRANCH  12  13
ATOM     13  O   UNL     1       5.451   3.698  -6.087  0.00  0.00    -0.505 OA
ATOM     14  H   UNL     1       4.748   4.212  -5.667  0.00  0.00    +0.292 HD
ENDBRANCH  12  13
ENDBRANCH   4   7
BRANCH   1  15
ATOM     15  C   UNL     1       2.471  -0.133  -4.351  0.00  0.00    +0.234 C 
BRANCH  15  18
ATOM     16  C   UNL     1       0.707  -0.490  -1.238  0.00  0.00    +0.222 A 
ATOM     17  N   UNL     1       1.221   0.266  -2.151  0.00  0.00    -0.132 NA
ATOM     18  N   UNL     1       1.783  -0.564  -3.132  0.00  0.00    -0.209 N 
ATOM     19  C   UNL     1       1.565  -1.836  -2.736  0.00  0.00    +0.268 A 
ATOM     20  S   UNL     1       2.046  -3.254  -3.567  0.00  0.00    +0.011 S 
ATOM     21  O   UNL     1       0.907  -1.782  -1.566  0.00  0.00    -0.416 OA
BRANCH  16  23
ATOM     22  C   UNL     1      -0.019   1.526   0.010  0.00  0.00    +0.020 C 
ATOM     23  C   UNL     1       0.002  -0.004   0.002  0.00  0.00    +0.040 C 
ATOM     24  C   UNL     1       0.742  -0.511   1.242  0.00  0.00    +0.020 C 
ATOM     25  C   UNL     1      -1.433  -0.534   0.013  0.00  0.00    +0.020 C 
ENDBRANCH  16  23
ENDBRANCH  15  18
ENDBRANCH   1  15
TORSDOF 5
