REMARK  Name = ZINC05062525
REMARK  6 active torsions:
REMARK  status: ('A' for Active; 'I' for Inactive)
REMARK    1  A    between atoms: C_4  and  C_7
REMARK    2  A    between atoms: C_7  and  C_8
REMARK    3  A    between atoms: C_8  and  C_10
REMARK    4  A    between atoms: C_8  and  N_23
REMARK    5  A    between atoms: N_15  and  C_18
REMARK    6  A    between atoms: C_24  and  C_26
REMARK                            x       y       z     vdW  Elec       q    Type
REMARK                         _______ _______ _______ _____ _____    ______ ____
ROOT
ATOM      1  C   UNL     1       6.154  -0.731  -0.077  0.00  0.00    +0.164 C 
ENDROOT
BRANCH   1   2
ATOM      2  C   UNL     1       7.314   0.058  -0.628  0.00  0.00    +0.236 C 
ATOM      3  O   UNL     1       7.339   1.265  -0.508  0.00  0.00    -0.274 OA
ATOM      4  N   UNL     1       8.324  -0.577  -1.256  0.00  0.00    -0.297 N 
ATOM      5  C   UNL     1       8.266  -2.026  -1.504  0.00  0.00    +0.127 C 
ATOM      6  C   UNL     1       8.563  -2.272  -2.991  0.00  0.00    +0.125 C 
ATOM      7  N   UNL     1       9.839  -1.633  -3.342  0.00  0.00    -0.314 N 
ATOM      8  C   UNL     1       9.767  -0.175  -3.179  0.00  0.00    +0.125 C 
ATOM      9  C   UNL     1       9.516   0.158  -1.704  0.00  0.00    +0.127 C 
BRANCH   7  10
ATOM     10  C   UNL     1      10.226  -1.971  -4.634  0.00  0.00    +0.099 A 
ATOM     11  C   UNL     1      10.352  -3.311  -4.988  0.00  0.00    +0.042 A 
ATOM     12  C   UNL     1      10.739  -3.633  -6.276  0.00  0.00    +0.005 A 
ATOM     13  C   UNL     1      10.987  -2.600  -7.171  0.00  0.00    +0.018 A 
ATOM     14  C   UNL     1      10.842  -1.293  -6.752  0.00  0.00    +0.084 A 
ATOM     15  N   UNL     1      10.458  -0.940  -5.497  0.00  0.00    -0.350 N 
ATOM     16  H   UNL     1      10.350   0.042  -5.215  0.00  0.00    +0.166 HD
ENDBRANCH   7  10
ENDBRANCH   1   2
BRANCH   1  17
ATOM     17  N   UNL     1       4.985   0.143   0.046  0.00  0.00    -0.300 N 
ATOM     18  C   UNL     1       3.744  -0.385   0.023  0.00  0.00    +0.245 C 
ATOM     19  O   UNL     1       3.597  -1.585  -0.100  0.00  0.00    -0.270 OA
ATOM     20  H   UNL     1       5.103   1.101   0.144  0.00  0.00    +0.150 HD
BRANCH  18  21
ATOM     21  C   UNL     1       2.564   0.497   0.147  0.00  0.00    +0.037 A 
ATOM     22  C   UNL     1       1.278  -0.046   0.123  0.00  0.00    +0.013 A 
ATOM     23  C   UNL     1       0.181   0.781   0.240  0.00  0.00    +0.001 A 
ATOM     24  C   UNL     1       0.353   2.147   0.380  0.00  0.00    +0.000 A 
ATOM     25  C   UNL     1       1.624   2.692   0.404  0.00  0.00    +0.001 A 
ATOM     26  C   UNL     1       2.730   1.875   0.289  0.00  0.00    +0.013 A 
ENDBRANCH  18  21
ENDBRANCH   1  17
BRANCH   1  27
ATOM     27  C   UNL     1       6.524  -1.286   1.300  0.00  0.00    +0.067 C 
BRANCH  27  31
ATOM     28  C   UNL     1       3.405  -3.857   2.683  0.00  0.00    +0.000 A 
ATOM     29  C   UNL     1       4.449  -4.374   1.938  0.00  0.00    +0.000 A 
ATOM     30  C   UNL     1       5.458  -3.542   1.490  0.00  0.00    +0.004 A 
ATOM     31  C   UNL     1       5.423  -2.193   1.787  0.00  0.00    -0.045 A 
ATOM     32  C   UNL     1       4.383  -1.676   2.537  0.00  0.00    +0.004 A 
ATOM     33  C   UNL     1       3.371  -2.507   2.980  0.00  0.00    +0.000 A 
ENDBRANCH  27  31
ENDBRANCH   1  27
TORSDOF 6
