REMARK  Name = ZINC35877106
REMARK  7 active torsions:
REMARK  status: ('A' for Active; 'I' for Inactive)
REMARK    1  A    between atoms: C_1  and  C_2
REMARK    2  A    between atoms: C_2  and  C_3
REMARK    3  A    between atoms: C_3  and  C_5
REMARK    4  A    between atoms: C_3  and  N_6
REMARK    5  A    between atoms: C_26  and  C_28
REMARK    6  A    between atoms: C_28  and  C_29
REMARK    7  A    between atoms: C_28  and  C_30
REMARK                            x       y       z     vdW  Elec       q    Type
REMARK                         _______ _______ _______ _____ _____    ______ ____
ROOT
ATOM      1  N   UNL     1      -1.934  -0.102  -1.173  0.00  0.00    -0.239 N 
ATOM      2  C   UNL     1      -1.560  -0.550  -2.377  0.00  0.00    +0.227 C 
ATOM      3  O   UNL     1      -0.710  -1.390  -2.579  0.00  0.00    -0.275 OA
ATOM      4  C   UNL     1      -2.363   0.155  -3.447  0.00  0.00    +0.107 C 
ATOM      5  C   UNL     1      -3.289   1.102  -2.634  0.00  0.00    +0.122 C 
ATOM      6  C   UNL     1      -2.899   0.824  -1.200  0.00  0.00    +0.228 C 
ATOM      7  O   UNL     1      -3.384   1.358  -0.226  0.00  0.00    -0.275 OA
ATOM      8  C   UNL     1      -2.856   2.514  -3.044  0.00  0.00    +0.136 C 
ATOM      9  C   UNL     1      -1.929   3.124  -2.031  0.00  0.00    +0.003 A 
ATOM     10  C   UNL     1      -0.704   2.755  -1.524  0.00  0.00    +0.008 A 
ATOM     11  C   UNL     1      -0.081   3.545  -0.574  0.00  0.00    +0.000 A 
ATOM     12  C   UNL     1      -0.692   4.705  -0.136  0.00  0.00    +0.002 A 
ATOM     13  C   UNL     1      -1.920   5.079  -0.641  0.00  0.00    +0.023 A 
ATOM     14  C   UNL     1      -2.554   4.289  -1.597  0.00  0.00    +0.039 A 
ATOM     15  N   UNL     1      -3.779   4.452  -2.249  0.00  0.00    -0.283 N 
ATOM     16  C   UNL     1      -4.031   3.451  -3.115  0.00  0.00    +0.243 C 
ATOM     17  O   UNL     1      -5.013   3.329  -3.815  0.00  0.00    -0.273 OA
ATOM     18  N   UNL     1      -2.202   2.372  -4.358  0.00  0.00    -0.295 NA
ATOM     19  C   UNL     1      -1.429   1.085  -4.251  0.00  0.00    +0.070 C 
ATOM     20  H   UNL     1      -4.378   5.199  -2.096  0.00  0.00    +0.155 HD
ATOM     21  H   UNL     1      -2.886   2.324  -5.099  0.00  0.00    +0.124 HD
ENDROOT
BRANCH  19  22
ATOM     22  C   UNL     1      -1.166   0.503  -5.641  0.00  0.00    +0.001 C 
ATOM     23  C   UNL     1      -0.240   1.439  -6.419  0.00  0.00    +0.009 C 
ATOM     24  C   UNL     1      -0.506  -0.870  -5.503  0.00  0.00    +0.009 C 
ENDBRANCH  19  22
BRANCH   1  25
ATOM     25  C   UNL     1      -1.339  -0.591   0.074  0.00  0.00    +0.081 C 
ATOM     26  C   UNL     1      -0.709   0.580   0.831  0.00  0.00    +0.028 C 
BRANCH  25  28
ATOM     27  C   UNL     1      -2.961  -2.485   0.240  0.00  0.00    +0.006 C 
ATOM     28  C   UNL     1      -2.425  -1.233   0.939  0.00  0.00    +0.019 C 
ENDBRANCH  25  28
ENDBRANCH   1  25
TORSDOF 3
