REMARK  Name = ZINC64960909
REMARK  3 active torsions:
REMARK  status: ('A' for Active; 'I' for Inactive)
REMARK    1  A    between atoms: C_1  and  C_2
REMARK    2  A    between atoms: C_10  and  C_14
REMARK    3  A    between atoms: C_17  and  C_20
REMARK                            x       y       z     vdW  Elec       q    Type
REMARK                         _______ _______ _______ _____ _____    ______ ____
ROOT
ATOM      1  C   UNL     1       0.072  -5.122   3.619  0.00  0.00    +0.279 C 
ATOM      2  N   UNL     1      -0.131  -6.541   3.304  0.00  0.00    -0.339 N 
ATOM      3  C   UNL     1       0.944  -7.195   3.621  0.00  0.00    +0.135 C 
ATOM      4  N   UNL     1       1.904  -6.361   4.138  0.00  0.00    -0.247 N 
ATOM      5  O   UNL     1       1.399  -5.033   4.159  0.00  0.00    -0.243 OA
ATOM      6  H   UNL     1       2.784  -6.634   4.440  0.00  0.00    +0.196 HD
ATOM      7  H   UNL     1      -0.935  -6.926   2.922  0.00  0.00    +0.164 HD
ENDROOT
BRANCH   1  17
ATOM      8  C   UNL     1      -0.337   1.465   0.018  0.00  0.00    +0.044 C 
ATOM      9  C   UNL     1      -0.304  -0.042   0.020  0.00  0.00    -0.050 A 
ATOM     10  C   UNL     1      -0.378  -0.733  -1.181  0.00  0.00    +0.005 A 
ATOM     11  C   UNL     1      -0.349  -2.111  -1.203  0.00  0.00    +0.026 A 
ATOM     12  C   UNL     1      -0.246  -2.817  -0.008  0.00  0.00    +0.050 A 
ATOM     13  C   UNL     1      -0.172  -2.111   1.205  0.00  0.00    +0.046 A 
ATOM     14  C   UNL     1      -0.197  -0.716   1.204  0.00  0.00    +0.017 A 
ATOM     15  C   UNL     1      -0.062  -2.877   2.458  0.00  0.00    +0.197 A 
ATOM     16  O   UNL     1       0.004  -2.314   3.538  0.00  0.00    -0.287 OA
ATOM     17  C   UNL     1      -0.038  -4.289   2.368  0.00  0.00    +0.067 A 
ATOM     18  H   UNL     1      -0.266  -4.676  -0.835  0.00  0.00    +0.165 HD
ATOM     19  C   UNL     1      -0.114  -4.891   1.162  0.00  0.00    +0.095 A 
ATOM     20  N   UNL     1      -0.215  -4.194   0.005  0.00  0.00    -0.360 N 
ENDBRANCH   1  17
BRANCH   3  21
ATOM     21  C   UNL     1       1.114  -8.655   3.447  0.00  0.00    +0.035 A 
ATOM     22  C   UNL     1       0.207  -9.540   4.030  0.00  0.00    +0.013 A 
ATOM     23  C   UNL     1       0.370 -10.900   3.865  0.00  0.00    +0.001 A 
ATOM     24  C   UNL     1       1.431 -11.387   3.122  0.00  0.00    +0.001 A 
ATOM     25  C   UNL     1       2.334 -10.517   2.540  0.00  0.00    +0.021 A 
ATOM     26  C   UNL     1       2.178  -9.152   2.693  0.00  0.00    +0.052 A 
ATOM     27 CL   UNL     1       3.308  -8.059   1.956  0.00  0.00    -0.083 Cl
ENDBRANCH   3  21
TORSDOF 2
