REMARK  Name = ZINC38903698
REMARK  7 active torsions:
REMARK  status: ('A' for Active; 'I' for Inactive)
REMARK    1  A    between atoms: C_1  and  C_2
REMARK    2  A    between atoms: C_4  and  C_16
REMARK    3  A    between atoms: C_6  and  C_14
REMARK    4  A    between atoms: C_7  and  N_13
REMARK    5  A    between atoms: C_21  and  O_22
REMARK    6  A    between atoms: O_22  and  C_23
REMARK    7  A    between atoms: C_23  and  C_24
REMARK                            x       y       z     vdW  Elec       q    Type
REMARK                         _______ _______ _______ _____ _____    ______ ____
ROOT
ATOM      1  C   UNL     1      -0.018   1.503   0.010  0.00  0.00    +0.067 C 
ATOM      2  C   UNL     1       0.002  -0.004   0.002  0.00  0.00    +0.066 C 
ATOM      3  C   UNL     1      -1.064  -0.768   0.003  0.00  0.00    +0.030 C 
ATOM      4  C   UNL     1      -2.536  -0.493   0.145  0.00  0.00    +0.101 C 
ATOM      5  C   UNL     1      -3.065  -1.577   1.066  0.00  0.00    +0.098 C 
ATOM      6  C   UNL     1      -2.303  -2.628   1.436  0.00  0.00    +0.195 C 
ATOM      7  O   UNL     1      -1.023  -2.853   1.091  0.00  0.00    -0.448 OA
ATOM      8  C   UNL     1      -0.529  -2.198  -0.081  0.00  0.00    +0.343 C 
ATOM      9  N   UNL     1       0.921  -1.985  -0.028  0.00  0.00    -0.138 NA
ATOM     10  N   UNL     1       1.127  -0.765  -0.013  0.00  0.00    -0.155 NA
ENDROOT
BRANCH   4  11
ATOM     11  C   UNL     1      -3.212  -0.572  -1.199  0.00  0.00    +0.007 A 
ATOM     12  C   UNL     1      -3.177  -1.748  -1.923  0.00  0.00    +0.008 A 
ATOM     13  C   UNL     1      -3.797  -1.820  -3.157  0.00  0.00    +0.001 A 
ATOM     14  C   UNL     1      -4.455  -0.716  -3.669  0.00  0.00    +0.004 A 
ATOM     15  C   UNL     1      -4.493   0.462  -2.948  0.00  0.00    +0.046 A 
ATOM     16  C   UNL     1      -3.876   0.535  -1.708  0.00  0.00    +0.125 A 
BRANCH  16  17
ATOM     17  O   UNL     1      -3.917   1.691  -0.995  0.00  0.00    -0.487 OA
BRANCH  17  18
ATOM     18  C   UNL     1      -4.618   2.790  -1.580  0.00  0.00    +0.264 C 
BRANCH  18  19
ATOM     19  C   UNL     1      -4.558   3.976  -0.653  0.00  0.00    -0.010 A 
ATOM     20  C   UNL     1      -5.538   4.154   0.306  0.00  0.00    +0.008 A 
ATOM     21  C   UNL     1      -5.483   5.242   1.157  0.00  0.00    +0.020 A 
ATOM     22  C   UNL     1      -4.447   6.153   1.049  0.00  0.00    +0.041 A 
ATOM     23  C   UNL     1      -3.466   5.974   0.090  0.00  0.00    +0.020 A 
ATOM     24  C   UNL     1      -3.519   4.883  -0.757  0.00  0.00    +0.008 A 
ATOM     25 CL   UNL     1      -4.378   7.519   2.118  0.00  0.00    -0.084 Cl
ENDBRANCH  18  19
ENDBRANCH  17  18
ENDBRANCH  16  17
ENDBRANCH   4  11
BRANCH   6  26
ATOM     26  N   UNL     1      -2.896  -3.562   2.247  0.00  0.00    -0.329 N 
ATOM     27  H   UNL     1      -3.818  -3.448   2.526  0.00  0.00    +0.145 HD
ATOM     28  H   UNL     1      -2.393  -4.337   2.542  0.00  0.00    +0.145 HD
ENDBRANCH   6  26
BRANCH   5  29
ATOM     29  C   UNL     1      -4.407  -1.482   1.556  0.00  0.00    +0.101 C 
ATOM     30  N   UNL     1      -5.472  -1.407   1.944  0.00  0.00    -0.191 NA
ENDBRANCH   5  29
TORSDOF 6
