REMARK  Name = ZINC59019175
REMARK  10 active torsions:
REMARK  status: ('A' for Active; 'I' for Inactive)
REMARK    1  A    between atoms: C_4  and  C_7
REMARK    2  A    between atoms: C_7  and  O_8
REMARK    3  A    between atoms: O_8  and  C_9
REMARK    4  A    between atoms: C_14  and  C_15
REMARK    5  A    between atoms: N_16  and  N_17
REMARK    6  A    between atoms: C_20  and  S_23
REMARK    7  A    between atoms: S_23  and  C_24
REMARK    8  A    between atoms: C_24  and  C_25
REMARK    9  A    between atoms: N_27  and  C_28
REMARK   10  A    between atoms: C_33  and  N_34
REMARK                            x       y       z     vdW  Elec       q    Type
REMARK                         _______ _______ _______ _____ _____    ______ ____
ROOT
ATOM      1  N   UNL     1       3.128  -0.480   4.948  0.00  0.00    -0.205 N 
ATOM      2  C   UNL     1       1.935   0.199   4.786  0.00  0.00    +0.232 A 
ATOM      3  N   UNL     1       1.379   0.524   3.638  0.00  0.00    -0.186 NA
ATOM      4  C   UNL     1       0.232   1.174   3.862  0.00  0.00    +0.211 A 
ATOM      5  N   UNL     1       0.043   1.272   5.156  0.00  0.00    -0.144 NA
ATOM      6  N   UNL     1       1.133   0.642   5.778  0.00  0.00    -0.245 N 
ATOM      7  H   UNL     1       3.457  -0.678   5.839  0.00  0.00    +0.177 HD
ATOM      8  H   UNL     1       1.281   0.545   6.732  0.00  0.00    +0.192 HD
ENDROOT
BRANCH   1  10
ATOM      9  C   UNL     1       4.984  -1.521   3.977  0.00  0.00    +0.142 C 
ATOM     10  N   UNL     1       3.863  -0.883   3.825  0.00  0.00    -0.187 NA
BRANCH   9  16
ATOM     11  C   UNL     1       5.286  -1.660   1.507  0.00  0.00    +0.130 A 
ATOM     12  C   UNL     1       6.023  -2.057   0.403  0.00  0.00    +0.046 A 
ATOM     13  C   UNL     1       7.215  -2.736   0.574  0.00  0.00    +0.004 A 
ATOM     14  C   UNL     1       7.681  -3.024   1.845  0.00  0.00    +0.001 A 
ATOM     15  C   UNL     1       6.960  -2.635   2.955  0.00  0.00    +0.013 A 
ATOM     16  C   UNL     1       5.757  -1.944   2.796  0.00  0.00    +0.036 A 
BRANCH  11  17
ATOM     17  O   UNL     1       4.114  -0.992   1.340  0.00  0.00    -0.487 OA
BRANCH  17  18
ATOM     18  C   UNL     1       3.698  -0.738  -0.003  0.00  0.00    +0.264 C 
BRANCH  18  22
ATOM     19  C   UNL     1      -0.017   1.370   0.031  0.00  0.00    +0.000 A 
ATOM     20  C   UNL     1       1.175   2.070   0.040  0.00  0.00    +0.000 A 
ATOM     21  C   UNL     1       2.377   1.388   0.029  0.00  0.00    +0.007 A 
ATOM     22  C   UNL     1       2.387   0.006   0.010  0.00  0.00    -0.010 A 
ATOM     23  C   UNL     1       1.195  -0.694   0.002  0.00  0.00    +0.007 A 
ATOM     24  C   UNL     1      -0.007  -0.012   0.011  0.00  0.00    +0.000 A 
ENDBRANCH  18  22
ENDBRANCH  17  18
ENDBRANCH  11  17
ENDBRANCH   9  16
ENDBRANCH   1  10
BRANCH   4  25
ATOM     25  S   UNL     1      -0.850   1.799   2.619  0.00  0.00    -0.075 S 
BRANCH  25  26
ATOM     26  C   UNL     1      -2.203   2.561   3.558  0.00  0.00    +0.173 C 
BRANCH  26  27
ATOM     27  C   UNL     1      -3.212   3.142   2.602  0.00  0.00    +0.228 C 
ATOM     28  O   UNL     1      -3.037   3.052   1.405  0.00  0.00    -0.275 OA
ATOM     29  N   UNL     1      -4.310   3.763   3.077  0.00  0.00    -0.283 N 
ATOM     30  H   UNL     1      -4.484   3.779   4.031  0.00  0.00    +0.155 HD
BRANCH  29  31
ATOM     31  C   UNL     1      -5.200   4.384   2.193  0.00  0.00    +0.064 A 
ATOM     32  C   UNL     1      -5.437   3.832   0.941  0.00  0.00    +0.025 A 
ATOM     33  C   UNL     1      -6.315   4.447   0.072  0.00  0.00    +0.002 A 
ATOM     34  C   UNL     1      -6.958   5.613   0.446  0.00  0.00    +0.002 A 
ATOM     35  C   UNL     1      -6.724   6.166   1.691  0.00  0.00    +0.034 A 
ATOM     36  C   UNL     1      -5.851   5.552   2.568  0.00  0.00    +0.147 A 
BRANCH  36  37
ATOM     37  N   UNL     1      -5.606   6.141   3.904  0.00  0.00    +0.058 N 
ATOM     38  O   UNL     1      -6.244   7.101   4.268  0.00  0.00    -0.126 OA
ATOM     39  O   UNL     1      -4.767   5.662   4.631  0.00  0.00    -0.126 OA
ENDBRANCH  36  37
ENDBRANCH  29  31
ENDBRANCH  26  27
ENDBRANCH  25  26
ENDBRANCH   4  25
TORSDOF 10
