REMARK  Name = ZINC09157830
REMARK  5 active torsions:
REMARK  status: ('A' for Active; 'I' for Inactive)
REMARK    1  A    between atoms: C_1  and  C_2
REMARK    2  A    between atoms: C_7  and  C_8
REMARK    3  A    between atoms: C_10  and  C_13
REMARK    4  A    between atoms: C_13  and  S_14
REMARK    5  A    between atoms: S_14  and  C_15
REMARK                            x       y       z     vdW  Elec       q    Type
REMARK                         _______ _______ _______ _____ _____    ______ ____
ROOT
ATOM      1  C   UNL     1      -0.633  -2.729  -0.006  0.00  0.00    +0.176 C 
ENDROOT
BRANCH   1   4
ATOM      2  C   UNL     1      -1.222  -6.231   0.553  0.00  0.00    +0.202 A 
ATOM      3  N   UNL     1      -1.006  -4.987   1.039  0.00  0.00    -0.191 NA
ATOM      4  C   UNL     1      -0.885  -4.215  -0.012  0.00  0.00    +0.238 A 
ATOM      5  O   UNL     1      -1.034  -4.991  -1.090  0.00  0.00    -0.337 OA
ATOM      6  N   UNL     1      -1.221  -6.141  -0.752  0.00  0.00    -0.056 NA
BRANCH   2  13
ATOM      7  C   UNL     1      -1.667  -8.751  -0.795  0.00  0.00    +0.044 C 
ATOM      8  C   UNL     1      -1.639  -8.684   0.710  0.00  0.00    -0.040 A 
ATOM      9  C   UNL     1      -1.825  -9.830   1.457  0.00  0.00    +0.004 A 
ATOM     10  C   UNL     1      -1.800  -9.770   2.838  0.00  0.00    +0.000 A 
ATOM     11  C   UNL     1      -1.587  -8.562   3.479  0.00  0.00    +0.001 A 
ATOM     12  C   UNL     1      -1.393  -7.412   2.742  0.00  0.00    +0.012 A 
ATOM     13  C   UNL     1      -1.424  -7.466   1.350  0.00  0.00    +0.025 A 
ENDBRANCH   2  13
ENDBRANCH   1   4
BRANCH   1  14
ATOM     14  S   UNL     1       1.150  -2.420  -0.022  0.00  0.00    -0.076 S 
BRANCH  14  15
ATOM     15  C   UNL     1       1.156  -0.658  -0.013  0.00  0.00    +0.191 A 
ATOM     16  N   UNL     1       2.315  -0.010  -0.020  0.00  0.00    -0.207 NA
ATOM     17  C   UNL     1       2.381   1.310  -0.013  0.00  0.00    +0.129 A 
ATOM     18  C   UNL     1       1.177   2.069   0.002  0.00  0.00    +0.047 A 
ATOM     19  C   UNL     1       0.989   3.510   0.011  0.00  0.00    +0.021 A 
ATOM     20  C   UNL     1      -0.256   4.007   0.026  0.00  0.00    +0.048 A 
ATOM     21  S   UNL     1      -1.286   2.552   0.021  0.00  0.00    -0.077 S 
ATOM     22  C   UNL     1      -0.016   1.315   0.009  0.00  0.00    +0.114 A 
ATOM     23  N   UNL     1       0.002  -0.004   0.002  0.00  0.00    -0.215 NA
ATOM     24  N   UNL     1       3.608   1.948  -0.021  0.00  0.00    -0.343 N 
ATOM     25  H   UNL     1       4.426   1.426  -0.032  0.00  0.00    +0.144 HD
ATOM     26  H   UNL     1       3.651   2.917  -0.017  0.00  0.00    +0.144 HD
ENDBRANCH  14  15
ENDBRANCH   1  14
TORSDOF 4
