REMARK  Name = ZINC49896443
REMARK  2 active torsions:
REMARK  status: ('A' for Active; 'I' for Inactive)
REMARK    1  A    between atoms: C_1  and  C_2
REMARK    2  A    between atoms: C_4  and  C_8
REMARK                            x       y       z     vdW  Elec       q    Type
REMARK                         _______ _______ _______ _____ _____    ______ ____
ROOT
ATOM      1  C   UNL     1       0.041  -3.333  -1.538  0.00  0.00    +0.007 A 
ATOM      2  C   UNL     1      -0.653  -3.322  -2.746  0.00  0.00    +0.014 A 
ATOM      3  C   UNL     1      -0.642  -4.439  -3.557  0.00  0.00    +0.050 A 
ATOM      4  C   UNL     1       0.059  -5.574  -3.174  0.00  0.00    +0.162 A 
ATOM      5  C   UNL     1       0.755  -5.588  -1.970  0.00  0.00    +0.163 A 
ATOM      6  C   UNL     1       0.750  -4.468  -1.155  0.00  0.00    +0.059 A 
ATOM      7  O   UNL     1       1.454  -6.691  -1.582  0.00  0.00    -0.485 OA
ATOM      8  C   UNL     1       1.138  -7.919  -2.245  0.00  0.00    +0.270 C 
ATOM      9  C   UNL     1       1.069  -7.647  -3.754  0.00  0.00    +0.270 C 
ATOM     10  O   UNL     1       0.053  -6.666  -3.987  0.00  0.00    -0.485 OA
ENDROOT
BRANCH   1  14
ATOM     11  C   UNL     1      -0.018   1.503   0.010  0.00  0.00    +0.066 C 
ATOM     12  C   UNL     1       0.002  -0.004   0.002  0.00  0.00    +0.048 A 
ATOM     13  C   UNL     1       0.008  -0.793  -1.095  0.00  0.00    +0.066 A 
ATOM     14  C   UNL     1       0.029  -2.134  -0.663  0.00  0.00    +0.107 A 
ATOM     15  N   UNL     1       0.035  -2.135   0.653  0.00  0.00    -0.173 NA
ATOM     16  N   UNL     1       0.024  -0.804   1.090  0.00  0.00    -0.280 N 
ATOM     17  H   UNL     1       0.028  -0.509   2.014  0.00  0.00    +0.189 HD
ATOM     18 BR   UNL     1      -0.010  -0.202  -2.892  0.00  0.00    -0.046 Br
ENDBRANCH   1  14
TORSDOF 1
