REMARK  Name = ZINC11376952
REMARK  5 active torsions:
REMARK  status: ('A' for Active; 'I' for Inactive)
REMARK    1  A    between atoms: C_1  and  C_2
REMARK    2  A    between atoms: C_2  and  C_22
REMARK    3  A    between atoms: N_5  and  C_9
REMARK    4  A    between atoms: C_9  and  C_10
REMARK    5  A    between atoms: C_13  and  C_15
REMARK                            x       y       z     vdW  Elec       q    Type
REMARK                         _______ _______ _______ _____ _____    ______ ____
ROOT
ATOM      1  C   UNL     1       1.232  -2.729   1.409  0.00  0.00    +0.047 C 
ATOM      2  C   UNL     1       1.229  -2.185  -0.021  0.00  0.00    +0.135 C 
ATOM      3  C   UNL     1       2.430  -2.698  -0.790  0.00  0.00    +0.251 C 
ATOM      4  O   UNL     1       3.600  -2.510  -0.532  0.00  0.00    -0.272 OA
ATOM      5  N   UNL     1       1.928  -3.408  -1.819  0.00  0.00    -0.215 N 
ATOM      6  C   UNL     1       0.590  -3.415  -1.808  0.00  0.00    +0.310 C 
ATOM      7  O   UNL     1      -0.090  -3.989  -2.636  0.00  0.00    -0.252 OA
ATOM      8  N   UNL     1       0.079  -2.715  -0.774  0.00  0.00    -0.281 N 
ATOM      9  H   UNL     1      -0.859  -2.586  -0.566  0.00  0.00    +0.152 HD
ENDROOT
BRANCH   2  10
ATOM     10  C   UNL     1       1.208  -0.678  -0.013  0.00  0.00    -0.014 A 
ATOM     11  C   UNL     1       2.396   0.029  -0.021  0.00  0.00    +0.006 A 
ATOM     12  C   UNL     1       2.378   1.411  -0.013  0.00  0.00    +0.001 A 
ATOM     13  C   UNL     1       1.172   2.087   0.002  0.00  0.00    +0.015 A 
ATOM     14  C   UNL     1      -0.017   1.379   0.010  0.00  0.00    +0.018 A 
ATOM     15  C   UNL     1       0.002  -0.004   0.002  0.00  0.00    +0.021 A 
ATOM     16 BR   UNL     1      -1.667   2.303   0.022  0.00  0.00    -0.050 Br
ENDBRANCH   2  10
BRANCH   5  17
ATOM     17  C   UNL     1       2.746  -4.088  -2.827  0.00  0.00    +0.214 C 
BRANCH  17  18
ATOM     18  C   UNL     1       3.040  -5.494  -2.371  0.00  0.00    +0.214 A 
ATOM     19  N   UNL     1       2.307  -6.541  -2.626  0.00  0.00    -0.220 NA
ATOM     20  C   UNL     1       2.876  -7.617  -2.063  0.00  0.00    +0.161 A 
ATOM     21  C   UNL     1       4.006  -7.201  -1.436  0.00  0.00    +0.155 A 
ATOM     22  O   UNL     1       4.100  -5.869  -1.642  0.00  0.00    -0.438 OA
BRANCH  21  23
ATOM     23  C   UNL     1       4.955  -8.045  -0.679  0.00  0.00    +0.019 A 
ATOM     24  C   UNL     1       4.725  -9.415  -0.551  0.00  0.00    +0.014 A 
ATOM     25  C   UNL     1       5.617 -10.199   0.151  0.00  0.00    +0.039 A 
ATOM     26  C   UNL     1       6.734  -9.625   0.739  0.00  0.00    +0.123 A 
ATOM     27  C   UNL     1       6.963  -8.264   0.620  0.00  0.00    +0.039 A 
ATOM     28  C   UNL     1       6.081  -7.473  -0.086  0.00  0.00    +0.014 A 
ATOM     29  F   UNL     1       7.601 -10.396   1.431  0.00  0.00    -0.205 F 
ENDBRANCH  21  23
ENDBRANCH  17  18
ENDBRANCH   5  17
TORSDOF 4
