REMARK  Name = ZINC36267160
REMARK  4 active torsions:
REMARK  status: ('A' for Active; 'I' for Inactive)
REMARK    1  A    between atoms: C_1  and  C_2
REMARK    2  A    between atoms: C_7  and  S_8
REMARK    3  A    between atoms: S_8  and  N_11
REMARK    4  A    between atoms: C_17  and  N_23
REMARK                            x       y       z     vdW  Elec       q    Type
REMARK                         _______ _______ _______ _____ _____    ______ ____
ROOT
ATOM      1  N   UNL     1       1.616   1.125   2.613  0.00  0.00    -0.176 NA
ATOM      2  C   UNL     1       2.997   0.690   2.912  0.00  0.00    +0.113 C 
ATOM      3  C   UNL     1       3.735   1.997   3.253  0.00  0.00    +0.009 C 
ATOM      4  C   UNL     1       5.234   1.872   3.146  0.00  0.00    +0.003 C 
ATOM      5  C   UNL     1       5.678   1.609   1.707  0.00  0.00    -0.016 C 
ATOM      6  C   UNL     1       5.187   2.772   0.837  0.00  0.00    -0.075 C 
ATOM      7  C   UNL     1       3.661   2.768   0.845  0.00  0.00    -0.011 C 
ATOM      8  C   UNL     1       3.130   2.992   2.246  0.00  0.00    +0.008 C 
ATOM      9  C   UNL     1       1.645   2.539   2.207  0.00  0.00    +0.113 C 
ENDROOT
BRANCH   6  10
ATOM     10  N   UNL     1       5.676   2.602  -0.538  0.00  0.00    +0.380 N 
ATOM     11  H   UNL     1       5.328   1.732  -0.913  0.00  0.00    -0.090 HD
ATOM     12  H   UNL     1       5.351   3.368  -1.108  0.00  0.00    -0.090 HD
ATOM     13  H   UNL     1       6.685   2.587  -0.537  0.00  0.00    -0.090 HD
ENDBRANCH   6  10
BRANCH   1  14
ATOM     14  S   UNL     1       0.263   0.176   2.713  0.00  0.00    +0.061 S 
ATOM     15  O   UNL     1      -0.852   1.057   2.714  0.00  0.00    -0.153 OA
ATOM     16  O   UNL     1       0.497  -0.757   3.758  0.00  0.00    -0.153 OA
BRANCH  14  23
ATOM     17  C   UNL     1      -0.142   1.395  -0.025  0.00  0.00    +0.046 C 
ATOM     18  C   UNL     1      -0.019  -0.107   0.013  0.00  0.00    -0.024 A 
ATOM     19  C   UNL     1      -0.088  -0.836  -1.160  0.00  0.00    +0.006 A 
ATOM     20  C   UNL     1       0.025  -2.212  -1.126  0.00  0.00    +0.015 A 
ATOM     21  C   UNL     1       0.206  -2.861   0.082  0.00  0.00    +0.020 A 
ATOM     22  C   UNL     1       0.275  -2.132   1.255  0.00  0.00    +0.044 A 
ATOM     23  C   UNL     1       0.168  -0.754   1.219  0.00  0.00    +0.109 A 
ATOM     24 BR   UNL     1       0.360  -4.746   0.130  0.00  0.00    -0.050 Br
ENDBRANCH  14  23
ENDBRANCH   1  14
TORSDOF 3
