REMARK  Name = ZINC05034820
REMARK  7 active torsions:
REMARK  status: ('A' for Active; 'I' for Inactive)
REMARK    1  A    between atoms: C_1  and  N_2
REMARK    2  A    between atoms: N_2  and  C_3
REMARK    3  A    between atoms: N_2  and  C_4
REMARK    4  A    between atoms: C_7  and  C_10
REMARK    5  A    between atoms: N_11  and  N_12
REMARK    6  A    between atoms: C_13  and  C_15
REMARK    7  A    between atoms: C_15  and  C_17
REMARK                            x       y       z     vdW  Elec       q    Type
REMARK                         _______ _______ _______ _____ _____    ______ ____
ROOT
ATOM      1  C   UNL     1      -0.041  -2.892  -9.692  0.00  0.00    +0.244 C 
ATOM      2  O   UNL     1      -0.029  -4.111  -9.698  0.00  0.00    -0.282 OA
ENDROOT
BRANCH   1   3
ATOM      3  C   UNL     1      -0.057  -2.186 -10.900  0.00  0.00    +0.079 C 
ATOM      4  C   UNL     1      -0.059  -2.871 -12.102  0.00  0.00    +0.039 C 
ATOM      5  N   UNL     1      -0.052  -4.255 -12.150  0.00  0.00    -0.337 N 
ATOM      6  C   UNL     1       0.745  -4.864 -13.223  0.00  0.00    +0.036 C 
ATOM      7  C   UNL     1       2.228  -4.495 -13.040  0.00  0.00    +0.026 C 
ATOM      8  C   UNL     1       2.827  -5.704 -12.278  0.00  0.00    +0.002 C 
ATOM      9  C   UNL     1       2.088  -6.909 -12.911  0.00  0.00    +0.002 C 
ATOM     10  C   UNL     1       0.650  -6.394 -13.139  0.00  0.00    +0.026 C 
ATOM     11  C   UNL     1       0.248  -4.378 -14.579  0.00  0.00    +0.061 C 
ATOM     12  C   UNL     1       0.084  -2.882 -14.588  0.00  0.00    -0.036 A 
ATOM     13  C   UNL     1      -0.075  -2.162 -13.401  0.00  0.00    -0.001 A 
ATOM     14  C   UNL     1      -0.243  -0.777 -13.437  0.00  0.00    +0.010 A 
ATOM     15  C   UNL     1      -0.249  -0.119 -14.650  0.00  0.00    +0.001 A 
ATOM     16  C   UNL     1      -0.089  -0.833 -15.825  0.00  0.00    +0.000 A 
ATOM     17  C   UNL     1       0.084  -2.207 -15.794  0.00  0.00    +0.004 A 
ATOM     18  H   UNL     1      -0.545  -4.792 -11.511  0.00  0.00    +0.147 HD
ENDBRANCH   1   3
BRANCH   1  20
ATOM     19  N   UNL     1      -0.024  -2.835  -7.235  0.00  0.00    -0.200 N 
ATOM     20  C   UNL     1      -0.039  -2.155  -8.399  0.00  0.00    +0.303 C 
ATOM     21  O   UNL     1      -0.051  -0.940  -8.392  0.00  0.00    -0.265 OA
ATOM     22  H   UNL     1      -0.015  -3.805  -7.241  0.00  0.00    +0.178 HD
BRANCH  19  24
ATOM     23  C   UNL     1      -0.007  -2.797  -4.897  0.00  0.00    +0.138 C 
ATOM     24  N   UNL     1      -0.022  -2.142  -6.018  0.00  0.00    -0.187 NA
BRANCH  23  28
ATOM     25  C   UNL     1       0.000  -0.695  -1.209  0.00  0.00    +0.029 A 
ATOM     26  C   UNL     1       0.013  -2.086  -1.215  0.00  0.00    +0.024 A 
ATOM     27  C   UNL     1       0.011  -2.771  -2.409  0.00  0.00    +0.011 A 
ATOM     28  C   UNL     1      -0.005  -2.067  -3.617  0.00  0.00    -0.005 A 
ATOM     29  C   UNL     1      -0.018  -0.669  -3.607  0.00  0.00    +0.011 A 
ATOM     30  C   UNL     1      -0.021   0.009  -2.409  0.00  0.00    +0.024 A 
BRANCH  25  32
ATOM     31  C   UNL     1      -0.018   1.461   0.010  0.00  0.00    +0.129 C 
ATOM     32  N   UNL     1       0.002  -0.004   0.002  0.00  0.00    -0.336 N 
ATOM     33  C   UNL     1       0.024  -0.743   1.267  0.00  0.00    +0.129 C 
ENDBRANCH  25  32
ENDBRANCH  23  28
ENDBRANCH  19  24
ENDBRANCH   1  20
TORSDOF 5
