REMARK  Name = ZINC20380355
REMARK  2 active torsions:
REMARK  status: ('A' for Active; 'I' for Inactive)
REMARK    1  A    between atoms: C_4  and  O_24
REMARK    2  A    between atoms: C_5  and  C_7
REMARK                            x       y       z     vdW  Elec       q    Type
REMARK                         _______ _______ _______ _____ _____    ______ ____
ROOT
ATOM      1  C   UNL     1       5.676   1.518   1.128  0.00  0.00    +0.146 A 
ATOM      2  N   UNL     1       5.826   2.874   1.171  0.00  0.00    -0.333 N 
ATOM      3  H   UNL     1       6.782   3.312   1.496  0.00  0.00    +0.168 HD
ATOM      4  C   UNL     1       4.801   3.676   0.813  0.00  0.00    +0.094 A 
ATOM      5  S   UNL     1       4.970   5.379   0.861  0.00  0.00    -0.032 S 
ATOM      6  C   UNL     1       3.596   3.089   0.402  0.00  0.00    +0.050 A 
ATOM      7  C   UNL     1       3.495   1.713   0.376  0.00  0.00    +0.228 A 
ATOM      8  N   UNL     1       4.546   0.967   0.743  0.00  0.00    -0.194 NA
ATOM      9  O   UNL     1       2.355   1.107  -0.015  0.00  0.00    -0.437 OA
ATOM     10  C   UNL     1       1.183   1.786   0.000  0.00  0.00    +0.134 A 
ATOM     11  C   UNL     1      -0.013   1.076   0.008  0.00  0.00    +0.048 A 
ATOM     12  C   UNL     1      -1.218   1.748   0.017  0.00  0.00    +0.023 A 
ATOM     13  C   UNL     1      -1.238   3.132   0.031  0.00  0.00    +0.041 A 
ATOM     14  C   UNL     1      -0.051   3.841   0.023  0.00  0.00    +0.027 A 
ATOM     15  C   UNL     1       1.159   3.171   0.008  0.00  0.00    +0.001 A 
ATOM     16  C   UNL     1       2.441   3.961  -0.001  0.00  0.00    +0.082 C 
ATOM     17 CL   UNL     1      -2.754   3.978   0.050  0.00  0.00    -0.084 Cl
ENDROOT
BRANCH   1  22
ATOM     18  C   UNL     1       9.064   0.408   2.303  0.00  0.00    +0.001 A 
ATOM     19  C   UNL     1       8.927  -0.970   2.266  0.00  0.00    +0.004 A 
ATOM     20  C   UNL     1       7.738  -1.543   1.861  0.00  0.00    +0.046 A 
ATOM     21  C   UNL     1       6.669  -0.740   1.492  0.00  0.00    +0.127 A 
ATOM     22  C   UNL     1       6.805   0.654   1.523  0.00  0.00    +0.059 A 
ATOM     23  C   UNL     1       8.013   1.221   1.935  0.00  0.00    +0.015 A 
BRANCH  21  24
ATOM     24  O   UNL     1       5.498  -1.302   1.098  0.00  0.00    -0.506 OA
ATOM     25  H   UNL     1       4.652  -0.663   0.806  0.00  0.00    +0.292 HD
ENDBRANCH  21  24
ENDBRANCH   1  22
TORSDOF 2
