REMARK  Name = ZINC01893023
REMARK  10 active torsions:
REMARK  status: ('A' for Active; 'I' for Inactive)
REMARK    1  A    between atoms: C_1  and  C_2
REMARK    2  A    between atoms: C_9  and  N_14
REMARK    3  A    between atoms: C_10  and  C_11
REMARK    4  A    between atoms: C_15  and  C_17
REMARK    5  A    between atoms: C_17  and  C_18
REMARK    6  A    between atoms: C_18  and  C_19
REMARK    7  A    between atoms: C_19  and  O_20
REMARK    8  A    between atoms: O_20  and  C_21
REMARK    9  A    between atoms: C_26  and  O_27
REMARK   10  A    between atoms: O_27  and  C_28
REMARK                            x       y       z     vdW  Elec       q    Type
REMARK                         _______ _______ _______ _____ _____    ______ ____
ROOT
ATOM      1  N   UNL     1       4.609   0.894   4.420  0.00  0.00    -0.279 N 
ATOM      2  C   UNL     1       5.894   1.103   4.068  0.00  0.00    +0.218 C 
ATOM      3  O   UNL     1       6.168   1.399   2.924  0.00  0.00    -0.275 OA
ATOM      4  H   UNL     1       4.390   0.657   5.334  0.00  0.00    +0.155 HD
ENDROOT
BRANCH   1  12
ATOM      5  C   UNL     1      -0.758   1.595  -1.227  0.00  0.00    +0.008 C 
ATOM      6  C   UNL     1      -0.013   1.086   0.008  0.00  0.00    -0.009 C 
ATOM      7  C   UNL     1      -0.714   1.583   1.276  0.00  0.00    +0.008 C 
ATOM      8  C   UNL     1      -0.129   0.881   2.503  0.00  0.00    +0.037 C 
ATOM      9  C   UNL     1       1.387   1.034   2.479  0.00  0.00    -0.023 A 
ATOM     10  C   UNL     1       2.035   1.365   1.342  0.00  0.00    -0.004 A 
ATOM     11  S   UNL     1       3.745   1.426   1.797  0.00  0.00    -0.077 S 
ATOM     12  C   UNL     1       3.602   1.017   3.475  0.00  0.00    +0.084 A 
ATOM     13  C   UNL     1       2.236   0.844   3.643  0.00  0.00    +0.068 A 
ATOM     14  C   UNL     1       1.427   1.620  -0.003  0.00  0.00    +0.046 C 
BRANCH  13  15
ATOM     15  C   UNL     1       1.670   0.482   4.946  0.00  0.00    +0.244 C 
ATOM     16  O   UNL     1       1.336   1.354   5.727  0.00  0.00    -0.270 OA
ATOM     17  N   UNL     1       1.521  -0.815   5.280  0.00  0.00    -0.325 N 
ATOM     18  H   UNL     1       1.787  -1.509   4.657  0.00  0.00    +0.145 HD
ATOM     19  H   UNL     1       1.147  -1.054   6.142  0.00  0.00    +0.145 HD
ENDBRANCH  13  15
ENDBRANCH   1  12
BRANCH   2  20
ATOM     20  C   UNL     1       6.988   0.969   5.095  0.00  0.00    +0.099 C 
BRANCH  20  21
ATOM     21  C   UNL     1       8.340   1.256   4.440  0.00  0.00    +0.050 C 
BRANCH  21  22
ATOM     22  C   UNL     1       9.451   1.120   5.482  0.00  0.00    +0.229 C 
BRANCH  22  23
ATOM     23  O   UNL     1      10.715   1.388   4.870  0.00  0.00    -0.488 OA
BRANCH  23  24
ATOM     24  C   UNL     1      11.815   1.310   5.666  0.00  0.00    +0.162 A 
ATOM     25  C   UNL     1      11.681   0.987   7.006  0.00  0.00    +0.049 A 
ATOM     26  C   UNL     1      12.802   0.902   7.812  0.00  0.00    +0.004 A 
ATOM     27  C   UNL     1      14.056   1.149   7.285  0.00  0.00    +0.004 A 
ATOM     28  C   UNL     1      14.196   1.477   5.950  0.00  0.00    +0.049 A 
ATOM     29  C   UNL     1      13.078   1.558   5.136  0.00  0.00    +0.161 A 
BRANCH  29  30
ATOM     30  O   UNL     1      13.213   1.881   3.822  0.00  0.00    -0.491 OA
ATOM     31  C   UNL     1      14.540   2.123   3.347  0.00  0.00    +0.277 C 
ENDBRANCH  29  30
ENDBRANCH  23  24
ENDBRANCH  22  23
ENDBRANCH  21  22
ENDBRANCH  20  21
ENDBRANCH   2  20
TORSDOF 8
