REMARK  Name = ZINC64041875
REMARK  3 active torsions:
REMARK  status: ('A' for Active; 'I' for Inactive)
REMARK    1  A    between atoms: C_8  and  C_22
REMARK    2  A    between atoms: C_12  and  C_17
REMARK    3  A    between atoms: C_25  and  O_28
REMARK                            x       y       z     vdW  Elec       q    Type
REMARK                         _______ _______ _______ _____ _____    ______ ____
ROOT
ATOM      1  C   UNL     1      -0.826   0.557  -0.243  0.00  0.00    +0.001 A 
ATOM      2  C   UNL     1       0.192   1.511  -0.109  0.00  0.00    +0.002 A 
ATOM      3  C   UNL     1       1.496   1.175  -0.013  0.00  0.00    +0.026 A 
ATOM      4  C   UNL     1       1.893  -0.188  -0.045  0.00  0.00    +0.043 A 
ATOM      5  N   UNL     1       3.079  -0.754   0.005  0.00  0.00    -0.376 N 
ATOM      6  C   UNL     1       2.900  -2.202   0.028  0.00  0.00    +0.128 C 
ATOM      7  C   UNL     1       3.655  -2.907  -1.102  0.00  0.00    +0.111 C 
ATOM      8  N   UNL     1       3.185  -4.300  -1.174  0.00  0.00    -0.307 NA
ATOM      9  C   UNL     1       1.788  -4.417  -1.602  0.00  0.00    +0.094 C 
ATOM     10  C   UNL     1       0.858  -3.794  -0.544  0.00  0.00    +0.068 C 
ATOM     11  C   UNL     1       1.415  -2.426  -0.217  0.00  0.00    -0.028 C 
ATOM     12  C   UNL     1       0.836  -1.220  -0.195  0.00  0.00    -0.000 A 
ATOM     13  C   UNL     1      -0.558  -0.767  -0.288  0.00  0.00    +0.010 A 
ATOM     14  H   UNL     1       3.790  -4.856  -1.760  0.00  0.00    +0.123 HD
ATOM     15  H   UNL     1       3.929  -0.288   0.024  0.00  0.00    +0.160 HD
ENDROOT
BRANCH   7  16
ATOM     16  C   UNL     1       3.381  -2.209  -2.409  0.00  0.00    -0.028 A 
ATOM     17  C   UNL     1       2.078  -1.981  -2.810  0.00  0.00    +0.009 A 
ATOM     18  C   UNL     1       1.825  -1.342  -4.008  0.00  0.00    +0.046 A 
ATOM     19  C   UNL     1       2.879  -0.928  -4.809  0.00  0.00    +0.117 A 
ATOM     20  C   UNL     1       4.186  -1.158  -4.404  0.00  0.00    +0.046 A 
ATOM     21  C   UNL     1       4.434  -1.793  -3.203  0.00  0.00    +0.009 A 
BRANCH  19  22
ATOM     22  O   UNL     1       2.632  -0.300  -5.988  0.00  0.00    -0.507 OA
ATOM     23  H   UNL     1       2.570   0.662  -5.916  0.00  0.00    +0.292 HD
ENDBRANCH  19  22
ENDBRANCH   7  16
BRANCH  10  24
ATOM     24  C   UNL     1      -0.541  -3.672  -1.091  0.00  0.00    -0.002 A 
ATOM     25  C   UNL     1      -1.690  -4.219  -0.625  0.00  0.00    +0.012 A 
ATOM     26  C   UNL     1      -2.872  -3.968  -1.296  0.00  0.00    +0.008 A 
ATOM     27  C   UNL     1      -2.847  -3.181  -2.400  0.00  0.00    +0.045 A 
ATOM     28  S   UNL     1      -1.115  -2.763  -2.516  0.00  0.00    -0.101 S 
ENDBRANCH  10  24
TORSDOF 3
