REMARK  Name = ZINC62671058
REMARK  5 active torsions:
REMARK  status: ('A' for Active; 'I' for Inactive)
REMARK    1  A    between atoms: C_1  and  C_2
REMARK    2  A    between atoms: C_3  and  C_17
REMARK    3  A    between atoms: C_4  and  N_14
REMARK    4  A    between atoms: N_14  and  C_15
REMARK    5  A    between atoms: N_14  and  C_16
REMARK                            x       y       z     vdW  Elec       q    Type
REMARK                         _______ _______ _______ _____ _____    ______ ____
ROOT
ATOM      1  C   UNL     1      -0.018   1.503   0.010  0.00  0.00    +0.067 C 
ATOM      2  C   UNL     1       0.002  -0.004   0.002  0.00  0.00    +0.058 A 
ATOM      3  C   UNL     1       0.005  -0.682  -1.228  0.00  0.00    +0.094 A 
ATOM      4  C   UNL     1       0.024  -2.085  -1.238  0.00  0.00    +0.059 A 
ATOM      5  C   UNL     1       0.040  -2.753   0.009  0.00  0.00    +0.041 A 
ATOM      6  C   UNL     1       0.035  -1.988   1.199  0.00  0.00    +0.076 A 
ATOM      7  N   UNL     1       0.022  -0.648   1.141  0.00  0.00    -0.250 NA
ATOM      8  C   UNL     1       0.050  -2.651   2.436  0.00  0.00    +0.048 A 
ATOM      9  C   UNL     1       0.069  -4.015   2.474  0.00  0.00    +0.044 A 
ATOM     10  C   UNL     1       0.073  -4.766   1.301  0.00  0.00    +0.040 A 
ATOM     11  C   UNL     1       0.059  -4.154   0.082  0.00  0.00    +0.053 A 
ATOM     12 CL   UNL     1       0.065  -5.104  -1.372  0.00  0.00    -0.083 Cl
ATOM     13 CL   UNL     1       0.087  -4.827   4.008  0.00  0.00    -0.083 Cl
ENDROOT
BRANCH   4  14
ATOM     14  N   UNL     1       0.028  -2.788  -2.424  0.00  0.00    -0.334 N 
ATOM     15  C   UNL     1       1.298  -3.145  -3.061  0.00  0.00    +0.129 C 
ATOM     16  C   UNL     1      -1.239  -3.179  -3.047  0.00  0.00    +0.129 C 
ENDBRANCH   4  14
BRANCH   3  17
ATOM     17  C   UNL     1      -0.011   0.051  -2.458  0.00  0.00    +0.103 C 
ATOM     18  N   UNL     1      -0.024   0.632  -3.434  0.00  0.00    -0.191 NA
ENDBRANCH   3  17
TORSDOF 2
