REMARK  Name = ZINC42630499
REMARK  4 active torsions:
REMARK  status: ('A' for Active; 'I' for Inactive)
REMARK    1  A    between atoms: C_1  and  C_2
REMARK    2  A    between atoms: C_9  and  C_11
REMARK    3  A    between atoms: N_16  and  C_19
REMARK    4  A    between atoms: C_22  and  O_25
REMARK                            x       y       z     vdW  Elec       q    Type
REMARK                         _______ _______ _______ _____ _____    ______ ____
ROOT
ATOM      1  C   UNL     1       1.615  -5.268   2.976  0.00  0.00    +0.253 C 
ATOM      2  O   UNL     1       1.997  -4.994   4.099  0.00  0.00    -0.269 OA
ATOM      3  N   UNL     1       1.603  -6.551   2.563  0.00  0.00    -0.294 N 
ATOM      4  C   UNL     1       1.379  -6.879   1.148  0.00  0.00    +0.127 C 
ATOM      5  C   UNL     1       2.547  -7.742   0.654  0.00  0.00    +0.124 C 
ATOM      6  N   UNL     1       2.757  -8.838   1.610  0.00  0.00    -0.327 N 
ATOM      7  C   UNL     1       2.981  -8.511   3.025  0.00  0.00    +0.124 C 
ATOM      8  C   UNL     1       1.819  -7.647   3.518  0.00  0.00    +0.127 C 
ENDROOT
BRANCH   1  16
ATOM      9  C   UNL     1      -0.127   1.532   0.146  0.00  0.00    +0.008 C 
ATOM     10  C   UNL     1      -0.257   0.010   0.241  0.00  0.00    -0.009 C 
ATOM     11  C   UNL     1       0.010  -0.611  -1.133  0.00  0.00    +0.009 C 
ATOM     12  C   UNL     1      -0.386  -2.093  -1.090  0.00  0.00    +0.043 C 
ATOM     13  C   UNL     1       0.216  -2.710   0.138  0.00  0.00    -0.006 A 
ATOM     14  C   UNL     1       0.738  -2.050   1.211  0.00  0.00    -0.036 A 
ATOM     15  C   UNL     1       1.244  -2.832   2.238  0.00  0.00    +0.024 A 
ATOM     16  C   UNL     1       1.169  -4.203   2.073  0.00  0.00    +0.075 A 
ATOM     17  S   UNL     1       0.387  -4.336   0.476  0.00  0.00    -0.088 S 
ATOM     18  C   UNL     1       0.754  -0.524   1.256  0.00  0.00    +0.039 C 
ENDBRANCH   1  16
BRANCH   6  19
ATOM     19  C   UNL     1       2.745 -10.170   1.181  0.00  0.00    +0.030 A 
ATOM     20  C   UNL     1       2.801 -11.200   2.111  0.00  0.00    +0.027 A 
ATOM     21  C   UNL     1       2.788 -12.514   1.686  0.00  0.00    +0.047 A 
ATOM     22  C   UNL     1       2.719 -12.805   0.332  0.00  0.00    +0.117 A 
ATOM     23  C   UNL     1       2.662 -11.777  -0.598  0.00  0.00    +0.047 A 
ATOM     24  C   UNL     1       2.670 -10.462  -0.174  0.00  0.00    +0.027 A 
BRANCH  22  25
ATOM     25  O   UNL     1       2.706 -14.100  -0.086  0.00  0.00    -0.507 OA
ATOM     26  H   UNL     1       1.820 -14.480  -0.159  0.00  0.00    +0.292 HD
ENDBRANCH  22  25
ENDBRANCH   6  19
TORSDOF 3
