REMARK  Name = ZINC19581641
REMARK  6 active torsions:
REMARK  status: ('A' for Active; 'I' for Inactive)
REMARK    1  A    between atoms: C_1  and  C_2
REMARK    2  A    between atoms: C_3  and  C_12
REMARK    3  A    between atoms: C_12  and  C_14
REMARK    4  A    between atoms: C_12  and  O_33
REMARK    5  A    between atoms: C_14  and  N_15
REMARK    6  A    between atoms: C_22  and  O_32
REMARK                            x       y       z     vdW  Elec       q    Type
REMARK                         _______ _______ _______ _____ _____    ______ ____
ROOT
ATOM      1  N   UNL     1       2.075   1.689  -1.325  0.00  0.00    +0.382 N 
ATOM      2  C   UNL     1       1.353   2.348  -0.229  0.00  0.00    -0.075 C 
ATOM      3  C   UNL     1      -0.139   2.019  -0.329  0.00  0.00    +0.029 C 
ATOM      4  C   UNL     1      -0.329   0.503  -0.258  0.00  0.00    +0.110 C 
ATOM      5  C   UNL     1       0.474  -0.163  -1.376  0.00  0.00    +0.029 C 
ATOM      6  C   UNL     1       1.948   0.229  -1.243  0.00  0.00    -0.075 C 
ATOM      7  C   UNL     1      -1.815   0.166  -0.424  0.00  0.00    +0.084 C 
ATOM      8  C   UNL     1      -2.605   0.928   0.643  0.00  0.00    +0.152 C 
ATOM      9  C   UNL     1      -1.953   0.739   1.989  0.00  0.00    +0.024 A 
ATOM     10  C   UNL     1      -2.688   1.014   3.130  0.00  0.00    +0.029 A 
ATOM     11  C   UNL     1      -2.121   0.857   4.380  0.00  0.00    +0.042 A 
ATOM     12  C   UNL     1      -0.811   0.425   4.495  0.00  0.00    +0.023 A 
ATOM     13  C   UNL     1      -0.074   0.150   3.361  0.00  0.00    +0.047 A 
ATOM     14  C   UNL     1      -0.644   0.304   2.101  0.00  0.00    +0.127 A 
ATOM     15  O   UNL     1       0.112   0.018   1.009  0.00  0.00    -0.485 OA
ATOM     16 CL   UNL     1      -3.050   1.200   5.805  0.00  0.00    -0.084 Cl
ATOM     17  H   UNL     1       1.617   2.014  -2.271  0.00  0.00    -0.082 HD
ENDROOT
BRANCH   8  18
ATOM     18  O   UNL     1      -3.944   0.431   0.689  0.00  0.00    -0.387 OA
ATOM     19  H   UNL     1      -4.665   0.860   1.400  0.00  0.00    +0.210 HD
ENDBRANCH   8  18
BRANCH   1  20
ATOM     20  C   UNL     1       3.487   2.094  -1.343  0.00  0.00    -0.042 C 
BRANCH  20  21
ATOM     21  C   UNL     1       4.079   1.820  -2.727  0.00  0.00    +0.130 C 
BRANCH  21  24
ATOM     22  C   UNL     1       6.453  -0.180  -2.713  0.00  0.00    +0.063 C 
ATOM     23  C   UNL     1       6.575   1.322  -2.721  0.00  0.00    +0.019 A 
ATOM     24  C   UNL     1       5.543   2.179  -2.727  0.00  0.00    +0.007 A 
ATOM     25  C   UNL     1       6.108   3.531  -2.741  0.00  0.00    +0.005 A 
ATOM     26  C   UNL     1       5.557   4.814  -2.743  0.00  0.00    +0.010 A 
ATOM     27  C   UNL     1       6.379   5.905  -2.749  0.00  0.00    +0.001 A 
ATOM     28  C   UNL     1       7.758   5.749  -2.747  0.00  0.00    +0.002 A 
ATOM     29  C   UNL     1       8.323   4.493  -2.738  0.00  0.00    +0.026 A 
ATOM     30  C   UNL     1       7.505   3.367  -2.732  0.00  0.00    +0.047 A 
ATOM     31  N   UNL     1       7.756   2.014  -2.724  0.00  0.00    -0.358 N 
ATOM     32  H   UNL     1       8.712   1.470  -2.720  0.00  0.00    +0.166 HD
ENDBRANCH  21  24
BRANCH  21  33
ATOM     33  O   UNL     1       3.394   2.609  -3.702  0.00  0.00    -0.389 OA
ATOM     34  H   UNL     1       2.311   2.485  -3.847  0.00  0.00    +0.210 HD
ENDBRANCH  21  33
ENDBRANCH  20  21
ENDBRANCH   1  20
TORSDOF 5
