REMARK  Name = ZINC22569725
REMARK  9 active torsions:
REMARK  status: ('A' for Active; 'I' for Inactive)
REMARK    1  A    between atoms: C_1  and  C_2
REMARK    2  A    between atoms: C_2  and  C_3
REMARK    3  A    between atoms: C_2  and  C_4
REMARK    4  A    between atoms: C_4  and  C_6
REMARK    5  A    between atoms: C_4  and  O_12
REMARK    6  A    between atoms: O_12  and  C_13
REMARK    7  A    between atoms: C_13  and  C_15
REMARK    8  A    between atoms: C_19  and  S_21
REMARK    9  A    between atoms: S_21  and  N_24
REMARK                            x       y       z     vdW  Elec       q    Type
REMARK                         _______ _______ _______ _____ _____    ______ ____
ROOT
ATOM      1  C   UNL     1       3.656   0.336  -1.101  0.00  0.00    +0.061 A 
ATOM      2  C   UNL     1       4.351   1.226  -0.280  0.00  0.00    +0.016 A 
ATOM      3  C   UNL     1       5.729   1.261  -0.315  0.00  0.00    +0.023 A 
ATOM      4  C   UNL     1       6.424   0.423  -1.172  0.00  0.00    +0.067 A 
ATOM      5  C   UNL     1       5.740  -0.458  -1.993  0.00  0.00    +0.124 A 
ATOM      6  C   UNL     1       4.362  -0.507  -1.962  0.00  0.00    +0.045 A 
ATOM      7 CL   UNL     1       8.158   0.478  -1.217  0.00  0.00    -0.082 Cl
ENDROOT
BRANCH   5   8
ATOM      8  S   UNL     1       6.633  -1.520  -3.079  0.00  0.00    +0.062 S 
ATOM      9  O   UNL     1       7.652  -2.133  -2.301  0.00  0.00    -0.153 OA
ATOM     10  O   UNL     1       5.665  -2.274  -3.797  0.00  0.00    -0.153 OA
BRANCH   8  11
ATOM     11  N   UNL     1       7.399  -0.556  -4.187  0.00  0.00    -0.177 NA
ATOM     12  C   UNL     1       6.710  -0.230  -5.415  0.00  0.00    +0.109 C 
ATOM     13  C   UNL     1       7.009  -1.299  -6.487  0.00  0.00    +0.017 C 
ATOM     14  C   UNL     1       8.400  -1.181  -6.949  0.00  0.00    +0.001 C 
ATOM     15  C   UNL     1       9.446  -1.426  -5.866  0.00  0.00    +0.001 C 
ATOM     16  C   UNL     1       9.689  -0.145  -5.107  0.00  0.00    +0.017 C 
ATOM     17  C   UNL     1       8.759  -0.071  -3.882  0.00  0.00    +0.109 C 
ENDBRANCH   8  11
ENDBRANCH   5   8
BRANCH   1  18
ATOM     18  C   UNL     1       2.181   0.289  -1.063  0.00  0.00    +0.340 C 
ATOM     19  O   UNL     1       1.579  -0.484  -1.782  0.00  0.00    -0.245 OA
BRANCH  18  20
ATOM     20  O   UNL     1       1.502   1.102  -0.231  0.00  0.00    -0.448 OA
BRANCH  20  21
ATOM     21  C   UNL     1       0.054   1.002  -0.246  0.00  0.00    +0.265 C 
BRANCH  21  22
ATOM     22  C   UNL     1      -0.489   1.349   1.116  0.00  0.00    +0.261 C 
ATOM     23  O   UNL     1      -1.655   1.141   1.375  0.00  0.00    -0.271 OA
ATOM     24  N   UNL     1       0.323   1.890   2.046  0.00  0.00    -0.237 N 
ATOM     25  C   UNL     1      -0.136   2.109   3.295  0.00  0.00    +0.303 C 
ATOM     26  O   UNL     1      -1.280   1.819   3.582  0.00  0.00    -0.253 OA
ATOM     27  N   UNL     1       0.675   2.651   4.225  0.00  0.00    -0.313 N 
ATOM     28  H   UNL     1       1.359   2.154   1.787  0.00  0.00    +0.159 HD
ATOM     29  H   UNL     1       0.301   2.829   5.244  0.00  0.00    +0.146 HD
ATOM     30  H   UNL     1       1.711   2.914   3.965  0.00  0.00    +0.146 HD
ENDBRANCH  21  22
BRANCH  21  32
ATOM     31  C   UNL     1       0.051   1.631  -2.664  0.00  0.00    +0.011 C 
ATOM     32  C   UNL     1      -0.513   1.973  -1.284  0.00  0.00    +0.033 C 
ATOM     33  C   UNL     1      -2.039   1.855  -1.312  0.00  0.00    +0.011 C 
ENDBRANCH  21  32
ENDBRANCH  20  21
ENDBRANCH  18  20
ENDBRANCH   1  18
TORSDOF 7
