REMARK  Name = ZINC14021018
REMARK  7 active torsions:
REMARK  status: ('A' for Active; 'I' for Inactive)
REMARK    1  A    between atoms: C_1  and  O_2
REMARK    2  A    between atoms: O_2  and  C_3
REMARK    3  A    between atoms: C_6  and  S_9
REMARK    4  A    between atoms: S_9  and  N_12
REMARK    5  A    between atoms: C_16  and  C_19
REMARK    6  A    between atoms: N_21  and  C_22
REMARK    7  A    between atoms: C_23  and  C_31
REMARK                            x       y       z     vdW  Elec       q    Type
REMARK                         _______ _______ _______ _____ _____    ______ ____
ROOT
ATOM      1  N   UNL     1       4.149  -5.841   6.943  0.00  0.00    -0.176 NA
ATOM      2  C   UNL     1       2.919  -6.346   7.567  0.00  0.00    +0.109 C 
ATOM      3  C   UNL     1       1.837  -6.475   6.490  0.00  0.00    +0.018 C 
ATOM      4  C   UNL     1       1.673  -5.133   5.774  0.00  0.00    +0.015 C 
ATOM      5  C   UNL     1       2.990  -4.752   5.093  0.00  0.00    +0.091 C 
ATOM      6  C   UNL     1       4.085  -4.604   6.154  0.00  0.00    +0.122 C 
ENDROOT
BRANCH   5   7
ATOM      7  C   UNL     1       2.819  -3.446   4.361  0.00  0.00    +0.222 C 
ATOM      8  O   UNL     1       3.503  -2.490   4.657  0.00  0.00    -0.275 OA
ATOM      9  N   UNL     1       1.904  -3.341   3.376  0.00  0.00    -0.279 N 
ATOM     10  H   UNL     1       1.356  -4.105   3.139  0.00  0.00    +0.155 HD
BRANCH   9  11
ATOM     11  C   UNL     1       1.746  -2.138   2.702  0.00  0.00    +0.090 A 
ATOM     12  C   UNL     1       0.868  -1.837   1.672  0.00  0.00    +0.084 A 
ATOM     13  C   UNL     1       0.902  -0.488   1.132  0.00  0.00    -0.018 A 
ATOM     14  C   UNL     1       1.804   0.338   1.706  0.00  0.00    -0.004 A 
ATOM     15  S   UNL     1       2.599  -0.649   2.943  0.00  0.00    -0.077 S 
ATOM     16  C   UNL     1       2.064   1.772   1.359  0.00  0.00    +0.043 C 
ATOM     17  C   UNL     1       1.414   2.066  -0.000  0.00  0.00    +0.005 C 
ATOM     18  C   UNL     1      -0.019   1.526   0.010  0.00  0.00    +0.005 C 
ATOM     19  C   UNL     1       0.002  -0.004   0.002  0.00  0.00    +0.037 C 
BRANCH  12  20
ATOM     20  C   UNL     1      -0.039  -2.818   1.159  0.00  0.00    +0.102 C 
ATOM     21  N   UNL     1      -0.759  -3.598   0.752  0.00  0.00    -0.191 NA
ENDBRANCH  12  20
ENDBRANCH   9  11
ENDBRANCH   5   7
BRANCH   1  22
ATOM     22  S   UNL     1       5.582  -6.651   7.127  0.00  0.00    +0.061 S 
ATOM     23  O   UNL     1       5.251  -8.002   7.415  0.00  0.00    -0.153 OA
ATOM     24  O   UNL     1       6.400  -6.286   6.023  0.00  0.00    -0.153 OA
BRANCH  22  28
ATOM     25  C   UNL     1       7.592  -4.993  10.831  0.00  0.00    +0.120 A 
ATOM     26  C   UNL     1       6.730  -6.075  10.933  0.00  0.00    +0.047 A 
ATOM     27  C   UNL     1       6.118  -6.579   9.802  0.00  0.00    +0.032 A 
ATOM     28  C   UNL     1       6.364  -6.006   8.568  0.00  0.00    +0.106 A 
ATOM     29  C   UNL     1       7.228  -4.931   8.462  0.00  0.00    +0.032 A 
ATOM     30  C   UNL     1       7.838  -4.420   9.591  0.00  0.00    +0.047 A 
BRANCH  25  32
ATOM     31  C   UNL     1       9.070  -3.380  11.762  0.00  0.00    +0.277 C 
ATOM     32  O   UNL     1       8.195  -4.495  11.942  0.00  0.00    -0.495 OA
ENDBRANCH  25  32
ENDBRANCH  22  28
ENDBRANCH   1  22
TORSDOF 6
