REMARK  Name = ZINC63490508
REMARK  10 active torsions:
REMARK  status: ('A' for Active; 'I' for Inactive)
REMARK    1  A    between atoms: C_1  and  C_2
REMARK    2  A    between atoms: C_2  and  N_3
REMARK    3  A    between atoms: N_3  and  C_4
REMARK    4  A    between atoms: N_3  and  C_26
REMARK    5  A    between atoms: C_4  and  C_5
REMARK    6  A    between atoms: C_5  and  C_6
REMARK    7  A    between atoms: C_6  and  N_7
REMARK    8  A    between atoms: C_8  and  C_10
REMARK    9  A    between atoms: C_17  and  C_24
REMARK   10  A    between atoms: C_26  and  C_27
REMARK                            x       y       z     vdW  Elec       q    Type
REMARK                         _______ _______ _______ _____ _____    ______ ____
ROOT
ATOM      1  N   UNL     1      -2.526   3.469  -2.483  0.00  0.00    -0.314 N 
ATOM      2  C   UNL     1      -3.040   4.132  -3.538  0.00  0.00    +0.230 C 
ATOM      3  O   UNL     1      -3.556   3.517  -4.448  0.00  0.00    -0.274 OA
ATOM      4  H   UNL     1      -2.113   3.960  -1.756  0.00  0.00    +0.149 HD
ENDROOT
BRANCH   2   5
ATOM      5  C   UNL     1      -2.972   5.636  -3.588  0.00  0.00    +0.160 C 
ATOM      6  C   UNL     1      -4.164   6.208  -4.322  0.00  0.00    +0.011 C 
ATOM      7  C   UNL     1      -3.874   6.901  -5.440  0.00  0.00    +0.049 C 
ATOM      8  C   UNL     1      -2.456   7.019  -5.813  0.00  0.00    +0.030 C 
ATOM      9  C   UNL     1      -2.096   7.730  -6.970  0.00  0.00    +0.011 A 
ATOM     10  C   UNL     1      -0.751   7.859  -7.350  0.00  0.00    +0.014 A 
ATOM     11  C   UNL     1      -0.428   8.554  -8.477  0.00  0.00    -0.050 A 
ATOM     12  C   UNL     1      -1.418   9.139  -9.259  0.00  0.00    +0.005 A 
ATOM     13  C   UNL     1      -2.734   9.033  -8.919  0.00  0.00    +0.024 A 
ATOM     14  C   UNL     1      -3.108   8.326  -7.765  0.00  0.00    +0.042 A 
ATOM     15  N   UNL     1      -4.400   8.222  -7.431  0.00  0.00    -0.281 N 
ATOM     16  C   UNL     1      -4.836   7.577  -6.367  0.00  0.00    +0.249 C 
ATOM     17  O   UNL     1      -6.035   7.530  -6.136  0.00  0.00    -0.270 OA
ATOM     18  C   UNL     1       1.018   8.689  -8.881  0.00  0.00    +0.044 C 
ATOM     19  S   UNL     1      -1.582   6.198  -4.647  0.00  0.00    -0.107 S 
ATOM     20  H   UNL     1      -5.056   8.646  -8.007  0.00  0.00    +0.155 HD
ENDBRANCH   2   5
BRANCH   1  21
ATOM     21  C   UNL     1      -2.592   2.006  -2.435  0.00  0.00    +0.102 C 
BRANCH  21  22
ATOM     22  C   UNL     1      -1.943   1.509  -1.141  0.00  0.00    +0.000 C 
BRANCH  22  23
ATOM     23  C   UNL     1      -2.011  -0.019  -1.091  0.00  0.00    -0.077 C 
BRANCH  23  24
ATOM     24  N   UNL     1      -1.274  -0.503   0.084  0.00  0.00    +0.382 N 
ATOM     25  H   UNL     1      -0.336  -0.133   0.068  0.00  0.00    -0.081 HD
BRANCH  24  27
ATOM     26  C   UNL     1      -0.391  -2.430  -1.143  0.00  0.00    -0.017 C 
ATOM     27  C   UNL     1      -1.221  -1.971   0.057  0.00  0.00    -0.082 C 
ENDBRANCH  24  27
BRANCH  24  28
ATOM     28  C   UNL     1      -1.956  -0.060   1.307  0.00  0.00    -0.043 C 
BRANCH  28  29
ATOM     29  C   UNL     1      -1.136  -0.451   2.509  0.00  0.00    -0.064 A 
ATOM     30  C   UNL     1      -1.336  -1.678   3.113  0.00  0.00    +0.002 A 
ATOM     31  C   UNL     1      -0.584  -2.037   4.216  0.00  0.00    +0.000 A 
ATOM     32  C   UNL     1       0.369  -1.168   4.714  0.00  0.00    +0.000 A 
ATOM     33  C   UNL     1       0.570   0.059   4.110  0.00  0.00    +0.000 A 
ATOM     34  C   UNL     1      -0.179   0.416   3.005  0.00  0.00    +0.002 A 
ENDBRANCH  28  29
ENDBRANCH  24  28
ENDBRANCH  23  24
ENDBRANCH  22  23
ENDBRANCH  21  22
ENDBRANCH   1  21
TORSDOF 8
