REMARK  Name = ZINC37318283
REMARK  6 active torsions:
REMARK  status: ('A' for Active; 'I' for Inactive)
REMARK    1  A    between atoms: C_1  and  N_2
REMARK    2  A    between atoms: N_2  and  C_3
REMARK    3  A    between atoms: N_2  and  C_4
REMARK    4  A    between atoms: C_9  and  N_10
REMARK    5  A    between atoms: N_10  and  C_11
REMARK    6  A    between atoms: C_11  and  C_12
REMARK                            x       y       z     vdW  Elec       q    Type
REMARK                         _______ _______ _______ _____ _____    ______ ____
ROOT
ATOM      1  C   UNL     1       0.000  -0.698  -1.215  0.00  0.00    +0.050 A 
ATOM      2  C   UNL     1       1.199  -1.031  -1.827  0.00  0.00    +0.026 A 
ATOM      3  C   UNL     1       1.195  -1.716  -3.028  0.00  0.00    +0.017 A 
ATOM      4  C   UNL     1      -0.003  -2.071  -3.622  0.00  0.00    +0.020 A 
ATOM      5  C   UNL     1      -1.203  -1.743  -3.018  0.00  0.00    +0.040 A 
ATOM      6  C   UNL     1      -1.208  -1.060  -1.811  0.00  0.00    +0.050 A 
ATOM      7 BR   UNL     1       0.001  -3.007  -5.265  0.00  0.00    -0.050 Br
ENDROOT
BRANCH   1   9
ATOM      8  C   UNL     1      -0.018   1.461   0.010  0.00  0.00    +0.129 C 
ATOM      9  N   UNL     1       0.002  -0.004   0.002  0.00  0.00    -0.335 N 
ATOM     10  C   UNL     1       0.024  -0.743   1.267  0.00  0.00    +0.129 C 
ENDBRANCH   1   9
BRANCH   6  11
ATOM     11  N   UNL     1      -2.421  -0.732  -1.194  0.00  0.00    -0.342 N 
ATOM     12  H   UNL     1      -2.423  -0.251  -0.352  0.00  0.00    +0.146 HD
BRANCH  11  13
ATOM     13  C   UNL     1      -3.689  -1.114  -1.822  0.00  0.00    +0.105 C 
BRANCH  13  14
ATOM     14  C   UNL     1      -4.853  -0.638  -0.951  0.00  0.00    +0.013 C 
ATOM     15  C   UNL     1      -4.900  -1.435   0.376  0.00  0.00    +0.013 C 
ATOM     16  C   UNL     1      -6.289  -2.148   0.329  0.00  0.00    +0.012 C 
ATOM     17  C   UNL     1      -7.155  -1.037  -0.369  0.00  0.00    +0.015 C 
ATOM     18  C   UNL     1      -6.219  -0.968  -1.633  0.00  0.00    +0.017 C 
ATOM     19  C   UNL     1      -6.120  -2.462  -1.964  0.00  0.00    -0.027 C 
ATOM     20  C   UNL     1      -6.151  -3.160  -0.815  0.00  0.00    -0.027 C 
ENDBRANCH  13  14
ENDBRANCH  11  13
ENDBRANCH   6  11
TORSDOF 4
