REMARK  Name = ZINC21238419
REMARK  2 active torsions:
REMARK  status: ('A' for Active; 'I' for Inactive)
REMARK    1  A    between atoms: C_8  and  C_24
REMARK    2  A    between atoms: C_14  and  C_19
REMARK                            x       y       z     vdW  Elec       q    Type
REMARK                         _______ _______ _______ _____ _____    ______ ____
ROOT
ATOM      1  C   UNL     1       0.541   1.652   0.241  0.00  0.00    +0.002 A 
ATOM      2  C   UNL     1       1.800   2.218   0.335  0.00  0.00    +0.002 A 
ATOM      3  C   UNL     1       2.930   1.419   0.303  0.00  0.00    +0.025 A 
ATOM      4  C   UNL     1       2.788   0.047   0.177  0.00  0.00    +0.052 A 
ATOM      5  C   UNL     1       1.525  -0.523   0.117  0.00  0.00    +0.049 A 
ATOM      6  C   UNL     1       0.397   0.280   0.132  0.00  0.00    +0.025 A 
ATOM      7  N   UNL     1       1.431  -1.915   0.093  0.00  0.00    -0.331 N 
ATOM      8  C   UNL     1       1.873  -2.714   1.216  0.00  0.00    +0.136 C 
ATOM      9  C   UNL     1       3.356  -2.643   1.491  0.00  0.00    +0.036 C 
ATOM     10  C   UNL     1       4.217  -1.764   0.950  0.00  0.00    +0.017 C 
ATOM     11  N   UNL     1       3.880  -0.803   0.054  0.00  0.00    -0.316 N 
ATOM     12  C   UNL     1       5.686  -1.787   1.340  0.00  0.00    +0.060 C 
ATOM     13  C   UNL     1       6.122  -3.221   1.635  0.00  0.00    +0.039 C 
ATOM     14  C   UNL     1       5.259  -3.743   2.791  0.00  0.00    +0.088 C 
ATOM     15  C   UNL     1       3.816  -3.620   2.404  0.00  0.00    +0.163 C 
ATOM     16  O   UNL     1       3.012  -4.389   2.894  0.00  0.00    -0.292 OA
ATOM     17  H   UNL     1       1.012  -2.404  -0.798  0.00  0.00    +0.147 HD
ATOM     18  H   UNL     1       4.544  -0.722  -0.819  0.00  0.00    +0.152 HD
ENDROOT
BRANCH   8  19
ATOM     19  C   UNL     1       1.136  -2.251   2.447  0.00  0.00    -0.022 A 
ATOM     20  C   UNL     1       1.290  -0.953   2.897  0.00  0.00    +0.008 A 
ATOM     21  C   UNL     1       0.612  -0.526   4.023  0.00  0.00    +0.040 A 
ATOM     22  C   UNL     1      -0.214  -1.402   4.707  0.00  0.00    +0.137 A 
ATOM     23  C   UNL     1      -0.363  -2.704   4.258  0.00  0.00    +0.053 A 
ATOM     24  C   UNL     1       0.312  -3.127   3.128  0.00  0.00    +0.024 A 
ATOM     25 BR   UNL     1      -1.491  -3.902   5.190  0.00  0.00    -0.047 Br
ATOM     26  F   UNL     1      -0.874  -0.987   5.810  0.00  0.00    -0.204 F 
ENDBRANCH   8  19
BRANCH  13  27
ATOM     27  C   UNL     1       7.575  -3.241   2.034  0.00  0.00    -0.006 A 
ATOM     28  C   UNL     1       8.613  -3.883   1.444  0.00  0.00    +0.011 A 
ATOM     29  C   UNL     1       9.877  -3.756   1.989  0.00  0.00    +0.008 A 
ATOM     30  C   UNL     1      10.041  -2.995   3.098  0.00  0.00    +0.045 A 
ATOM     31  S   UNL     1       8.378  -2.420   3.401  0.00  0.00    -0.101 S 
ENDBRANCH  13  27
TORSDOF 2
