REMARK  Name = ZINC20814823
REMARK  9 active torsions:
REMARK  status: ('A' for Active; 'I' for Inactive)
REMARK    1  A    between atoms: C_1  and  C_2
REMARK    2  A    between atoms: C_2  and  N_3
REMARK    3  A    between atoms: N_3  and  C_4
REMARK    4  A    between atoms: N_3  and  C_11
REMARK    5  A    between atoms: C_4  and  C_5
REMARK    6  A    between atoms: C_11  and  C_12
REMARK    7  A    between atoms: N_14  and  C_15
REMARK    8  A    between atoms: C_19  and  N_22
REMARK    9  A    between atoms: C_20  and  C_21
REMARK                            x       y       z     vdW  Elec       q    Type
REMARK                         _______ _______ _______ _____ _____    ______ ____
ROOT
ATOM      1  C   UNL     1       5.869  -0.501  -2.731  0.00  0.00    +0.201 C 
ATOM      2  O   UNL     1       5.206  -0.391  -3.740  0.00  0.00    -0.278 OA
ATOM      3  N   UNL     1       7.198  -0.712  -2.817  0.00  0.00    -0.287 N 
ATOM      4  H   UNL     1       7.786  -0.893  -1.906  0.00  0.00    +0.155 HD
ENDROOT
BRANCH   3   5
ATOM      5  C   UNL     1       7.828  -0.699  -4.066  0.00  0.00    +0.038 A 
ATOM      6  C   UNL     1       7.120  -1.055  -5.207  0.00  0.00    +0.024 A 
ATOM      7  C   UNL     1       7.745  -1.041  -6.438  0.00  0.00    +0.004 A 
ATOM      8  C   UNL     1       9.075  -0.673  -6.536  0.00  0.00    +0.033 A 
ATOM      9  C   UNL     1       9.782  -0.318  -5.403  0.00  0.00    +0.131 A 
ATOM     10  C   UNL     1       9.161  -0.324  -4.169  0.00  0.00    +0.001 A 
ATOM     11  C   UNL     1       9.931   0.070  -2.935  0.00  0.00    +0.048 C 
BRANCH   9  12
ATOM     12  N   UNL     1      11.205   0.075  -5.512  0.00  0.00    +0.057 N 
ATOM     13  O   UNL     1      11.721   0.195  -6.609  0.00  0.00    -0.126 OA
ATOM     14  O   UNL     1      11.860   0.280  -4.505  0.00  0.00    -0.126 OA
ENDBRANCH   9  12
ENDBRANCH   3   5
BRANCH   1  15
ATOM     15  C   UNL     1       5.208  -0.404  -1.380  0.00  0.00    +0.019 C 
BRANCH  15  16
ATOM     16  N   UNL     1       3.792  -0.054  -1.552  0.00  0.00    +0.388 N 
ATOM     17  H   UNL     1       3.380  -0.693  -2.347  0.00  0.00    -0.081 HD
BRANCH  16  19
ATOM     18  C   UNL     1       4.132   2.270  -0.860  0.00  0.00    -0.017 C 
ATOM     19  C   UNL     1       3.643   1.345  -1.975  0.00  0.00    -0.081 C 
ENDBRANCH  16  19
BRANCH  16  20
ATOM     20  C   UNL     1       3.032  -0.316  -0.323  0.00  0.00    -0.035 C 
BRANCH  20  21
ATOM     21  C   UNL     1       1.558  -0.182  -0.606  0.00  0.00    -0.026 A 
ATOM     22  C   UNL     1       0.677  -1.129  -1.012  0.00  0.00    +0.010 A 
ATOM     23  C   UNL     1      -0.644  -0.774  -1.212  0.00  0.00    +0.023 A 
ATOM     24  C   UNL     1      -1.020   0.511  -0.995  0.00  0.00    +0.055 A 
ATOM     25  S   UNL     1       0.518   1.265  -0.493  0.00  0.00    -0.088 S 
ATOM     26 BR   UNL     1      -2.728   1.300  -1.184  0.00  0.00    -0.043 Br
ENDBRANCH  20  21
ENDBRANCH  16  20
ENDBRANCH  15  16
ENDBRANCH   1  15
TORSDOF 7
