REMARK  Name = ZINC36205246
REMARK  13 active torsions:
REMARK  status: ('A' for Active; 'I' for Inactive)
REMARK    1  A    between atoms: C_1  and  C_2
REMARK    2  A    between atoms: C_2  and  C_3
REMARK    3  A    between atoms: C_3  and  C_4
REMARK    4  A    between atoms: C_4  and  C_6
REMARK    5  A    between atoms: C_4  and  O_34
REMARK    6  A    between atoms: C_6  and  N_7
REMARK    7  A    between atoms: N_7  and  C_8
REMARK    8  A    between atoms: N_7  and  C_14
REMARK    9  A    between atoms: C_8  and  C_9
REMARK   10  A    between atoms: C_14  and  C_15
REMARK   11  A    between atoms: C_21  and  C_26
REMARK   12  A    between atoms: C_29  and  C_33
REMARK   13  A    between atoms: C_30  and  C_32
REMARK                            x       y       z     vdW  Elec       q    Type
REMARK                         _______ _______ _______ _____ _____    ______ ____
ROOT
ATOM      1  C   UNL     1       1.268  -6.380  -3.492  0.00  0.00    +0.094 A 
ATOM      2  N   UNL     1       1.607  -7.231  -4.494  0.00  0.00    -0.312 N 
ATOM      3  H   UNL     1       1.951  -6.872  -5.327  0.00  0.00    +0.170 HD
ATOM      4  C   UNL     1       1.474  -8.563  -4.355  0.00  0.00    +0.260 A 
ATOM      5  O   UNL     1       1.784  -9.314  -5.264  0.00  0.00    -0.267 OA
ATOM      6  C   UNL     1       0.965  -9.085  -3.123  0.00  0.00    +0.080 A 
ATOM      7  C   UNL     1       0.733 -10.470  -2.733  0.00  0.00    +0.004 A 
ATOM      8  C   UNL     1       0.239 -10.726  -1.498  0.00  0.00    +0.056 A 
ATOM      9  S   UNL     1       0.056  -9.103  -0.783  0.00  0.00    -0.076 S 
ATOM     10  C   UNL     1       0.642  -8.129  -2.146  0.00  0.00    +0.116 A 
ATOM     11  N   UNL     1       0.806  -6.826  -2.355  0.00  0.00    -0.229 NA
ENDROOT
BRANCH   7  12
ATOM     12  C   UNL     1       1.032 -11.579  -3.671  0.00  0.00    -0.016 A 
ATOM     13  C   UNL     1       0.553 -11.536  -4.980  0.00  0.00    +0.009 A 
ATOM     14  C   UNL     1       0.835 -12.570  -5.849  0.00  0.00    +0.004 A 
ATOM     15  C   UNL     1       1.590 -13.649  -5.423  0.00  0.00    -0.048 A 
ATOM     16  C   UNL     1       2.067 -13.697  -4.125  0.00  0.00    -0.047 A 
ATOM     17  C   UNL     1       1.797 -12.665  -3.249  0.00  0.00    +0.012 A 
ATOM     18  C   UNL     1       2.890 -14.874  -3.670  0.00  0.00    +0.044 C 
ATOM     19  C   UNL     1       1.894 -14.775  -6.376  0.00  0.00    +0.044 C 
ENDBRANCH   7  12
BRANCH   1  20
ATOM     20  C   UNL     1       1.434  -4.896  -3.694  0.00  0.00    -0.003 C 
BRANCH  20  21
ATOM     21  N   UNL     1       1.011  -4.186  -2.479  0.00  0.00    +0.391 N 
ATOM     22  H   UNL     1       0.069  -4.457  -2.242  0.00  0.00    -0.080 HD
BRANCH  21  23
ATOM     23  C   UNL     1       1.059  -2.738  -2.716  0.00  0.00    -0.046 C 
BRANCH  23  24
ATOM     24  C   UNL     1       0.017  -2.358  -3.769  0.00  0.00    +0.098 C 
BRANCH  24  25
ATOM     25  O   UNL     1      -1.288  -2.688  -3.289  0.00  0.00    -0.394 OA
ATOM     26  H   UNL     1      -1.558  -2.186  -2.508  0.00  0.00    +0.210 HD
ENDBRANCH  24  25
BRANCH  24  27
ATOM     27  C   UNL     1       0.093  -0.855  -4.045  0.00  0.00    +0.029 C 
BRANCH  27  29
ATOM     28  C   UNL     1      -0.784   1.006  -5.462  0.00  0.00    +0.004 C 
ATOM     29  C   UNL     1      -0.861  -0.497  -5.186  0.00  0.00    -0.001 C 
ENDBRANCH  27  29
ENDBRANCH  24  27
ENDBRANCH  23  24
ENDBRANCH  21  23
BRANCH  21  30
ATOM     30  C   UNL     1       1.913  -4.532  -1.371  0.00  0.00    -0.002 C 
BRANCH  30  31
ATOM     31  C   UNL     1       1.397  -3.920  -0.094  0.00  0.00    +0.089 A 
ATOM     32  C   UNL     1       0.465  -4.455   0.714  0.00  0.00    +0.042 A 
ATOM     33  C   UNL     1       0.286  -3.553   1.787  0.00  0.00    +0.041 A 
ATOM     34  C   UNL     1       1.120  -2.520   1.571  0.00  0.00    +0.195 A 
ATOM     35  O   UNL     1       1.795  -2.751   0.433  0.00  0.00    -0.470 OA
ENDBRANCH  30  31
ENDBRANCH  21  30
ENDBRANCH  20  21
ENDBRANCH   1  20
TORSDOF 10
