REMARK  Name = ZINC12245915
REMARK  9 active torsions:
REMARK  status: ('A' for Active; 'I' for Inactive)
REMARK    1  A    between atoms: C_1  and  O_2
REMARK    2  A    between atoms: O_2  and  C_3
REMARK    3  A    between atoms: C_3  and  C_4
REMARK    4  A    between atoms: C_7  and  C_9
REMARK    5  A    between atoms: C_9  and  N_68
REMARK    6  A    between atoms: C_16  and  C_18
REMARK    7  A    between atoms: N_20  and  C_21
REMARK    8  A    between atoms: C_21  and  C_22
REMARK    9  A    between atoms: C_22  and  C_27
REMARK                            x       y       z     vdW  Elec       q    Type
REMARK                         _______ _______ _______ _____ _____    ______ ____
ROOT
ATOM      1  C   UNL     1      -1.849  -3.027  -5.024  0.00  0.00    -0.078 C 
ATOM      2  C   UNL     1      -1.598  -3.929  -3.811  0.00  0.00    -0.011 C 
ATOM      3  C   UNL     1      -0.213  -3.607  -3.239  0.00  0.00    -0.021 C 
ATOM      4  C   UNL     1       0.924  -3.621  -4.266  0.00  0.00    -0.011 C 
ATOM      5  C   UNL     1       0.524  -2.737  -5.452  0.00  0.00    -0.078 C 
ATOM      6  C   UNL     1       0.100  -4.078  -1.821  0.00  0.00    +0.020 C 
ATOM      7  C   UNL     1      -0.132  -2.592  -2.100  0.00  0.00    +0.082 C 
ATOM      8  N   UNL     1      -0.758  -3.230  -6.003  0.00  0.00    +0.384 N 
ATOM      9  H   UNL     1      -0.671  -4.234  -6.200  0.00  0.00    -0.081 HD
ENDROOT
BRANCH   7  10
ATOM     10  C   UNL     1       1.069  -1.681  -2.064  0.00  0.00    +0.217 C 
ATOM     11  O   UNL     1       2.165  -2.132  -1.807  0.00  0.00    -0.275 OA
ATOM     12  N   UNL     1       0.924  -0.365  -2.319  0.00  0.00    -0.314 N 
ATOM     13  H   UNL     1       0.048  -0.005  -2.525  0.00  0.00    +0.149 HD
BRANCH  12  14
ATOM     14  C   UNL     1       2.091   0.520  -2.284  0.00  0.00    +0.115 C 
BRANCH  14  15
ATOM     15  C   UNL     1       1.636   1.970  -2.454  0.00  0.00    +0.011 C 
ATOM     16  C   UNL     1       0.613   2.336  -1.359  0.00  0.00    +0.013 C 
ATOM     17  C   UNL     1       1.462   3.017  -0.257  0.00  0.00    +0.001 C 
ATOM     18  C   UNL     1       2.493   3.834  -1.076  0.00  0.00    +0.001 C 
ATOM     19  C   UNL     1       2.832   2.922  -2.274  0.00  0.00    +0.013 C 
BRANCH  15  20
ATOM     20  C   UNL     1       1.024   2.163  -3.817  0.00  0.00    -0.040 A 
ATOM     21  C   UNL     1       0.438   3.370  -4.148  0.00  0.00    +0.004 A 
ATOM     22  C   UNL     1      -0.128   3.544  -5.397  0.00  0.00    +0.000 A 
ATOM     23  C   UNL     1      -0.100   2.514  -6.319  0.00  0.00    +0.000 A 
ATOM     24  C   UNL     1       0.486   1.307  -5.988  0.00  0.00    +0.000 A 
ATOM     25  C   UNL     1       1.049   1.131  -4.738  0.00  0.00    +0.004 A 
ENDBRANCH  15  20
ENDBRANCH  14  15
ENDBRANCH  12  14
ENDBRANCH   7  10
BRANCH   8  26
ATOM     26  C   UNL     1      -1.071  -2.520  -7.260  0.00  0.00    -0.003 C 
BRANCH  26  30
ATOM     27  C   UNL     1       1.745  -2.916  -9.549  0.00  0.00    +0.131 A 
ATOM     28  C   UNL     1       0.999  -3.963  -9.946  0.00  0.00    +0.047 A 
ATOM     29  C   UNL     1      -0.162  -3.966  -9.139  0.00  0.00    +0.043 A 
ATOM     30  C   UNL     1      -0.060  -2.917  -8.304  0.00  0.00    +0.089 A 
ATOM     31  O   UNL     1       1.099  -2.287  -8.555  0.00  0.00    -0.464 OA
BRANCH  27  32
ATOM     32  C   UNL     1       3.081  -2.518 -10.123  0.00  0.00    +0.233 C 
BRANCH  32  34
ATOM     33  C   UNL     1       4.091  -1.166 -11.825  0.00  0.00    +0.194 C 
ATOM     34  O   UNL     1       2.881  -1.608 -11.206  0.00  0.00    -0.375 OA
ENDBRANCH  32  34
ENDBRANCH  27  32
ENDBRANCH  26  30
ENDBRANCH   8  26
TORSDOF 8
