REMARK  Name = ZINC43410483
REMARK  3 active torsions:
REMARK  status: ('A' for Active; 'I' for Inactive)
REMARK    1  A    between atoms: C_6  and  O_7
REMARK    2  A    between atoms: O_7  and  C_8
REMARK    3  A    between atoms: C_9  and  C_18
REMARK                            x       y       z     vdW  Elec       q    Type
REMARK                         _______ _______ _______ _____ _____    ______ ____
ROOT
ATOM      1  C   UNL     1      -1.100  -2.034  -0.168  0.00  0.00    +0.231 A 
ATOM      2  C   UNL     1      -2.280  -2.792  -0.206  0.00  0.00    +0.074 A 
ATOM      3  C   UNL     1      -2.177  -4.184  -0.243  0.00  0.00    +0.022 A 
ATOM      4  C   UNL     1      -0.914  -4.763  -0.243  0.00  0.00    -0.025 A 
ATOM      5  C   UNL     1       0.202  -3.955  -0.210  0.00  0.00    +0.048 A 
ATOM      6  N   UNL     1       0.074  -2.634  -0.176  0.00  0.00    -0.217 NA
ATOM      7  C   UNL     1       1.602  -4.515  -0.226  0.00  0.00    +0.056 C 
ATOM      8  C   UNL     1       1.595  -5.991   0.165  0.00  0.00    +0.006 C 
ATOM      9  C   UNL     1       0.563  -6.718  -0.705  0.00  0.00    +0.005 C 
ATOM     10  C   UNL     1      -0.831  -6.266  -0.275  0.00  0.00    +0.037 C 
ENDROOT
BRANCH   2  11
ATOM     11  C   UNL     1      -3.602  -2.133  -0.206  0.00  0.00    +0.099 C 
ATOM     12  N   UNL     1      -3.900  -1.237  -1.147  0.00  0.00    -0.387 N 
ATOM     13  N   UNL     1      -4.496  -2.433   0.735  0.00  0.00    -0.344 N 
ATOM     14  H   UNL     1      -3.226  -0.969  -1.791  0.00  0.00    +0.157 HD
ATOM     15  H   UNL     1      -4.280  -3.085   1.420  0.00  0.00    +0.144 HD
ATOM     16  H   UNL     1      -5.364  -2.000   0.735  0.00  0.00    +0.144 HD
ATOM     17  H   UNL     1      -4.790  -0.855  -1.188  0.00  0.00    +0.157 HD
ENDBRANCH   2  11
BRANCH   1  18
ATOM     18  O   UNL     1      -1.167  -0.682  -0.129  0.00  0.00    -0.437 OA
BRANCH  18  24
ATOM     19  C   UNL     1       0.640   0.163  -1.425  0.00  0.00    +0.047 A 
ATOM     20  C   UNL     1       1.822   0.874  -1.499  0.00  0.00    +0.019 A 
ATOM     21  C   UNL     1       2.363   1.440  -0.359  0.00  0.00    +0.018 A 
ATOM     22  C   UNL     1       1.722   1.296   0.859  0.00  0.00    +0.019 A 
ATOM     23  C   UNL     1       0.540   0.585   0.938  0.00  0.00    +0.047 A 
ATOM     24  C   UNL     1      -0.004   0.017  -0.205  0.00  0.00    +0.130 A 
ATOM     25 BR   UNL     1       3.981   2.413  -0.464  0.00  0.00    -0.050 Br
ENDBRANCH  18  24
ENDBRANCH   1  18
TORSDOF 3
