REMARK  Name = ZINC66976685
REMARK  10 active torsions:
REMARK  status: ('A' for Active; 'I' for Inactive)
REMARK    1  A    between atoms: C_1  and  C_2
REMARK    2  A    between atoms: C_2  and  C_3
REMARK    3  A    between atoms: C_2  and  C_4
REMARK    4  A    between atoms: C_4  and  C_6
REMARK    5  A    between atoms: C_4  and  N_22
REMARK    6  A    between atoms: C_6  and  N_7
REMARK    7  A    between atoms: N_10  and  N_11
REMARK    8  A    between atoms: C_12  and  C_14
REMARK    9  A    between atoms: C_14  and  C_15
REMARK   10  A    between atoms: N_22  and  C_23
REMARK                            x       y       z     vdW  Elec       q    Type
REMARK                         _______ _______ _______ _____ _____    ______ ____
ROOT
ATOM      1  N   UNL     1      -3.498  -0.891  -1.170  0.00  0.00    -0.296 N 
ATOM      2  C   UNL     1      -4.354  -0.752  -2.201  0.00  0.00    +0.316 C 
ATOM      3  O   UNL     1      -4.049  -0.067  -3.157  0.00  0.00    -0.251 OA
ATOM      4  N   UNL     1      -5.550  -1.375  -2.172  0.00  0.00    -0.218 N 
ATOM      5  H   UNL     1      -3.741  -1.438  -0.407  0.00  0.00    +0.150 HD
ATOM      6  H   UNL     1      -6.166  -1.275  -2.914  0.00  0.00    +0.174 HD
ENDROOT
BRANCH   4   7
ATOM      7  N   UNL     1      -5.902  -2.165  -1.070  0.00  0.00    -0.233 N 
ATOM      8  C   UNL     1      -7.097  -2.787  -1.041  0.00  0.00    +0.234 C 
ATOM      9  O   UNL     1      -7.868  -2.663  -1.969  0.00  0.00    -0.274 OA
ATOM     10  H   UNL     1      -5.285  -2.264  -0.328  0.00  0.00    +0.173 HD
BRANCH   8  11
ATOM     11  C   UNL     1      -7.475  -3.638   0.144  0.00  0.00    +0.135 C 
BRANCH  11  12
ATOM     12  C   UNL     1      -8.850  -4.216  -0.071  0.00  0.00    -0.003 A 
ATOM     13  C   UNL     1      -9.959  -3.573   0.447  0.00  0.00    +0.007 A 
ATOM     14  C   UNL     1     -11.220  -4.103   0.249  0.00  0.00    +0.000 A 
ATOM     15  C   UNL     1     -11.374  -5.276  -0.466  0.00  0.00    +0.003 A 
ATOM     16  C   UNL     1     -10.268  -5.920  -0.985  0.00  0.00    +0.038 A 
ATOM     17  C   UNL     1      -9.004  -5.387  -0.792  0.00  0.00    +0.127 A 
ATOM     18  F   UNL     1      -7.921  -6.013  -1.303  0.00  0.00    -0.205 F 
ENDBRANCH  11  12
ENDBRANCH   8  11
ENDBRANCH   4   7
BRANCH   1  19
ATOM     19  C   UNL     1      -2.199  -0.214  -1.201  0.00  0.00    +0.128 C 
BRANCH  19  20
ATOM     20  C   UNL     1      -1.426  -0.534   0.081  0.00  0.00    +0.090 C 
BRANCH  20  22
ATOM     21  C   UNL     1      -0.126   1.593  -0.080  0.00  0.00    +0.009 C 
ATOM     22  C   UNL     1      -0.023   0.069  -0.006  0.00  0.00    +0.005 C 
ATOM     23  C   UNL     1       0.780  -0.328   1.234  0.00  0.00    +0.009 C 
ENDBRANCH  20  22
BRANCH  20  24
ATOM     24  N   UNL     1      -1.325  -1.987   0.240  0.00  0.00    -0.339 N 
ATOM     25  H   UNL     1      -0.821  -2.511  -0.402  0.00  0.00    +0.146 HD
BRANCH  24  26
ATOM     26  C   UNL     1      -1.954  -2.617   1.316  0.00  0.00    +0.027 A 
ATOM     27  C   UNL     1      -2.557  -1.858   2.312  0.00  0.00    +0.023 A 
ATOM     28  C   UNL     1      -3.178  -2.484   3.374  0.00  0.00    +0.002 A 
ATOM     29  C   UNL     1      -3.200  -3.865   3.448  0.00  0.00    +0.000 A 
ATOM     30  C   UNL     1      -2.602  -4.623   2.459  0.00  0.00    +0.002 A 
ATOM     31  C   UNL     1      -1.983  -4.004   1.391  0.00  0.00    +0.023 A 
ENDBRANCH  24  26
ENDBRANCH  20  24
ENDBRANCH  19  20
ENDBRANCH   1  19
TORSDOF 8
