REMARK  Name = ZINC38687438
REMARK  10 active torsions:
REMARK  status: ('A' for Active; 'I' for Inactive)
REMARK    1  A    between atoms: C_1  and  C_2
REMARK    2  A    between atoms: C_2  and  O_3
REMARK    3  A    between atoms: O_3  and  C_4
REMARK    4  A    between atoms: C_9  and  C_10
REMARK    5  A    between atoms: C_15  and  O_24
REMARK    6  A    between atoms: C_19  and  N_23
REMARK    7  A    between atoms: C_20  and  C_21
REMARK    8  A    between atoms: O_24  and  C_25
REMARK    9  A    between atoms: C_25  and  C_27
REMARK   10  A    between atoms: C_28  and  C_36
REMARK                            x       y       z     vdW  Elec       q    Type
REMARK                         _______ _______ _______ _____ _____    ______ ____
ROOT
ATOM      1  C   UNL     1      -4.007  -1.550   0.059  0.00  0.00    +0.101 C 
ATOM      2  C   UNL     1      -4.831  -1.797  -1.177  0.00  0.00    +0.008 A 
ATOM      3  C   UNL     1      -4.463  -1.202  -2.370  0.00  0.00    +0.012 A 
ATOM      4  C   UNL     1      -5.208  -1.417  -3.513  0.00  0.00    +0.047 A 
ATOM      5  C   UNL     1      -6.330  -2.233  -3.467  0.00  0.00    +0.136 A 
ATOM      6  C   UNL     1      -6.700  -2.830  -2.273  0.00  0.00    +0.093 A 
ATOM      7  C   UNL     1      -5.950  -2.613  -1.125  0.00  0.00    +0.138 A 
ATOM      8  O   UNL     1      -6.327  -3.205   0.036  0.00  0.00    -0.441 OA
ATOM      9  C   UNL     1      -5.879  -2.725   1.208  0.00  0.00    +0.199 C 
ATOM     10  C   UNL     1      -4.785  -1.937   1.285  0.00  0.00    +0.098 C 
ENDROOT
BRANCH   1  16
ATOM     11  C   UNL     1      -1.507  -1.742   0.002  0.00  0.00    +0.125 A 
ATOM     12  C   UNL     1      -0.347  -2.501  -0.057  0.00  0.00    +0.046 A 
ATOM     13  C   UNL     1      -0.426  -3.878  -0.134  0.00  0.00    +0.004 A 
ATOM     14  C   UNL     1      -1.661  -4.500  -0.152  0.00  0.00    +0.001 A 
ATOM     15  C   UNL     1      -2.818  -3.747  -0.094  0.00  0.00    +0.008 A 
ATOM     16  C   UNL     1      -2.744  -2.370  -0.011  0.00  0.00    +0.007 A 
BRANCH  11  17
ATOM     17  O   UNL     1      -1.432  -0.388   0.079  0.00  0.00    -0.492 OA
BRANCH  17  19
ATOM     18  C   UNL     1      -0.241   1.713   0.177  0.00  0.00    +0.048 C 
ATOM     19  C   UNL     1      -0.125   0.190   0.088  0.00  0.00    +0.225 C 
ENDBRANCH  17  19
ENDBRANCH  11  17
ENDBRANCH   1  16
BRANCH   9  20
ATOM     20  N   UNL     1      -6.553  -3.047   2.360  0.00  0.00    -0.328 N 
ATOM     21  H   UNL     1      -7.339  -3.613   2.320  0.00  0.00    +0.145 HD
ATOM     22  H   UNL     1      -6.242  -2.709   3.214  0.00  0.00    +0.145 HD
ENDBRANCH   9  20
BRANCH  10  23
ATOM     23  C   UNL     1      -4.359  -1.459   2.566  0.00  0.00    +0.101 C 
ATOM     24  N   UNL     1      -4.020  -1.081   3.583  0.00  0.00    -0.191 NA
ENDBRANCH  10  23
BRANCH   5  25
ATOM     25  O   UNL     1      -7.064  -2.445  -4.591  0.00  0.00    -0.420 OA
BRANCH  25  26
ATOM     26  C   UNL     1      -8.300  -1.908  -4.651  0.00  0.00    +0.380 C 
ATOM     27  O   UNL     1      -8.686  -1.171  -3.764  0.00  0.00    -0.241 OA
BRANCH  26  28
ATOM     28  C   UNL     1      -9.178  -2.212  -5.786  0.00  0.00    +0.216 A 
ATOM     29  C   UNL     1     -10.436  -1.726  -5.955  0.00  0.00    +0.010 A 
ATOM     30  C   UNL     1     -10.924  -2.292  -7.212  0.00  0.00    +0.024 A 
ATOM     31  C   UNL     1     -12.118  -2.184  -7.929  0.00  0.00    +0.012 A 
ATOM     32  C   UNL     1     -12.263  -2.861  -9.107  0.00  0.00    +0.001 A 
ATOM     33  C   UNL     1     -11.233  -3.655  -9.594  0.00  0.00    +0.004 A 
ATOM     34  C   UNL     1     -10.048  -3.774  -8.901  0.00  0.00    +0.047 A 
ATOM     35  C   UNL     1      -9.877  -3.095  -7.701  0.00  0.00    +0.136 A 
ATOM     36  O   UNL     1      -8.857  -3.013  -6.824  0.00  0.00    -0.448 OA
ATOM     37  C   UNL     1     -11.178  -0.794  -5.032  0.00  0.00    +0.048 C 
ENDBRANCH  26  28
ENDBRANCH  25  26
ENDBRANCH   5  25
TORSDOF 8
