REMARK  Name = ZINC57270657
REMARK  12 active torsions:
REMARK  status: ('A' for Active; 'I' for Inactive)
REMARK    1  A    between atoms: C_1  and  C_2
REMARK    2  A    between atoms: C_3  and  C_34
REMARK    3  A    between atoms: C_4  and  C_33
REMARK    4  A    between atoms: C_7  and  C_8
REMARK    5  A    between atoms: C_8  and  C_10
REMARK    6  A    between atoms: C_10  and  C_12
REMARK    7  A    between atoms: C_10  and  N_13
REMARK    8  A    between atoms: N_13  and  C_14
REMARK    9  A    between atoms: C_14  and  C_15
REMARK   10  A    between atoms: C_15  and  C_17
REMARK   11  A    between atoms: C_15  and  C_23
REMARK   12  A    between atoms: C_34  and  C_36
REMARK                            x       y       z     vdW  Elec       q    Type
REMARK                         _______ _______ _______ _____ _____    ______ ____
ROOT
ATOM      1  C   UNL     1      -0.140  -2.007   5.783  0.00  0.00    +0.094 C 
ENDROOT
BRANCH   1   2
ATOM      2  N   UNL     1      -0.572  -1.018   4.786  0.00  0.00    -0.306 NA
ATOM      3  H   UNL     1       0.045  -0.220   4.779  0.00  0.00    +0.123 HD
BRANCH   2   4
ATOM      4  C   UNL     1      -0.665  -1.623   3.450  0.00  0.00    +0.124 C 
ATOM      5  C   UNL     1      -2.034  -2.287   3.287  0.00  0.00    +0.032 C 
BRANCH   4   6
ATOM      6  C   UNL     1      -0.497  -0.554   2.402  0.00  0.00    +0.196 C 
ATOM      7  O   UNL     1      -0.589   0.617   2.708  0.00  0.00    -0.289 OA
BRANCH   6  14
ATOM      8  C   UNL     1      -0.113   1.461   0.067  0.00  0.00    +0.047 C 
ATOM      9  C   UNL     1      -0.057  -0.044   0.006  0.00  0.00    -0.012 A 
ATOM     10  C   UNL     1       0.191  -0.833  -1.140  0.00  0.00    +0.041 A 
ATOM     11  C   UNL     1       0.151  -2.160  -0.739  0.00  0.00    +0.024 A 
ATOM     12  N   UNL     1      -0.106  -2.203   0.576  0.00  0.00    -0.355 N 
ATOM     13  H   UNL     1      -0.186  -3.011   1.106  0.00  0.00    +0.166 HD
ATOM     14  C   UNL     1      -0.232  -0.915   1.059  0.00  0.00    +0.088 A 
ATOM     15  C   UNL     1       0.361  -3.355  -1.632  0.00  0.00    +0.064 C 
BRANCH  10  16
ATOM     16  C   UNL     1       0.442  -0.340  -2.499  0.00  0.00    +0.162 C 
ATOM     17  O   UNL     1      -0.486  -0.160  -3.260  0.00  0.00    -0.292 OA
ATOM     18  C   UNL     1       1.852  -0.058  -2.949  0.00  0.00    +0.091 C 
ENDBRANCH  10  16
ENDBRANCH   6  14
ENDBRANCH   4   6
ENDBRANCH   2   4
ENDBRANCH   1   2
BRANCH   1  19
ATOM     19  C   UNL     1      -0.054  -1.341   7.158  0.00  0.00    +0.065 C 
BRANCH  19  20
ATOM     20  C   UNL     1       0.268  -2.381   8.200  0.00  0.00    -0.014 A 
ATOM     21  C   UNL     1       1.363  -3.156   8.242  0.00  0.00    +0.088 A 
ATOM     22  N   UNL     1       1.309  -3.980   9.334  0.00  0.00    -0.360 N 
ATOM     23  H   UNL     1       1.988  -4.630   9.575  0.00  0.00    +0.165 HD
ATOM     24  C   UNL     1       0.149  -3.748  10.038  0.00  0.00    +0.047 A 
ATOM     25  C   UNL     1      -0.551  -2.732   9.363  0.00  0.00    +0.003 A 
ATOM     26  C   UNL     1      -1.776  -2.283   9.858  0.00  0.00    +0.010 A 
ATOM     27  C   UNL     1      -2.288  -2.830  11.001  0.00  0.00    +0.001 A 
ATOM     28  C   UNL     1      -1.599  -3.830  11.674  0.00  0.00    +0.002 A 
ATOM     29  C   UNL     1      -0.393  -4.295  11.197  0.00  0.00    +0.026 A 
ENDBRANCH  19  20
BRANCH  19  30
ATOM     30  C   UNL     1       1.028  -0.293   7.141  0.00  0.00    -0.039 A 
ATOM     31  C   UNL     1       2.333  -0.652   6.857  0.00  0.00    +0.004 A 
ATOM     32  C   UNL     1       3.326   0.309   6.842  0.00  0.00    +0.000 A 
ATOM     33  C   UNL     1       3.015   1.629   7.112  0.00  0.00    +0.000 A 
ATOM     34  C   UNL     1       1.711   1.988   7.395  0.00  0.00    +0.000 A 
ATOM     35  C   UNL     1       0.717   1.027   7.406  0.00  0.00    +0.004 A 
ENDBRANCH  19  30
ENDBRANCH   1  19
TORSDOF 8
