REMARK  Name = ZINC39960141
REMARK  9 active torsions:
REMARK  status: ('A' for Active; 'I' for Inactive)
REMARK    1  A    between atoms: C_1  and  C_2
REMARK    2  A    between atoms: C_2  and  O_3
REMARK    3  A    between atoms: O_3  and  C_4
REMARK    4  A    between atoms: C_4  and  C_6
REMARK    5  A    between atoms: C_7  and  N_32
REMARK    6  A    between atoms: C_12  and  C_31
REMARK    7  A    between atoms: C_21  and  C_23
REMARK    8  A    between atoms: C_26  and  O_29
REMARK    9  A    between atoms: O_29  and  C_30
REMARK                            x       y       z     vdW  Elec       q    Type
REMARK                         _______ _______ _______ _____ _____    ______ ____
ROOT
ATOM      1  C   UNL     1       1.427  -2.323  -2.465  0.00  0.00    +0.102 C 
ATOM      2  C   UNL     1       1.597  -3.663  -2.554  0.00  0.00    +0.194 C 
ATOM      3  O   UNL     1       2.220  -4.235  -3.611  0.00  0.00    -0.445 OA
ATOM      4  C   UNL     1       2.491  -3.440  -4.649  0.00  0.00    +0.129 C 
ATOM      5  C   UNL     1       2.340  -3.833  -5.970  0.00  0.00    +0.035 A 
ATOM      6  C   UNL     1       1.909  -5.133  -6.304  0.00  0.00    +0.016 A 
ATOM      7  C   UNL     1       1.784  -5.485  -7.613  0.00  0.00    -0.050 A 
ATOM      8  C   UNL     1       2.071  -4.584  -8.634  0.00  0.00    +0.005 A 
ATOM      9  C   UNL     1       2.486  -3.313  -8.375  0.00  0.00    +0.024 A 
ATOM     10  C   UNL     1       2.637  -2.880  -7.047  0.00  0.00    +0.044 A 
ATOM     11  N   UNL     1       3.036  -1.628  -6.793  0.00  0.00    -0.284 N 
ATOM     12  C   UNL     1       3.223  -1.148  -5.579  0.00  0.00    +0.229 C 
ATOM     13  O   UNL     1       3.583   0.005  -5.428  0.00  0.00    -0.275 OA
ATOM     14  C   UNL     1       2.988  -2.031  -4.374  0.00  0.00    +0.154 C 
ATOM     15  C   UNL     1       1.888  -1.370  -3.533  0.00  0.00    +0.080 C 
ATOM     16  C   UNL     1       1.325  -6.877  -7.963  0.00  0.00    +0.044 C 
ATOM     17  H   UNL     1       3.199  -1.039  -7.546  0.00  0.00    +0.155 HD
ENDROOT
BRANCH  15  18
ATOM     18  C   UNL     1       0.724  -1.007  -4.419  0.00  0.00    -0.038 A 
ATOM     19  C   UNL     1       0.051  -1.995  -5.113  0.00  0.00    +0.008 A 
ATOM     20  C   UNL     1      -1.017  -1.665  -5.925  0.00  0.00    +0.046 A 
ATOM     21  C   UNL     1      -1.413  -0.341  -6.044  0.00  0.00    +0.120 A 
ATOM     22  C   UNL     1      -0.736   0.648  -5.346  0.00  0.00    +0.046 A 
ATOM     23  C   UNL     1       0.328   0.313  -4.531  0.00  0.00    +0.008 A 
BRANCH  21  24
ATOM     24  O   UNL     1      -2.462  -0.014  -6.843  0.00  0.00    -0.495 OA
ATOM     25  C   UNL     1      -2.815   1.369  -6.918  0.00  0.00    +0.277 C 
ENDBRANCH  21  24
ENDBRANCH  15  18
BRANCH   2  26
ATOM     26  N   UNL     1       1.125  -4.462  -1.547  0.00  0.00    -0.329 N 
ATOM     27  H   UNL     1       0.610  -4.075  -0.822  0.00  0.00    +0.145 HD
ATOM     28  H   UNL     1       1.307  -5.415  -1.559  0.00  0.00    +0.145 HD
ENDBRANCH   2  26
BRANCH   1  29
ATOM     29  C   UNL     1       0.787  -1.801  -1.329  0.00  0.00    +0.341 C 
ATOM     30  O   UNL     1       1.445  -1.304  -0.434  0.00  0.00    -0.245 OA
BRANCH  29  31
ATOM     31  O   UNL     1      -0.559  -1.850  -1.230  0.00  0.00    -0.462 OA
BRANCH  31  33
ATOM     32  C   UNL     1      -2.665  -1.445  -0.115  0.00  0.00    +0.048 C 
ATOM     33  C   UNL     1      -1.143  -1.300  -0.048  0.00  0.00    +0.229 C 
ENDBRANCH  31  33
ENDBRANCH  29  31
ENDBRANCH   1  29
TORSDOF 6
