REMARK  Name = ZINC35742748
REMARK  16 active torsions:
REMARK  status: ('A' for Active; 'I' for Inactive)
REMARK    1  A    between atoms: C_1  and  O_2
REMARK    2  A    between atoms: O_2  and  C_3
REMARK    3  A    between atoms: C_3  and  C_4
REMARK    4  A    between atoms: C_4  and  N_5
REMARK    5  A    between atoms: N_5  and  C_6
REMARK    6  A    between atoms: N_5  and  C_30
REMARK    7  A    between atoms: C_6  and  C_7
REMARK    8  A    between atoms: C_10  and  C_12
REMARK    9  A    between atoms: C_12  and  C_13
REMARK   10  A    between atoms: C_12  and  C_21
REMARK   11  A    between atoms: C_12  and  O_29
REMARK   12  A    between atoms: C_16  and  O_19
REMARK   13  A    between atoms: O_19  and  C_20
REMARK   14  A    between atoms: C_24  and  O_27
REMARK   15  A    between atoms: O_27  and  C_28
REMARK   16  A    between atoms: C_30  and  C_31
REMARK                            x       y       z     vdW  Elec       q    Type
REMARK                         _______ _______ _______ _____ _____    ______ ____
ROOT
ATOM      1  C   UNL     1      -0.727   2.794   3.127  0.00  0.00    +0.174 C 
ENDROOT
BRANCH   1   2
ATOM      2  C   UNL     1       0.044   2.189   4.272  0.00  0.00    -0.004 A 
ATOM      3  C   UNL     1      -0.211   2.597   5.568  0.00  0.00    +0.011 A 
ATOM      4  C   UNL     1       0.494   2.045   6.619  0.00  0.00    +0.046 A 
ATOM      5  C   UNL     1       1.459   1.079   6.374  0.00  0.00    +0.120 A 
ATOM      6  C   UNL     1       1.713   0.670   5.072  0.00  0.00    +0.046 A 
ATOM      7  C   UNL     1       1.002   1.222   4.025  0.00  0.00    +0.011 A 
BRANCH   5   8
ATOM      8  O   UNL     1       2.155   0.534   7.406  0.00  0.00    -0.495 OA
ATOM      9  C   UNL     1       3.133  -0.455   7.079  0.00  0.00    +0.277 C 
ENDBRANCH   5   8
ENDBRANCH   1   2
BRANCH   1  10
ATOM     10  C   UNL     1       0.235   3.408   2.143  0.00  0.00    -0.004 A 
ATOM     11  C   UNL     1       0.926   2.600   1.258  0.00  0.00    +0.011 A 
ATOM     12  C   UNL     1       1.809   3.160   0.355  0.00  0.00    +0.046 A 
ATOM     13  C   UNL     1       2.001   4.534   0.336  0.00  0.00    +0.120 A 
ATOM     14  C   UNL     1       1.307   5.342   1.224  0.00  0.00    +0.046 A 
ATOM     15  C   UNL     1       0.421   4.778   2.122  0.00  0.00    +0.011 A 
BRANCH  13  16
ATOM     16  O   UNL     1       2.870   5.087  -0.552  0.00  0.00    -0.495 OA
ATOM     17  C   UNL     1       3.018   6.508  -0.515  0.00  0.00    +0.277 C 
ENDBRANCH  13  16
ENDBRANCH   1  10
BRANCH   1  21
ATOM     18  C   UNL     1      -2.148  -0.239   1.674  0.00  0.00    +0.089 A 
ATOM     19  C   UNL     1      -3.102   0.638   1.314  0.00  0.00    +0.043 A 
ATOM     20  C   UNL     1      -2.705   1.901   1.808  0.00  0.00    +0.048 A 
ATOM     21  C   UNL     1      -1.532   1.721   2.441  0.00  0.00    +0.146 A 
ATOM     22  O   UNL     1      -1.202   0.421   2.361  0.00  0.00    -0.463 OA
BRANCH  18  23
ATOM     23  C   UNL     1      -2.144  -1.714   1.364  0.00  0.00    -0.003 C 
BRANCH  23  24
ATOM     24  N   UNL     1      -1.532  -1.936   0.048  0.00  0.00    +0.389 N 
ATOM     25  H   UNL     1      -2.003  -1.370  -0.642  0.00  0.00    -0.081 HD
BRANCH  24  26
ATOM     26  C   UNL     1      -1.654  -3.354  -0.316  0.00  0.00    -0.049 C 
BRANCH  26  27
ATOM     27  C   UNL     1      -3.130  -3.704  -0.518  0.00  0.00    +0.141 C 
BRANCH  27  29
ATOM     28  C   UNL     1      -5.016  -3.248  -1.924  0.00  0.00    +0.193 C 
ATOM     29  O   UNL     1      -3.638  -2.991  -1.647  0.00  0.00    -0.385 OA
ENDBRANCH  27  29
ENDBRANCH  26  27
ENDBRANCH  24  26
BRANCH  24  30
ATOM     30  C   UNL     1      -0.112  -1.565   0.099  0.00  0.00    -0.035 C 
BRANCH  30  31
ATOM     31  C   UNL     1       0.487  -1.675  -1.280  0.00  0.00    -0.027 A 
ATOM     32  C   UNL     1       0.575  -0.733  -2.251  0.00  0.00    +0.009 A 
ATOM     33  C   UNL     1       1.173  -1.063  -3.452  0.00  0.00    +0.008 A 
ATOM     34  C   UNL     1       1.654  -2.318  -3.625  0.00  0.00    +0.045 A 
ATOM     35  S   UNL     1       1.270  -3.079  -2.056  0.00  0.00    -0.103 S 
ENDBRANCH  30  31
ENDBRANCH  24  30
ENDBRANCH  23  24
ENDBRANCH  18  23
ENDBRANCH   1  21
BRANCH   1  36
ATOM     36  O   UNL     1      -1.606   3.804   3.626  0.00  0.00    -0.372 OA
ATOM     37  H   UNL     1      -2.254   3.480   4.266  0.00  0.00    +0.212 HD
ENDBRANCH   1  36
TORSDOF 13
