REMARK  Name = ZINC20883789
REMARK  11 active torsions:
REMARK  status: ('A' for Active; 'I' for Inactive)
REMARK    1  A    between atoms: C_1  and  C_2
REMARK    2  A    between atoms: C_2  and  C_3
REMARK    3  A    between atoms: C_2  and  O_4
REMARK    4  A    between atoms: O_4  and  C_5
REMARK    5  A    between atoms: C_6  and  C_13
REMARK    6  A    between atoms: C_10  and  O_11
REMARK    7  A    between atoms: O_11  and  C_12
REMARK    8  A    between atoms: C_18  and  C_23
REMARK    9  A    between atoms: C_26  and  N_29
REMARK   10  A    between atoms: N_29  and  C_30
REMARK   11  A    between atoms: N_29  and  C_31
REMARK                            x       y       z     vdW  Elec       q    Type
REMARK                         _______ _______ _______ _____ _____    ______ ____
ROOT
ATOM      1  C   UNL     1      -2.715   1.310  -0.027  0.00  0.00    +0.140 C 
ATOM      2  C   UNL     1      -3.255   1.314   1.384  0.00  0.00    +0.037 C 
ATOM      3  C   UNL     1      -3.357   0.246   2.191  0.00  0.00    +0.017 C 
ATOM      4  C   UNL     1      -3.883   0.402   3.609  0.00  0.00    +0.059 C 
ATOM      5  C   UNL     1      -4.932   1.512   3.655  0.00  0.00    +0.032 C 
ATOM      6  C   UNL     1      -4.259   2.810   3.194  0.00  0.00    +0.088 C 
ATOM      7  C   UNL     1      -3.675   2.589   1.831  0.00  0.00    +0.163 C 
ATOM      8  O   UNL     1      -3.559   3.540   1.083  0.00  0.00    -0.292 OA
ATOM      9  N   UNL     1      -3.006  -1.021   1.854  0.00  0.00    -0.316 N 
ATOM     10  C   UNL     1      -1.815  -1.373   1.230  0.00  0.00    +0.052 A 
ATOM     11  C   UNL     1      -0.863  -2.166   1.846  0.00  0.00    +0.025 A 
ATOM     12  C   UNL     1       0.282  -2.516   1.151  0.00  0.00    +0.002 A 
ATOM     13  C   UNL     1       0.471  -2.080  -0.148  0.00  0.00    +0.002 A 
ATOM     14  C   UNL     1      -0.473  -1.274  -0.760  0.00  0.00    +0.025 A 
ATOM     15  C   UNL     1      -1.610  -0.904  -0.060  0.00  0.00    +0.049 A 
ATOM     16  N   UNL     1      -2.534  -0.009  -0.595  0.00  0.00    -0.331 N 
ATOM     17  H   UNL     1      -3.687  -1.857   2.073  0.00  0.00    +0.152 HD
ATOM     18  H   UNL     1      -3.132  -0.320  -1.464  0.00  0.00    +0.147 HD
ENDROOT
BRANCH   1  20
ATOM     19  C   UNL     1      -1.246   3.225  -0.701  0.00  0.00    +0.168 A 
ATOM     20  C   UNL     1      -1.385   2.019  -0.032  0.00  0.00    +0.023 A 
ATOM     21  C   UNL     1      -0.306   1.469   0.634  0.00  0.00    +0.009 A 
ATOM     22  C   UNL     1       0.916   2.115   0.627  0.00  0.00    +0.004 A 
ATOM     23  C   UNL     1       1.064   3.315  -0.043  0.00  0.00    +0.049 A 
ATOM     24  C   UNL     1      -0.015   3.874  -0.709  0.00  0.00    +0.162 A 
BRANCH  24  25
ATOM     25  O   UNL     1       0.129   5.055  -1.368  0.00  0.00    -0.491 OA
ATOM     26  C   UNL     1       1.421   5.664  -1.334  0.00  0.00    +0.277 C 
ENDBRANCH  24  25
BRANCH  19  27
ATOM     27  O   UNL     1      -2.308   3.770  -1.353  0.00  0.00    -0.485 OA
BRANCH  27  29
ATOM     28  C   UNL     1      -3.352   2.341  -2.998  0.00  0.00    +0.051 C 
ATOM     29  C   UNL     1      -2.406   3.519  -2.756  0.00  0.00    +0.168 C 
ATOM     30  C   UNL     1      -2.950   4.763  -3.460  0.00  0.00    +0.051 C 
ENDBRANCH  27  29
ENDBRANCH  19  27
ENDBRANCH   1  20
BRANCH   5  31
ATOM     31  C   UNL     1      -5.443   1.673   5.063  0.00  0.00    -0.043 A 
ATOM     32  C   UNL     1      -4.566   1.999   6.082  0.00  0.00    +0.006 A 
ATOM     33  C   UNL     1      -5.032   2.154   7.373  0.00  0.00    +0.023 A 
ATOM     34  C   UNL     1      -6.381   1.970   7.649  0.00  0.00    +0.029 A 
ATOM     35  C   UNL     1      -7.258   1.638   6.625  0.00  0.00    +0.023 A 
ATOM     36  C   UNL     1      -6.786   1.490   5.335  0.00  0.00    +0.006 A 
BRANCH  34  37
ATOM     37  N   UNL     1      -6.855   2.121   8.955  0.00  0.00    -0.336 N 
ATOM     38  C   UNL     1      -8.252   1.811   9.267  0.00  0.00    +0.129 C 
ATOM     39  C   UNL     1      -5.954   2.588  10.011  0.00  0.00    +0.129 C 
ENDBRANCH  34  37
ENDBRANCH   5  31
TORSDOF 6
