REMARK  Name = ZINC41584940
REMARK  6 active torsions:
REMARK  status: ('A' for Active; 'I' for Inactive)
REMARK    1  A    between atoms: C_4  and  C_7
REMARK    2  A    between atoms: C_7  and  N_8
REMARK    3  A    between atoms: N_11  and  C_14
REMARK    4  A    between atoms: C_14  and  C_15
REMARK    5  A    between atoms: C_16  and  O_33
REMARK    6  A    between atoms: C_24  and  C_26
REMARK                            x       y       z     vdW  Elec       q    Type
REMARK                         _______ _______ _______ _____ _____    ______ ____
ROOT
ATOM      1  C   UNL     1       6.716  -3.804   4.761  0.00  0.00    +0.051 A 
ATOM      2  C   UNL     1       6.650  -5.187   4.722  0.00  0.00    +0.125 A 
ATOM      3  C   UNL     1       7.816  -5.949   4.668  0.00  0.00    +0.046 A 
ATOM      4  C   UNL     1       9.039  -5.343   4.665  0.00  0.00    +0.015 A 
ATOM      5  C   UNL     1       9.126  -3.946   4.729  0.00  0.00    +0.019 A 
ATOM      6  C   UNL     1       7.949  -3.172   4.747  0.00  0.00    +0.147 A 
ATOM      7  O   UNL     1       8.028  -1.819   4.734  0.00  0.00    -0.421 OA
ATOM      8  C   UNL     1       9.150  -1.270   5.253  0.00  0.00    +0.345 A 
ATOM      9  O   UNL     1       9.104  -0.247   5.910  0.00  0.00    -0.245 OA
ATOM     10  C   UNL     1      10.429  -1.952   4.998  0.00  0.00    +0.067 A 
ATOM     11  C   UNL     1      10.391  -3.303   4.761  0.00  0.00    +0.027 A 
ENDROOT
BRANCH  10  12
ATOM     12  C   UNL     1      11.711  -1.209   5.008  0.00  0.00    -0.011 A 
ATOM     13  C   UNL     1      12.677  -1.493   5.973  0.00  0.00    +0.010 A 
ATOM     14  C   UNL     1      13.869  -0.798   5.977  0.00  0.00    +0.020 A 
ATOM     15  C   UNL     1      14.107   0.179   5.026  0.00  0.00    +0.041 A 
ATOM     16  C   UNL     1      13.152   0.465   4.066  0.00  0.00    +0.020 A 
ATOM     17  C   UNL     1      11.959  -0.228   4.048  0.00  0.00    +0.010 A 
ATOM     18 CL   UNL     1      15.609   1.050   5.038  0.00  0.00    -0.084 Cl
ENDBRANCH  10  12
BRANCH   2  19
ATOM     19  O   UNL     1       5.442  -5.806   4.738  0.00  0.00    -0.506 OA
ATOM     20  H   UNL     1       5.067  -5.959   3.860  0.00  0.00    +0.292 HD
ENDBRANCH   2  19
BRANCH   1  21
ATOM     21  C   UNL     1       5.450  -2.988   4.812  0.00  0.00    +0.126 C 
BRANCH  21  25
ATOM     22  N   UNL     1       4.153  -0.953   1.342  0.00  0.00    +0.384 N 
ATOM     23  C   UNL     1       3.207  -1.861   2.004  0.00  0.00    -0.063 C 
ATOM     24  C   UNL     1       3.657  -2.102   3.447  0.00  0.00    +0.066 C 
ATOM     25  N   UNL     1       5.005  -2.688   3.445  0.00  0.00    -0.301 NA
ATOM     26  C   UNL     1       5.958  -1.801   2.763  0.00  0.00    +0.066 C 
ATOM     27  C   UNL     1       5.489  -1.562   1.326  0.00  0.00    -0.063 C 
ATOM     28  H   UNL     1       4.188  -0.079   1.844  0.00  0.00    -0.081 HD
BRANCH  22  29
ATOM     29  C   UNL     1       3.711  -0.707  -0.038  0.00  0.00    -0.043 C 
BRANCH  29  33
ATOM     30  C   UNL     1      -0.017   1.378   0.010  0.00  0.00    +0.000 A 
ATOM     31  C   UNL     1       1.171   2.086   0.002  0.00  0.00    +0.000 A 
ATOM     32  C   UNL     1       2.377   1.411  -0.013  0.00  0.00    +0.002 A 
ATOM     33  C   UNL     1       2.396   0.029  -0.020  0.00  0.00    -0.064 A 
ATOM     34  C   UNL     1       1.208  -0.679  -0.012  0.00  0.00    +0.002 A 
ATOM     35  C   UNL     1       0.002  -0.004   0.002  0.00  0.00    +0.000 A 
ENDBRANCH  29  33
ENDBRANCH  22  29
ENDBRANCH  21  25
ENDBRANCH   1  21
TORSDOF 6
