REMARK  Name = ZINC12635486
REMARK  12 active torsions:
REMARK  status: ('A' for Active; 'I' for Inactive)
REMARK    1  A    between atoms: C_1  and  C_2
REMARK    2  A    between atoms: C_2  and  N_3
REMARK    3  A    between atoms: C_7  and  C_9
REMARK    4  A    between atoms: C_9  and  N_10
REMARK    5  A    between atoms: N_10  and  C_11
REMARK    6  A    between atoms: N_10  and  C_25
REMARK    7  A    between atoms: C_11  and  C_12
REMARK    8  A    between atoms: C_17  and  C_24
REMARK    9  A    between atoms: C_25  and  N_27
REMARK   10  A    between atoms: N_27  and  C_28
REMARK   11  A    between atoms: C_33  and  O_34
REMARK   12  A    between atoms: O_34  and  C_35
REMARK                            x       y       z     vdW  Elec       q    Type
REMARK                         _______ _______ _______ _____ _____    ______ ____
ROOT
ATOM      1  N   UNL     1       3.309  -1.683  -0.332  0.00  0.00    -0.309 N 
ENDROOT
BRANCH   1   2
ATOM      2  C   UNL     1       3.742  -0.445  -0.641  0.00  0.00    +0.137 C 
ATOM      3  S   UNL     1       5.005   0.271   0.266  0.00  0.00    -0.018 S 
BRANCH   2   4
ATOM      4  N   UNL     1       3.180   0.230  -1.663  0.00  0.00    -0.294 N 
ATOM      5  H   UNL     1       2.510  -0.199  -2.218  0.00  0.00    +0.154 HD
BRANCH   4   6
ATOM      6  C   UNL     1       3.565   1.552  -1.925  0.00  0.00    +0.075 A 
ATOM      7  C   UNL     1       3.774   2.436  -0.877  0.00  0.00    +0.027 A 
ATOM      8  C   UNL     1       4.154   3.739  -1.138  0.00  0.00    +0.002 A 
ATOM      9  C   UNL     1       4.325   4.165  -2.442  0.00  0.00    +0.004 A 
ATOM     10  C   UNL     1       4.118   3.289  -3.492  0.00  0.00    +0.047 A 
ATOM     11  C   UNL     1       3.743   1.980  -3.239  0.00  0.00    +0.141 A 
BRANCH  11  12
ATOM     12  O   UNL     1       3.544   1.116  -4.270  0.00  0.00    -0.493 OA
ATOM     13  C   UNL     1       3.745   1.625  -5.590  0.00  0.00    +0.277 C 
ENDBRANCH  11  12
ENDBRANCH   4   6
ENDBRANCH   2   4
ENDBRANCH   1   2
BRANCH   1  14
ATOM     14  C   UNL     1       2.297  -2.335  -1.167  0.00  0.00    +0.092 C 
BRANCH  14  19
ATOM     15  N   UNL     1       0.666  -0.647  -0.431  0.00  0.00    +0.382 N 
ATOM     16  C   UNL     1      -0.529  -0.294  -1.227  0.00  0.00    -0.078 C 
ATOM     17  C   UNL     1      -0.625  -1.399  -2.308  0.00  0.00    -0.020 C 
ATOM     18  C   UNL     1      -0.174  -2.653  -1.515  0.00  0.00    -0.016 C 
ATOM     19  C   UNL     1       0.910  -2.095  -0.569  0.00  0.00    -0.051 C 
ATOM     20  H   UNL     1       1.464  -0.135  -0.774  0.00  0.00    -0.081 HD
BRANCH  15  22
ATOM     21  C   UNL     1       0.305   1.199   1.136  0.00  0.00    -0.017 C 
ATOM     22  C   UNL     1       0.434  -0.317   0.982  0.00  0.00    -0.082 C 
ENDBRANCH  15  22
ENDBRANCH  14  19
ENDBRANCH   1  14
BRANCH   1  23
ATOM     23  C   UNL     1       3.849  -2.377   0.839  0.00  0.00    +0.147 C 
BRANCH  23  24
ATOM     24  C   UNL     1       5.062  -3.176   0.435  0.00  0.00    +0.035 A 
ATOM     25  C   UNL     1       6.301  -2.646   0.586  0.00  0.00    +0.020 A 
ATOM     26  C   UNL     1       7.458  -3.448   0.183  0.00  0.00    -0.001 A 
ATOM     27  C   UNL     1       8.761  -2.955   0.316  0.00  0.00    +0.010 A 
ATOM     28  C   UNL     1       9.819  -3.728  -0.069  0.00  0.00    +0.004 A 
ATOM     29  C   UNL     1       9.614  -4.999  -0.590  0.00  0.00    -0.048 A 
ATOM     30  C   UNL     1       8.339  -5.504  -0.730  0.00  0.00    +0.029 A 
ATOM     31  C   UNL     1       7.246  -4.735  -0.344  0.00  0.00    +0.049 A 
ATOM     32  N   UNL     1       5.960  -5.216  -0.472  0.00  0.00    -0.322 N 
ATOM     33  H   UNL     1       5.816  -6.103  -0.836  0.00  0.00    +0.169 HD
ATOM     34  C   UNL     1       4.904  -4.474  -0.095  0.00  0.00    +0.254 A 
ATOM     35  O   UNL     1       3.781  -4.934  -0.218  0.00  0.00    -0.268 OA
ATOM     36  C   UNL     1      10.797  -5.833  -1.008  0.00  0.00    +0.044 C 
ENDBRANCH  23  24
ENDBRANCH   1  23
TORSDOF 9
