REMARK  Name = ZINC20578134
REMARK  5 active torsions:
REMARK  status: ('A' for Active; 'I' for Inactive)
REMARK    1  A    between atoms: C_1  and  C_2
REMARK    2  A    between atoms: C_7  and  N_8
REMARK    3  A    between atoms: C_9  and  C_11
REMARK    4  A    between atoms: C_11  and  S_12
REMARK    5  A    between atoms: S_12  and  C_13
REMARK                            x       y       z     vdW  Elec       q    Type
REMARK                         _______ _______ _______ _____ _____    ______ ____
ROOT
ATOM      1  C   UNL     1       0.158   0.934   2.735  0.00  0.00    +0.103 C 
ATOM      2  N   UNL     1       1.190   0.211   2.394  0.00  0.00    -0.251 NA
ATOM      3  C   UNL     1       2.061  -0.403   3.392  0.00  0.00    +0.126 C 
ATOM      4  C   UNL     1       1.574  -1.832   3.696  0.00  0.00    +0.050 C 
ATOM      5  C   UNL     1       2.440  -2.730   2.776  0.00  0.00    +0.004 C 
ATOM      6  C   UNL     1       3.823  -2.034   2.823  0.00  0.00    +0.004 C 
ATOM      7  C   UNL     1       3.489  -0.527   2.840  0.00  0.00    +0.050 C 
ATOM      8  N   UNL     1       2.077   0.383   4.631  0.00  0.00    -0.320 N 
ATOM      9  C   UNL     1       0.859   0.865   5.109  0.00  0.00    +0.039 A 
ATOM     10  C   UNL     1      -0.147   1.139   4.166  0.00  0.00    +0.027 A 
ATOM     11  C   UNL     1      -1.389   1.593   4.595  0.00  0.00    +0.012 A 
ATOM     12  C   UNL     1      -1.617   1.778   5.945  0.00  0.00    +0.001 A 
ATOM     13  C   UNL     1      -0.621   1.515   6.869  0.00  0.00    +0.002 A 
ATOM     14  C   UNL     1       0.618   1.058   6.456  0.00  0.00    +0.023 A 
ATOM     15  H   UNL     1       3.029   0.574   5.149  0.00  0.00    +0.148 HD
ENDROOT
BRANCH   1  16
ATOM     16  S   UNL     1      -0.869   1.655   1.497  0.00  0.00    -0.096 S 
BRANCH  16  17
ATOM     17  C   UNL     1      -0.021   1.073   0.008  0.00  0.00    +0.171 C 
BRANCH  17  19
ATOM     18  N   UNL     1      -0.288   1.272  -2.443  0.00  0.00    -0.285 N 
ATOM     19  C   UNL     1      -0.743   1.582  -1.213  0.00  0.00    +0.227 C 
ATOM     20  O   UNL     1      -1.734   2.271  -1.088  0.00  0.00    -0.275 OA
ATOM     21  H   UNL     1       0.659   0.725  -2.558  0.00  0.00    +0.155 HD
BRANCH  18  28
ATOM     22  C   UNL     1       1.104   1.578  -4.906  0.00  0.00    +0.045 C 
ATOM     23  C   UNL     1      -0.382   1.807  -4.796  0.00  0.00    -0.029 A 
ATOM     24  C   UNL     1      -1.108   2.176  -5.912  0.00  0.00    +0.005 A 
ATOM     25  C   UNL     1      -2.471   2.386  -5.812  0.00  0.00    +0.000 A 
ATOM     26  C   UNL     1      -3.112   2.226  -4.597  0.00  0.00    +0.002 A 
ATOM     27  C   UNL     1      -2.392   1.853  -3.479  0.00  0.00    +0.023 A 
ATOM     28  C   UNL     1      -1.022   1.646  -3.575  0.00  0.00    +0.036 A 
ENDBRANCH  18  28
ENDBRANCH  17  19
ENDBRANCH  16  17
ENDBRANCH   1  16
TORSDOF 4
