REMARK  Name = ZINC46780793
REMARK  9 active torsions:
REMARK  status: ('A' for Active; 'I' for Inactive)
REMARK    1  A    between atoms: C_1  and  C_2
REMARK    2  A    between atoms: N_8  and  C_9
REMARK    3  A    between atoms: C_9  and  C_10
REMARK    4  A    between atoms: C_13  and  C_16
REMARK    5  A    between atoms: C_16  and  N_17
REMARK    6  A    between atoms: C_18  and  C_20
REMARK    7  A    between atoms: C_20  and  S_21
REMARK    8  A    between atoms: S_21  and  C_22
REMARK    9  A    between atoms: C_22  and  C_23
REMARK                            x       y       z     vdW  Elec       q    Type
REMARK                         _______ _______ _______ _____ _____    ______ ____
ROOT
ATOM      1  N   UNL     1       4.288  -2.261   6.645  0.00  0.00    -0.311 N 
ATOM      2  C   UNL     1       5.150  -2.728   7.570  0.00  0.00    +0.223 C 
ATOM      3  O   UNL     1       4.964  -2.493   8.745  0.00  0.00    -0.275 OA
ATOM      4  H   UNL     1       4.437  -2.449   5.705  0.00  0.00    +0.149 HD
ENDROOT
BRANCH   1   5
ATOM      5  C   UNL     1       3.126  -1.471   7.059  0.00  0.00    +0.139 C 
BRANCH   5   9
ATOM      6  C   UNL     1       0.865  -0.347   3.613  0.00  0.00    -0.064 A 
ATOM      7  C   UNL     1       0.585  -1.532   4.268  0.00  0.00    +0.002 A 
ATOM      8  C   UNL     1       1.316  -1.895   5.383  0.00  0.00    +0.005 A 
ATOM      9  C   UNL     1       2.329  -1.075   5.843  0.00  0.00    -0.030 A 
ATOM     10  C   UNL     1       2.610   0.110   5.187  0.00  0.00    +0.005 A 
ATOM     11  C   UNL     1       1.881   0.471   4.070  0.00  0.00    +0.002 A 
BRANCH   6  12
ATOM     12  C   UNL     1       0.067   0.050   2.397  0.00  0.00    -0.043 C 
BRANCH  12  19
ATOM     13  C   UNL     1      -0.019   1.526   0.010  0.00  0.00    -0.013 C 
ATOM     14  C   UNL     1       0.002  -0.004   0.002  0.00  0.00    -0.071 C 
ATOM     15  C   UNL     1       0.717  -0.497  -1.258  0.00  0.00    -0.016 C 
ATOM     16  C   UNL     1       0.735  -2.028  -1.262  0.00  0.00    -0.003 C 
ATOM     17  C   UNL     1       1.410  -2.524   0.020  0.00  0.00    -0.019 C 
ATOM     18  C   UNL     1       0.669  -1.956   1.232  0.00  0.00    -0.078 C 
ATOM     19  N   UNL     1       0.711  -0.490   1.192  0.00  0.00    +0.384 N 
ATOM     20  H   UNL     1       1.671  -0.182   1.159  0.00  0.00    -0.081 HD
ENDBRANCH  12  19
ENDBRANCH   6  12
ENDBRANCH   5   9
ENDBRANCH   1   5
BRANCH   2  21
ATOM     21  C   UNL     1       6.345  -3.541   7.144  0.00  0.00    +0.165 C 
BRANCH  21  22
ATOM     22  S   UNL     1       7.305  -4.017   8.608  0.00  0.00    -0.144 S 
BRANCH  22  23
ATOM     23  C   UNL     1       8.688  -4.976   7.932  0.00  0.00    +0.143 C 
BRANCH  23  24
ATOM     24  C   UNL     1       9.576  -5.440   9.059  0.00  0.00    +0.121 A 
ATOM     25  N   UNL     1      10.682  -6.175   8.776  0.00  0.00    -0.310 N 
ATOM     26  H   UNL     1      10.886  -6.391   7.853  0.00  0.00    +0.170 HD
ATOM     27  C   UNL     1      11.502  -6.609   9.752  0.00  0.00    +0.260 A 
ATOM     28  O   UNL     1      12.492  -7.268   9.484  0.00  0.00    -0.267 OA
ATOM     29  C   UNL     1      11.190  -6.282  11.111  0.00  0.00    +0.075 A 
ATOM     30  C   UNL     1      11.935  -6.646  12.326  0.00  0.00    -0.023 A 
ATOM     31  C   UNL     1      11.434  -6.217  13.497  0.00  0.00    -0.004 A 
ATOM     32  S   UNL     1       9.964  -5.313  13.065  0.00  0.00    -0.073 S 
ATOM     33  C   UNL     1      10.030  -5.520  11.305  0.00  0.00    +0.116 A 
ATOM     34  N   UNL     1       9.270  -5.122  10.288  0.00  0.00    -0.226 NA
ATOM     35  C   UNL     1      12.274  -6.652  14.668  0.00  0.00    +0.043 C 
ATOM     36  C   UNL     1      13.157  -7.790  14.110  0.00  0.00    +0.010 C 
ATOM     37  C   UNL     1      13.216  -7.434  12.611  0.00  0.00    +0.037 C 
ENDBRANCH  23  24
ENDBRANCH  22  23
ENDBRANCH  21  22
ENDBRANCH   2  21
TORSDOF 8
