REMARK  Name = ZINC15732569
REMARK  7 active torsions:
REMARK  status: ('A' for Active; 'I' for Inactive)
REMARK    1  A    between atoms: C_1  and  C_2
REMARK    2  A    between atoms: C_12  and  C_14
REMARK    3  A    between atoms: C_14  and  S_15
REMARK    4  A    between atoms: S_15  and  C_16
REMARK    5  A    between atoms: C_18  and  C_27
REMARK    6  A    between atoms: C_32  and  O_33
REMARK    7  A    between atoms: O_33  and  C_34
REMARK                            x       y       z     vdW  Elec       q    Type
REMARK                         _______ _______ _______ _____ _____    ______ ____
ROOT
ATOM      1  C   UNL     1       1.420  -1.279  -6.266  0.00  0.00    +0.192 A 
ATOM      2  N   UNL     1       2.468  -1.937  -5.798  0.00  0.00    -0.202 NA
ATOM      3  C   UNL     1       3.346  -2.506  -6.629  0.00  0.00    +0.168 A 
ATOM      4  N   UNL     1       3.194  -2.429  -7.945  0.00  0.00    -0.208 NA
ATOM      5  C   UNL     1       2.150  -1.775  -8.462  0.00  0.00    +0.162 A 
ATOM      6  N   UNL     1       1.232  -1.187  -7.615  0.00  0.00    -0.210 N 
ATOM      7  N   UNL     1       0.254  -0.572  -8.403  0.00  0.00    -0.256 N 
ATOM      8  H   UNL     1      -0.514  -0.081  -8.072  0.00  0.00    +0.191 HD
ATOM      9  C   UNL     1       0.556  -0.782  -9.699  0.00  0.00    +0.267 A 
ATOM     10  O   UNL     1      -0.091  -0.386 -10.655  0.00  0.00    -0.266 OA
ATOM     11  C   UNL     1       1.732  -1.529  -9.764  0.00  0.00    +0.119 A 
ENDROOT
BRANCH   3  12
ATOM     12  C   UNL     1       4.508  -3.233  -6.072  0.00  0.00    +0.061 A 
ATOM     13  C   UNL     1       5.488  -3.745  -6.924  0.00  0.00    +0.015 A 
ATOM     14  C   UNL     1       6.571  -4.418  -6.399  0.00  0.00    +0.001 A 
ATOM     15  C   UNL     1       6.685  -4.598  -5.030  0.00  0.00    +0.004 A 
ATOM     16  C   UNL     1       5.719  -4.101  -4.178  0.00  0.00    +0.046 A 
ATOM     17  C   UNL     1       4.626  -3.417  -4.689  0.00  0.00    +0.131 A 
BRANCH  17  18
ATOM     18  O   UNL     1       3.676  -2.927  -3.853  0.00  0.00    -0.494 OA
ATOM     19  C   UNL     1       3.918  -3.056  -2.450  0.00  0.00    +0.277 C 
ENDBRANCH  17  18
ENDBRANCH   3  12
BRANCH   1  20
ATOM     20  S   UNL     1       0.271  -0.535  -5.157  0.00  0.00    -0.077 S 
BRANCH  20  21
ATOM     21  C   UNL     1      -0.715   0.432  -6.328  0.00  0.00    +0.173 C 
BRANCH  21  32
ATOM     22  C   UNL     1      -4.575   2.210  -5.146  0.00  0.00    +0.029 C 
ATOM     23  C   UNL     1      -3.421   3.094  -5.624  0.00  0.00    +0.083 C 
ATOM     24  C   UNL     1      -3.895   4.025  -6.753  0.00  0.00    +0.059 C 
ATOM     25  C   UNL     1      -3.041   3.646  -7.942  0.00  0.00    -0.024 A 
ATOM     26  C   UNL     1      -3.014   4.139  -9.232  0.00  0.00    +0.005 A 
ATOM     27  C   UNL     1      -2.127   3.620 -10.156  0.00  0.00    +0.000 A 
ATOM     28  C   UNL     1      -1.265   2.604  -9.786  0.00  0.00    +0.002 A 
ATOM     29  C   UNL     1      -1.288   2.108  -8.500  0.00  0.00    +0.024 A 
ATOM     30  C   UNL     1      -2.181   2.628  -7.561  0.00  0.00    +0.040 A 
ATOM     31  N   UNL     1      -2.364   2.272  -6.219  0.00  0.00    -0.267 N 
ATOM     32  C   UNL     1      -1.671   1.317  -5.569  0.00  0.00    +0.230 C 
ATOM     33  O   UNL     1      -1.816   1.168  -4.374  0.00  0.00    -0.274 OA
ENDBRANCH  21  32
ENDBRANCH  20  21
ENDBRANCH   1  20
TORSDOF 5
