REMARK  Name = ZINC66925782
REMARK  9 active torsions:
REMARK  status: ('A' for Active; 'I' for Inactive)
REMARK    1  A    between atoms: C_1  and  C_2
REMARK    2  A    between atoms: C_5  and  C_11
REMARK    3  A    between atoms: C_6  and  C_10
REMARK    4  A    between atoms: C_7  and  O_8
REMARK    5  A    between atoms: O_8  and  C_9
REMARK    6  A    between atoms: C_11  and  N_12
REMARK    7  A    between atoms: N_15  and  C_16
REMARK    8  A    between atoms: C_16  and  C_17
REMARK    9  A    between atoms: C_17  and  O_27
REMARK                            x       y       z     vdW  Elec       q    Type
REMARK                         _______ _______ _______ _____ _____    ______ ____
ROOT
ATOM      1  N   UNL     1       1.482  -4.726   0.192  0.00  0.00    -0.294 N 
ATOM      2  C   UNL     1       1.732  -6.028  -0.053  0.00  0.00    +0.300 C 
ATOM      3  O   UNL     1       0.810  -6.803  -0.221  0.00  0.00    -0.253 OA
ATOM      4  N   UNL     1       3.003  -6.471  -0.113  0.00  0.00    -0.296 N 
ATOM      5  H   UNL     1       2.218  -4.108   0.326  0.00  0.00    +0.151 HD
ATOM      6  H   UNL     1       3.739  -5.853   0.021  0.00  0.00    +0.150 HD
ENDROOT
BRANCH   1   7
ATOM      7  C   UNL     1       0.100  -4.245   0.256  0.00  0.00    +0.161 C 
BRANCH   7  12
ATOM      8  C   UNL     1       0.087   1.409   1.228  0.00  0.00    +0.049 C 
ATOM      9  C   UNL     1       0.089  -0.082   1.012  0.00  0.00    +0.010 A 
ATOM     10  C   UNL     1       0.115  -0.604  -0.265  0.00  0.00    +0.118 A 
ATOM     11  N   UNL     1       0.118  -1.909  -0.463  0.00  0.00    -0.258 NA
ATOM     12  C   UNL     1       0.096  -2.765   0.541  0.00  0.00    +0.065 A 
ATOM     13  C   UNL     1       0.070  -2.323   1.847  0.00  0.00    +0.014 A 
ATOM     14  C   UNL     1       0.072  -0.953   2.099  0.00  0.00    +0.129 A 
ATOM     15  C   UNL     1       0.046  -3.309   2.987  0.00  0.00    +0.049 C 
BRANCH  14  16
ATOM     16  O   UNL     1       0.052  -0.479   3.370  0.00  0.00    -0.494 OA
ATOM     17  C   UNL     1      -1.231  -0.251   3.958  0.00  0.00    +0.277 C 
ENDBRANCH  14  16
ENDBRANCH   7  12
ENDBRANCH   1   7
BRANCH   4  18
ATOM     18  C   UNL     1       3.275  -7.886  -0.379  0.00  0.00    +0.145 C 
BRANCH  18  19
ATOM     19  C   UNL     1       4.783  -8.097  -0.525  0.00  0.00    +0.107 C 
ATOM     20  C   UNL     1       5.314  -7.191  -1.634  0.00  0.00    +0.041 C 
ATOM     21  C   UNL     1       6.773  -7.572  -1.912  0.00  0.00    +0.008 C 
ATOM     22  C   UNL     1       6.793  -8.944  -2.583  0.00  0.00    +0.035 C 
ATOM     23  C   UNL     1       5.979  -9.932  -1.790  0.00  0.00    -0.041 A 
ATOM     24  C   UNL     1       5.053  -9.543  -0.848  0.00  0.00    -0.011 A 
ATOM     25  C   UNL     1       4.330 -10.506  -0.155  0.00  0.00    +0.007 A 
ATOM     26  C   UNL     1       4.534 -11.848  -0.402  0.00  0.00    +0.000 A 
ATOM     27  C   UNL     1       5.466 -12.239  -1.345  0.00  0.00    +0.000 A 
ATOM     28  C   UNL     1       6.184 -11.284  -2.035  0.00  0.00    +0.004 A 
BRANCH  19  29
ATOM     29  O   UNL     1       5.427  -7.761   0.706  0.00  0.00    -0.382 OA
ATOM     30  H   UNL     1       5.134  -8.290   1.460  0.00  0.00    +0.211 HD
ENDBRANCH  19  29
ENDBRANCH  18  19
ENDBRANCH   4  18
TORSDOF 6
