REMARK  Name = ZINC23336643
REMARK  8 active torsions:
REMARK  status: ('A' for Active; 'I' for Inactive)
REMARK    1  A    between atoms: C_1  and  S_2
REMARK    2  A    between atoms: S_2  and  C_3
REMARK    3  A    between atoms: C_6  and  C_22
REMARK    4  A    between atoms: C_7  and  N_9
REMARK    5  A    between atoms: N_12  and  C_15
REMARK    6  A    between atoms: C_22  and  N_23
REMARK    7  A    between atoms: N_23  and  C_24
REMARK    8  A    between atoms: C_24  and  C_25
REMARK                            x       y       z     vdW  Elec       q    Type
REMARK                         _______ _______ _______ _____ _____    ______ ____
ROOT
ATOM      1  C   UNL     1      -0.426   3.469   0.121  0.00  0.00    +0.190 A 
ATOM      2  N   UNL     1       0.014   4.207  -0.888  0.00  0.00    -0.230 NA
ATOM      3  C   UNL     1       0.054   5.528  -0.799  0.00  0.00    +0.118 A 
ATOM      4  C   UNL     1      -0.360   6.139   0.369  0.00  0.00    -0.006 A 
ATOM      5  C   UNL     1      -0.813   5.336   1.417  0.00  0.00    +0.127 A 
ATOM      6  N   UNL     1      -0.831   4.016   1.258  0.00  0.00    -0.207 NA
ENDROOT
BRANCH   5   7
ATOM      7  N   UNL     1      -1.238   5.905   2.606  0.00  0.00    -0.312 N 
ATOM      8  C   UNL     1      -0.420   5.440   3.735  0.00  0.00    +0.125 C 
ATOM      9  C   UNL     1      -0.869   6.151   5.014  0.00  0.00    +0.124 C 
ATOM     10  N   UNL     1      -2.293   5.876   5.251  0.00  0.00    -0.325 N 
ATOM     11  C   UNL     1      -3.111   6.342   4.122  0.00  0.00    +0.124 C 
ATOM     12  C   UNL     1      -2.662   5.631   2.843  0.00  0.00    +0.125 C 
BRANCH  10  13
ATOM     13  C   UNL     1      -2.722   6.451   6.451  0.00  0.00    +0.065 A 
ATOM     14  C   UNL     1      -4.021   6.246   6.896  0.00  0.00    +0.026 A 
ATOM     15  C   UNL     1      -4.441   6.813   8.084  0.00  0.00    +0.002 A 
ATOM     16  C   UNL     1      -3.572   7.591   8.826  0.00  0.00    +0.003 A 
ATOM     17  C   UNL     1      -2.278   7.802   8.385  0.00  0.00    +0.040 A 
ATOM     18  C   UNL     1      -1.850   7.235   7.199  0.00  0.00    +0.144 A 
ATOM     19  F   UNL     1      -0.586   7.442   6.768  0.00  0.00    -0.204 F 
ENDBRANCH  10  13
ENDBRANCH   5   7
BRANCH   1  21
ATOM     20  C   UNL     1       0.174   1.550  -1.735  0.00  0.00    +0.093 C 
ATOM     21  S   UNL     1      -0.466   1.716  -0.050  0.00  0.00    -0.089 S 
ENDBRANCH   1  21
BRANCH   4  22
ATOM     22  C   UNL     1      -0.323   7.639   0.508  0.00  0.00    -0.041 C 
BRANCH  22  23
ATOM     23  N   UNL     1       0.849   8.029   1.302  0.00  0.00    +0.385 N 
ATOM     24  H   UNL     1       0.770   7.596   2.310  0.00  0.00    -0.085 HD
ATOM     25  H   UNL     1       1.763   7.657   0.815  0.00  0.00    -0.085 HD
BRANCH  23  26
ATOM     26  C   UNL     1       0.941   9.490   1.424  0.00  0.00    -0.043 C 
BRANCH  26  27
ATOM     27  C   UNL     1       2.163   9.851   2.228  0.00  0.00    -0.026 A 
ATOM     28  C   UNL     1       3.284  10.354   1.595  0.00  0.00    +0.005 A 
ATOM     29  C   UNL     1       4.406  10.685   2.331  0.00  0.00    +0.003 A 
ATOM     30  C   UNL     1       4.409  10.515   3.703  0.00  0.00    +0.041 A 
ATOM     31  C   UNL     1       3.288  10.014   4.341  0.00  0.00    +0.159 A 
ATOM     32  C   UNL     1       2.161   9.686   3.602  0.00  0.00    +0.160 A 
ATOM     33  F   UNL     1       1.063   9.201   4.223  0.00  0.00    -0.202 F 
ATOM     34  F   UNL     1       3.290   9.848   5.681  0.00  0.00    -0.202 F 
ENDBRANCH  26  27
ENDBRANCH  23  26
ENDBRANCH  22  23
ENDBRANCH   4  22
TORSDOF 7
