REMARK  Name = ZINC12555013
REMARK  5 active torsions:
REMARK  status: ('A' for Active; 'I' for Inactive)
REMARK    1  A    between atoms: N_9  and  C_24
REMARK    2  A    between atoms: C_10  and  C_13
REMARK    3  A    between atoms: C_17  and  N_20
REMARK    4  A    between atoms: C_18  and  O_19
REMARK    5  A    between atoms: C_24  and  C_25
REMARK                            x       y       z     vdW  Elec       q    Type
REMARK                         _______ _______ _______ _____ _____    ______ ____
ROOT
ATOM      1  C   UNL     1      -0.278   1.386   0.393  0.00  0.00    +0.001 A 
ATOM      2  C   UNL     1       0.860   2.160   0.223  0.00  0.00    +0.002 A 
ATOM      3  C   UNL     1       2.094   1.565   0.041  0.00  0.00    +0.024 A 
ATOM      4  C   UNL     1       2.193   0.185   0.030  0.00  0.00    +0.041 A 
ATOM      5  C   UNL     1       1.042  -0.604   0.205  0.00  0.00    +0.058 A 
ATOM      6  C   UNL     1      -0.195   0.009   0.385  0.00  0.00    +0.015 A 
ATOM      7  C   UNL     1       1.188  -2.071   0.196  0.00  0.00    +0.250 C 
ATOM      8  O   UNL     1       0.282  -2.781   0.587  0.00  0.00    -0.270 OA
ATOM      9  N   UNL     1       2.339  -2.616  -0.251  0.00  0.00    -0.272 N 
ATOM     10  C   UNL     1       3.409  -1.783  -0.799  0.00  0.00    +0.196 C 
ATOM     11  N   UNL     1       3.409  -0.464  -0.155  0.00  0.00    -0.321 N 
ATOM     12  H   UNL     1       4.239  -0.055   0.136  0.00  0.00    +0.148 HD
ENDROOT
BRANCH  10  13
ATOM     13  C   UNL     1       3.196  -1.610  -2.281  0.00  0.00    +0.036 A 
ATOM     14  C   UNL     1       2.435  -2.526  -2.982  0.00  0.00    +0.030 A 
ATOM     15  C   UNL     1       2.239  -2.368  -4.342  0.00  0.00    +0.044 A 
ATOM     16  C   UNL     1       2.805  -1.292  -5.004  0.00  0.00    +0.056 A 
ATOM     17  C   UNL     1       3.567  -0.374  -4.307  0.00  0.00    +0.169 A 
ATOM     18  C   UNL     1       3.760  -0.529  -2.942  0.00  0.00    +0.154 A 
ATOM     19 CL   UNL     1       1.283  -3.520  -5.221  0.00  0.00    -0.083 Cl
BRANCH  17  20
ATOM     20  N   UNL     1       4.172   0.776  -5.015  0.00  0.00    +0.060 N 
ATOM     21  O   UNL     1       4.000   0.912  -6.204  0.00  0.00    -0.126 OA
ATOM     22  O   UNL     1       4.839   1.579  -4.405  0.00  0.00    -0.126 OA
ENDBRANCH  17  20
BRANCH  18  23
ATOM     23  O   UNL     1       4.505   0.376  -2.253  0.00  0.00    -0.504 OA
ATOM     24  H   UNL     1       5.447   0.162  -2.214  0.00  0.00    +0.292 HD
ENDBRANCH  18  23
ENDBRANCH  10  13
BRANCH   9  25
ATOM     25  C   UNL     1       2.519  -4.068  -0.185  0.00  0.00    +0.141 C 
BRANCH  25  26
ATOM     26  C   UNL     1       3.033  -4.456   1.203  0.00  0.00    +0.136 C 
ATOM     27  C   UNL     1       3.238  -5.989   1.292  0.00  0.00    +0.035 C 
ATOM     28  C   UNL     1       4.304  -6.079   2.418  0.00  0.00    +0.031 C 
ATOM     29  C   UNL     1       5.143  -4.805   2.178  0.00  0.00    +0.160 C 
ATOM     30  O   UNL     1       4.333  -3.888   1.430  0.00  0.00    -0.375 OA
ENDBRANCH  25  26
ENDBRANCH   9  25
TORSDOF 5
