REMARK  Name = ZINC58008921
REMARK  5 active torsions:
REMARK  status: ('A' for Active; 'I' for Inactive)
REMARK    1  A    between atoms: C_1  and  C_2
REMARK    2  A    between atoms: C_2  and  N_3
REMARK    3  A    between atoms: C_14  and  N_16
REMARK    4  A    between atoms: C_17  and  C_19
REMARK    5  A    between atoms: C_19  and  C_20
REMARK                            x       y       z     vdW  Elec       q    Type
REMARK                         _______ _______ _______ _____ _____    ______ ____
ROOT
ATOM      1  N   UNL     1       5.972  -1.675  -2.393  0.00  0.00    -0.285 N 
ATOM      2  C   UNL     1       6.353  -1.602  -3.684  0.00  0.00    +0.218 C 
ATOM      3  O   UNL     1       5.585  -1.176  -4.520  0.00  0.00    -0.275 OA
ATOM      4  H   UNL     1       6.610  -1.943  -1.714  0.00  0.00    +0.155 HD
ENDROOT
BRANCH   1  16
ATOM      5  N   UNL     1       0.677  -0.533  -1.194  0.00  0.00    -0.340 N 
ATOM      6  C   UNL     1       0.037  -0.980  -2.336  0.00  0.00    +0.050 A 
ATOM      7  C   UNL     1      -1.302  -0.997  -2.713  0.00  0.00    +0.026 A 
ATOM      8  C   UNL     1      -1.668  -1.513  -3.938  0.00  0.00    +0.002 A 
ATOM      9  C   UNL     1      -0.711  -2.020  -4.803  0.00  0.00    +0.001 A 
ATOM     10  C   UNL     1       0.621  -2.013  -4.447  0.00  0.00    +0.010 A 
ATOM     11  C   UNL     1       1.004  -1.494  -3.213  0.00  0.00    +0.008 A 
ATOM     12  C   UNL     1       2.306  -1.338  -2.539  0.00  0.00    +0.009 A 
ATOM     13  C   UNL     1       2.044  -0.735  -1.300  0.00  0.00    +0.050 A 
ATOM     14  C   UNL     1       3.100  -0.457  -0.438  0.00  0.00    +0.028 A 
ATOM     15  C   UNL     1       4.391  -0.769  -0.802  0.00  0.00    +0.025 A 
ATOM     16  C   UNL     1       4.654  -1.364  -2.033  0.00  0.00    +0.034 A 
ATOM     17  C   UNL     1       3.614  -1.655  -2.899  0.00  0.00    +0.034 A 
BRANCH   5  19
ATOM     18  C   UNL     1      -0.080   1.587  -0.239  0.00  0.00    +0.027 C 
ATOM     19  C   UNL     1       0.007   0.073  -0.041  0.00  0.00    +0.119 C 
ENDBRANCH   5  19
ENDBRANCH   1  16
BRANCH   2  20
ATOM     20  C   UNL     1       7.734  -2.050  -4.088  0.00  0.00    +0.113 C 
BRANCH  20  21
ATOM     21  C   UNL     1       7.909  -1.864  -5.597  0.00  0.00    +0.116 C 
ATOM     22  C   UNL     1       9.260  -2.377  -6.040  0.00  0.00    -0.014 A 
ATOM     23  C   UNL     1       9.849  -3.621  -5.998  0.00  0.00    +0.006 A 
ATOM     24  C   UNL     1      11.131  -3.795  -6.491  0.00  0.00    +0.000 A 
ATOM     25  C   UNL     1      11.815  -2.717  -7.024  0.00  0.00    +0.002 A 
ATOM     26  C   UNL     1      11.226  -1.470  -7.067  0.00  0.00    +0.023 A 
ATOM     27  C   UNL     1       9.936  -1.287  -6.573  0.00  0.00    +0.037 A 
ATOM     28  N   UNL     1       9.139  -0.144  -6.505  0.00  0.00    -0.285 N 
ATOM     29  C   UNL     1       7.937  -0.392  -5.950  0.00  0.00    +0.225 C 
ATOM     30  O   UNL     1       7.046   0.409  -5.767  0.00  0.00    -0.275 OA
ATOM     31  H   UNL     1       9.417   0.729  -6.822  0.00  0.00    +0.155 HD
ENDBRANCH  20  21
ENDBRANCH   2  20
TORSDOF 4
