REMARK  Name = ZINC02890956
REMARK  10 active torsions:
REMARK  status: ('A' for Active; 'I' for Inactive)
REMARK    1  A    between atoms: C_1  and  C_2
REMARK    2  A    between atoms: C_2  and  C_3
REMARK    3  A    between atoms: C_13  and  S_15
REMARK    4  A    between atoms: S_15  and  C_16
REMARK    5  A    between atoms: C_16  and  C_17
REMARK    6  A    between atoms: C_22  and  C_25
REMARK    7  A    between atoms: C_28  and  C_31
REMARK    8  A    between atoms: C_31  and  C_32
REMARK    9  A    between atoms: C_31  and  C_33
REMARK   10  A    between atoms: C_31  and  C_34
REMARK                            x       y       z     vdW  Elec       q    Type
REMARK                         _______ _______ _______ _____ _____    ______ ____
ROOT
ATOM      1  C   UNL     1      -4.117   1.325   0.029  0.00  0.00    +0.230 C 
ATOM      2  O   UNL     1      -4.322   2.520   0.036  0.00  0.00    -0.274 OA
ATOM      3  N   UNL     1      -5.153   0.464   0.029  0.00  0.00    -0.253 N 
ATOM      4  C   UNL     1      -6.464   0.948   0.038  0.00  0.00    +0.230 A 
ATOM      5  N   UNL     1      -7.476   0.112   0.033  0.00  0.00    -0.205 NA
ATOM      6  C   UNL     1      -8.709   0.605   0.047  0.00  0.00    +0.130 A 
ATOM      7  S   UNL     1      -8.402   2.313   0.054  0.00  0.00    +0.035 S 
ATOM      8  N   UNL     1      -6.691   2.246   0.046  0.00  0.00    -0.174 NA
ATOM      9  H   UNL     1      -4.989  -0.492   0.023  0.00  0.00    +0.158 HD
ENDROOT
BRANCH   6  10
ATOM     10  C   UNL     1     -10.003  -0.111   0.050  0.00  0.00    +0.009 A 
ATOM     11  C   UNL     1     -10.032  -1.506   0.036  0.00  0.00    +0.011 A 
ATOM     12  C   UNL     1     -11.242  -2.169   0.044  0.00  0.00    +0.005 A 
ATOM     13  C   UNL     1     -12.426  -1.453   0.053  0.00  0.00    -0.042 A 
ATOM     14  C   UNL     1     -12.404  -0.070   0.060  0.00  0.00    +0.005 A 
ATOM     15  C   UNL     1     -11.201   0.605   0.059  0.00  0.00    +0.011 A 
BRANCH  13  16
ATOM     16  C   UNL     1     -13.744  -2.183   0.055  0.00  0.00    -0.013 C 
ATOM     17  C   UNL     1     -14.545  -1.793  -1.189  0.00  0.00    +0.015 C 
ATOM     18  C   UNL     1     -13.491  -3.692   0.046  0.00  0.00    +0.015 C 
ATOM     19  C   UNL     1     -14.534  -1.806   1.309  0.00  0.00    +0.015 C 
ENDBRANCH  13  16
ENDBRANCH   6  10
BRANCH   1  20
ATOM     20  C   UNL     1      -2.703   0.803   0.019  0.00  0.00    +0.172 C 
BRANCH  20  21
ATOM     21  S   UNL     1      -1.546   2.195   0.021  0.00  0.00    -0.096 S 
BRANCH  21  32
ATOM     22  C   UNL     1       1.130  -0.691  -0.012  0.00  0.00    +0.131 A 
ATOM     23  N   UNL     1       2.304  -0.090  -0.019  0.00  0.00    -0.225 NA
ATOM     24  C   UNL     1       2.376   1.227  -0.012  0.00  0.00    +0.113 A 
ATOM     25  C   UNL     1       1.219   2.026   0.001  0.00  0.00    +0.043 A 
ATOM     26  C   UNL     1       1.441   3.481   0.005  0.00  0.00    -0.025 A 
ATOM     27  C   UNL     1       2.717   3.900  -0.001  0.00  0.00    -0.004 A 
ATOM     28  S   UNL     1       3.693   2.414  -0.015  0.00  0.00    -0.073 S 
ATOM     29  C   UNL     1       2.822   5.402   0.009  0.00  0.00    +0.043 C 
ATOM     30  C   UNL     1       1.426   5.885   0.460  0.00  0.00    +0.010 C 
ATOM     31  C   UNL     1       0.530   4.712   0.015  0.00  0.00    +0.037 C 
ATOM     32  C   UNL     1      -0.016   1.321   0.009  0.00  0.00    +0.109 A 
ATOM     33  N   UNL     1       0.002  -0.004   0.002  0.00  0.00    -0.225 NA
BRANCH  22  35
ATOM     34  C   UNL     1       1.041  -2.699  -1.466  0.00  0.00    +0.012 C 
ATOM     35  C   UNL     1       1.073  -2.197  -0.020  0.00  0.00    +0.073 C 
ENDBRANCH  22  35
ENDBRANCH  21  32
ENDBRANCH  20  21
ENDBRANCH   1  20
TORSDOF 6
