REMARK  Name = ZINC39661468
REMARK  12 active torsions:
REMARK  status: ('A' for Active; 'I' for Inactive)
REMARK    1  A    between atoms: C_1  and  C_2
REMARK    2  A    between atoms: C_2  and  C_3
REMARK    3  A    between atoms: C_3  and  C_4
REMARK    4  A    between atoms: C_4  and  C_6
REMARK    5  A    between atoms: C_4  and  C_7
REMARK    6  A    between atoms: C_11  and  C_20
REMARK    7  A    between atoms: N_22  and  C_23
REMARK    8  A    between atoms: C_23  and  C_24
REMARK    9  A    between atoms: C_27  and  O_32
REMARK   10  A    between atoms: C_29  and  O_30
REMARK   11  A    between atoms: O_30  and  C_31
REMARK   12  A    between atoms: O_32  and  C_33
REMARK                            x       y       z     vdW  Elec       q    Type
REMARK                         _______ _______ _______ _____ _____    ______ ____
ROOT
ATOM      1  C   UNL     1       1.319  -2.780   2.745  0.00  0.00    +0.218 C 
ATOM      2  O   UNL     1       1.601  -2.080   3.694  0.00  0.00    -0.275 OA
ATOM      3  N   UNL     1       1.581  -4.102   2.781  0.00  0.00    -0.300 N 
ATOM      4  C   UNL     1       1.413  -5.091   1.690  0.00  0.00    +0.121 C 
ATOM      5  C   UNL     1       2.641  -6.021   1.813  0.00  0.00    +0.100 C 
ATOM      6  C   UNL     1       3.087  -5.889   3.279  0.00  0.00    -0.004 C 
ATOM      7  C   UNL     1       2.107  -4.894   3.918  0.00  0.00    +0.115 C 
ATOM      8  C   UNL     1       4.509  -5.341   3.352  0.00  0.00    -0.010 C 
ATOM      9  C   UNL     1       4.950  -5.272   4.817  0.00  0.00    -0.082 C 
ATOM     10  N   UNL     1       4.890  -6.614   5.411  0.00  0.00    +0.379 N 
ATOM     11  C   UNL     1       3.504  -7.096   5.421  0.00  0.00    -0.082 C 
ATOM     12  C   UNL     1       3.001  -7.240   3.982  0.00  0.00    -0.010 C 
ATOM     13  H   UNL     1       5.460  -7.246   4.869  0.00  0.00    -0.086 HD
ATOM     14  H   UNL     1       5.239  -6.577   6.357  0.00  0.00    -0.086 HD
ENDROOT
BRANCH   5  15
ATOM     15  C   UNL     1       2.254  -7.444   1.506  0.00  0.00    +0.218 C 
ATOM     16  O   UNL     1       1.125  -7.828   1.729  0.00  0.00    -0.275 OA
ATOM     17  N   UNL     1       3.163  -8.292   0.983  0.00  0.00    -0.311 N 
ATOM     18  H   UNL     1       4.065  -7.985   0.805  0.00  0.00    +0.149 HD
BRANCH  17  19
ATOM     19  C   UNL     1       2.787  -9.676   0.685  0.00  0.00    +0.143 C 
BRANCH  19  20
ATOM     20  C   UNL     1       3.974 -10.407   0.113  0.00  0.00    +0.011 A 
ATOM     21  C   UNL     1       4.082 -10.587  -1.253  0.00  0.00    +0.012 A 
ATOM     22  C   UNL     1       5.170 -11.256  -1.780  0.00  0.00    +0.046 A 
ATOM     23  C   UNL     1       6.157 -11.750  -0.938  0.00  0.00    +0.124 A 
ATOM     24  C   UNL     1       6.051 -11.571   0.432  0.00  0.00    +0.091 A 
ATOM     25  C   UNL     1       4.961 -10.893   0.958  0.00  0.00    +0.128 A 
BRANCH  25  26
ATOM     26  O   UNL     1       4.857 -10.711   2.301  0.00  0.00    -0.495 OA
ATOM     27  C   UNL     1       5.910 -11.239   3.111  0.00  0.00    +0.277 C 
ENDBRANCH  25  26
BRANCH  23  28
ATOM     28  O   UNL     1       7.226 -12.409  -1.457  0.00  0.00    -0.495 OA
ATOM     29  C   UNL     1       7.269 -12.557  -2.878  0.00  0.00    +0.277 C 
ENDBRANCH  23  28
ENDBRANCH  19  20
ENDBRANCH  17  19
ENDBRANCH   5  15
BRANCH   1  30
ATOM     30  C   UNL     1       0.676  -2.172   1.525  0.00  0.00    +0.072 C 
ATOM     31  C   UNL     1       1.764  -1.705   0.555  0.00  0.00    +0.017 C 
BRANCH  30  32
ATOM     32  C   UNL     1      -0.182  -0.977   1.943  0.00  0.00    +0.012 C 
BRANCH  32  34
ATOM     33  C   UNL     1      -1.790   0.760   1.142  0.00  0.00    +0.004 C 
ATOM     34  C   UNL     1      -0.932  -0.436   0.724  0.00  0.00    -0.003 C 
ENDBRANCH  32  34
ENDBRANCH  30  32
ENDBRANCH   1  30
TORSDOF 8
