REMARK  Name = ZINC39981246
REMARK  6 active torsions:
REMARK  status: ('A' for Active; 'I' for Inactive)
REMARK    1  A    between atoms: C_4  and  C_7
REMARK    2  A    between atoms: C_7  and  C_8
REMARK    3  A    between atoms: C_7  and  N_14
REMARK    4  A    between atoms: C_15  and  C_17
REMARK    5  A    between atoms: C_17  and  S_18
REMARK    6  A    between atoms: S_18  and  C_19
REMARK                            x       y       z     vdW  Elec       q    Type
REMARK                         _______ _______ _______ _____ _____    ______ ____
ROOT
ATOM      1  N   UNL     1       3.611  -1.865  -0.930  0.00  0.00    -0.304 N 
ATOM      2  C   UNL     1       3.825  -1.716  -2.253  0.00  0.00    +0.224 C 
ATOM      3  O   UNL     1       4.099  -0.624  -2.704  0.00  0.00    -0.275 OA
ATOM      4  H   UNL     1       3.392  -2.738  -0.569  0.00  0.00    +0.150 HD
ENDROOT
BRANCH   1   5
ATOM      5  C   UNL     1       3.711  -0.707  -0.038  0.00  0.00    +0.134 C 
BRANCH   5   9
ATOM      6  C   UNL     1      -0.017   1.378   0.010  0.00  0.00    +0.000 A 
ATOM      7  C   UNL     1       1.171   2.086   0.002  0.00  0.00    +0.000 A 
ATOM      8  C   UNL     1       2.377   1.411  -0.013  0.00  0.00    +0.006 A 
ATOM      9  C   UNL     1       2.396   0.029  -0.020  0.00  0.00    -0.023 A 
ATOM     10  C   UNL     1       1.208  -0.679  -0.012  0.00  0.00    +0.006 A 
ATOM     11  C   UNL     1       0.002  -0.004   0.002  0.00  0.00    +0.000 A 
ENDBRANCH   5   9
BRANCH   5  12
ATOM     12  C   UNL     1       4.044  -1.175   1.356  0.00  0.00    -0.023 A 
ATOM     13  C   UNL     1       3.455  -2.320   1.860  0.00  0.00    +0.006 A 
ATOM     14  C   UNL     1       3.760  -2.748   3.138  0.00  0.00    +0.000 A 
ATOM     15  C   UNL     1       4.654  -2.033   3.912  0.00  0.00    +0.000 A 
ATOM     16  C   UNL     1       5.243  -0.888   3.408  0.00  0.00    +0.000 A 
ATOM     17  C   UNL     1       4.941  -0.462   2.128  0.00  0.00    +0.006 A 
ENDBRANCH   5  12
ENDBRANCH   1   5
BRANCH   2  18
ATOM     18  C   UNL     1       3.722  -2.906  -3.171  0.00  0.00    +0.173 C 
BRANCH  18  19
ATOM     19  S   UNL     1       4.060  -2.386  -4.875  0.00  0.00    -0.075 S 
BRANCH  19  20
ATOM     20  C   UNL     1       3.904  -3.870  -5.813  0.00  0.00    +0.208 C 
ATOM     21  N   UNL     1       3.595  -4.974  -5.176  0.00  0.00    -0.227 NA
ATOM     22  C   UNL     1       3.545  -6.213  -5.949  0.00  0.00    +0.252 C 
ATOM     23  C   UNL     1       3.175  -5.816  -7.370  0.00  0.00    +0.117 C 
ATOM     24  C   UNL     1       2.157  -6.647  -7.729  0.00  0.00    +0.028 A 
ATOM     25  C   UNL     1       1.471  -6.837  -8.952  0.00  0.00    +0.050 A 
ATOM     26  C   UNL     1       0.467  -7.758  -8.972  0.00  0.00    +0.124 A 
ATOM     27  C   UNL     1       0.078  -8.522  -7.863  0.00  0.00    +0.040 A 
ATOM     28  C   UNL     1       0.671  -8.426  -6.644  0.00  0.00    +0.029 A 
ATOM     29  C   UNL     1       1.775  -7.457  -6.531  0.00  0.00    +0.046 A 
ATOM     30  N   UNL     1       2.530  -7.164  -5.518  0.00  0.00    -0.358 N 
ATOM     31  F   UNL     1      -0.195  -7.948 -10.134  0.00  0.00    -0.205 F 
ATOM     32  N   UNL     1       3.724  -4.748  -7.956  0.00  0.00    -0.147 NA
ATOM     33  N   UNL     1       4.103  -3.804  -7.152  0.00  0.00    -0.122 NA
ATOM     34  H   UNL     1       2.434  -7.520  -4.620  0.00  0.00    +0.162 HD
ENDBRANCH  19  20
ENDBRANCH  18  19
ENDBRANCH   2  18
TORSDOF 6
