REMARK  Name = ZINC25378392
REMARK  12 active torsions:
REMARK  status: ('A' for Active; 'I' for Inactive)
REMARK    1  A    between atoms: C_1  and  C_2
REMARK    2  A    between atoms: C_2  and  C_3
REMARK    3  A    between atoms: C_8  and  N_9
REMARK    4  A    between atoms: C_10  and  C_12
REMARK    5  A    between atoms: C_12  and  N_13
REMARK    6  A    between atoms: N_13  and  C_14
REMARK    7  A    between atoms: C_15  and  C_17
REMARK    8  A    between atoms: C_17  and  C_19
REMARK    9  A    between atoms: C_17  and  N_20
REMARK   10  A    between atoms: N_20  and  C_21
REMARK   11  A    between atoms: C_21  and  C_22
REMARK   12  A    between atoms: C_21  and  C_28
REMARK                            x       y       z     vdW  Elec       q    Type
REMARK                         _______ _______ _______ _____ _____    ______ ____
ROOT
ATOM      1  C   UNL     1       5.678  -0.945   1.331  0.00  0.00    +0.014 C 
ATOM      2  C   UNL     1       6.801  -1.027   0.294  0.00  0.00    -0.004 C 
ENDROOT
BRANCH   1   5
ATOM      3  N   UNL     1       7.208  -1.139   3.265  0.00  0.00    -0.297 N 
ATOM      4  C   UNL     1       7.720  -2.379   2.674  0.00  0.00    +0.132 C 
ATOM      5  C   UNL     1       6.237  -0.446   2.638  0.00  0.00    +0.202 C 
ATOM      6  O   UNL     1       5.814   0.581   3.127  0.00  0.00    -0.277 OA
BRANCH   3   7
ATOM      7  C   UNL     1       7.752  -0.654   4.535  0.00  0.00    +0.203 C 
BRANCH   7   9
ATOM      8  N   UNL     1       7.274  -0.920   6.948  0.00  0.00    -0.284 N 
ATOM      9  C   UNL     1       6.953  -1.230   5.676  0.00  0.00    +0.235 C 
ATOM     10  O   UNL     1       6.022  -1.973   5.450  0.00  0.00    -0.274 OA
ATOM     11  H   UNL     1       8.173  -0.321   7.158  0.00  0.00    +0.155 HD
BRANCH   8  17
ATOM     12  C   UNL     1       6.999  -1.508   9.274  0.00  0.00    -0.026 A 
ATOM     13  C   UNL     1       6.197  -1.943  10.312  0.00  0.00    +0.005 A 
ATOM     14  C   UNL     1       4.864  -2.230  10.083  0.00  0.00    +0.000 A 
ATOM     15  C   UNL     1       4.329  -2.083   8.817  0.00  0.00    +0.002 A 
ATOM     16  C   UNL     1       5.124  -1.644   7.776  0.00  0.00    +0.023 A 
ATOM     17  C   UNL     1       6.465  -1.360   8.001  0.00  0.00    +0.037 A 
BRANCH  12  19
ATOM     18  C   UNL     1       8.612   0.303   9.791  0.00  0.00    +0.009 C 
ATOM     19  C   UNL     1       8.452  -1.195   9.524  0.00  0.00    +0.033 C 
ENDBRANCH  12  19
ENDBRANCH   8  17
ENDBRANCH   7   9
ENDBRANCH   3   7
ENDBRANCH   1   5
BRANCH   1  20
ATOM     20  N   UNL     1       4.641  -0.018   0.857  0.00  0.00    +0.394 N 
ATOM     21  H   UNL     1       4.092   0.390   1.718  0.00  0.00    -0.083 HD
ATOM     22  H   UNL     1       5.112   0.804   0.299  0.00  0.00    -0.083 HD
BRANCH  20  23
ATOM     23  C   UNL     1       3.688  -0.703  -0.028  0.00  0.00    -0.009 C 
BRANCH  23  24
ATOM     24  C   UNL     1       2.369   0.024  -0.003  0.00  0.00    -0.057 A 
ATOM     25  C   UNL     1       1.186  -0.691   0.006  0.00  0.00    +0.002 A 
ATOM     26  C   UNL     1      -0.025  -0.024   0.028  0.00  0.00    +0.000 A 
ATOM     27  C   UNL     1      -0.052   1.358   0.041  0.00  0.00    +0.000 A 
ATOM     28  C   UNL     1       1.131   2.073   0.032  0.00  0.00    +0.000 A 
ATOM     29  C   UNL     1       2.341   1.406   0.010  0.00  0.00    +0.002 A 
ENDBRANCH  23  24
BRANCH  23  30
ATOM     30  C   UNL     1       4.229  -0.716  -1.434  0.00  0.00    -0.057 A 
ATOM     31  C   UNL     1       4.868   0.401  -1.939  0.00  0.00    +0.002 A 
ATOM     32  C   UNL     1       5.369   0.387  -3.228  0.00  0.00    +0.000 A 
ATOM     33  C   UNL     1       5.220  -0.740  -4.015  0.00  0.00    +0.000 A 
ATOM     34  C   UNL     1       4.576  -1.854  -3.512  0.00  0.00    +0.000 A 
ATOM     35  C   UNL     1       4.081  -1.843  -2.221  0.00  0.00    +0.002 A 
ENDBRANCH  23  30
ENDBRANCH  20  23
ENDBRANCH   1  20
TORSDOF 9
