REMARK  Name = ZINC36571252
REMARK  10 active torsions:
REMARK  status: ('A' for Active; 'I' for Inactive)
REMARK    1  A    between atoms: C_1  and  C_2
REMARK    2  A    between atoms: C_2  and  C_3
REMARK    3  A    between atoms: C_3  and  N_4
REMARK    4  A    between atoms: N_4  and  C_5
REMARK    5  A    between atoms: C_5  and  C_7
REMARK    6  A    between atoms: C_5  and  C_21
REMARK    7  A    between atoms: N_23  and  C_24
REMARK    8  A    between atoms: C_30  and  C_32
REMARK    9  A    between atoms: C_36  and  O_39
REMARK   10  A    between atoms: C_37  and  O_38
REMARK                            x       y       z     vdW  Elec       q    Type
REMARK                         _______ _______ _______ _____ _____    ______ ____
ROOT
ATOM      1  C   UNL     1       1.916  -2.816   0.576  0.00  0.00    +0.193 C 
ENDROOT
BRANCH   1   2
ATOM      2  C   UNL     1       2.218  -2.400  -0.841  0.00  0.00    -0.010 A 
ATOM      3  C   UNL     1       2.036  -1.113  -1.203  0.00  0.00    +0.015 A 
ATOM      4  C   UNL     1       2.305  -0.673  -2.519  0.00  0.00    -0.017 A 
ATOM      5  C   UNL     1       2.113   0.666  -2.886  0.00  0.00    +0.008 A 
ATOM      6  C   UNL     1       2.381   1.064  -4.163  0.00  0.00    +0.001 A 
ATOM      7  C   UNL     1       2.842   0.158  -5.111  0.00  0.00    +0.001 A 
ATOM      8  C   UNL     1       3.039  -1.154  -4.785  0.00  0.00    +0.009 A 
ATOM      9  C   UNL     1       2.774  -1.591  -3.486  0.00  0.00    -0.010 A 
ATOM     10  C   UNL     1       2.971  -2.989  -3.093  0.00  0.00    -0.010 A 
ATOM     11  C   UNL     1       2.691  -3.365  -1.760  0.00  0.00    -0.012 A 
ATOM     12  C   UNL     1       2.881  -4.699  -1.371  0.00  0.00    +0.009 A 
ATOM     13  C   UNL     1       3.338  -5.609  -2.279  0.00  0.00    +0.001 A 
ATOM     14  C   UNL     1       3.619  -5.234  -3.587  0.00  0.00    +0.001 A 
ATOM     15  C   UNL     1       3.432  -3.945  -4.000  0.00  0.00    +0.009 A 
ENDBRANCH   1   2
BRANCH   1  16
ATOM     16  C   UNL     1       3.155  -2.660   1.420  0.00  0.00    +0.238 C 
ATOM     17  O   UNL     1       3.120  -1.988   2.429  0.00  0.00    -0.273 OA
ATOM     18  N   UNL     1       4.301  -3.267   1.053  0.00  0.00    -0.311 N 
ATOM     19  H   UNL     1       4.329  -3.804   0.246  0.00  0.00    +0.149 HD
BRANCH  18  20
ATOM     20  C   UNL     1       5.505  -3.115   1.874  0.00  0.00    +0.073 C 
ATOM     21  C   UNL     1       6.232  -1.828   1.479  0.00  0.00    +0.022 C 
ATOM     22  C   UNL     1       7.490  -1.670   2.336  0.00  0.00    +0.002 C 
ATOM     23  C   UNL     1       8.415  -2.868   2.111  0.00  0.00    +0.000 C 
ATOM     24  C   UNL     1       7.688  -4.155   2.506  0.00  0.00    +0.002 C 
ATOM     25  C   UNL     1       6.430  -4.313   1.649  0.00  0.00    +0.022 C 
ENDBRANCH  18  20
ENDBRANCH   1  16
BRANCH   1  26
ATOM     26  N   UNL     1       0.848  -1.972   1.116  0.00  0.00    -0.282 N 
ATOM     27  C   UNL     1      -0.410  -2.094   0.646  0.00  0.00    +0.251 C 
ATOM     28  O   UNL     1      -1.314  -1.465   1.161  0.00  0.00    -0.270 OA
BRANCH  27  29
ATOM     29  C   UNL     1      -0.688  -2.989  -0.493  0.00  0.00    +0.082 A 
ATOM     30  C   UNL     1       0.327  -3.792  -1.019  0.00  0.00    +0.017 A 
ATOM     31  C   UNL     1       0.063  -4.627  -2.083  0.00  0.00    +0.005 A 
ATOM     32  C   UNL     1      -1.206  -4.676  -2.636  0.00  0.00    +0.049 A 
ATOM     33  C   UNL     1      -2.222  -3.886  -2.126  0.00  0.00    +0.159 A 
ATOM     34  C   UNL     1      -1.972  -3.042  -1.048  0.00  0.00    +0.171 A 
BRANCH  34  35
ATOM     35  O   UNL     1      -2.967  -2.270  -0.541  0.00  0.00    -0.503 OA
ATOM     36  H   UNL     1      -3.039  -1.399  -0.956  0.00  0.00    +0.292 HD
ENDBRANCH  34  35
BRANCH  33  37
ATOM     37  O   UNL     1      -3.465  -3.939  -2.675  0.00  0.00    -0.503 OA
ATOM     38  H   UNL     1      -4.045  -4.600  -2.272  0.00  0.00    +0.292 HD
ENDBRANCH  33  37
ENDBRANCH  27  29
BRANCH  26  39
ATOM     39  C   UNL     1       1.146  -0.996   2.167  0.00  0.00    +0.109 C 
BRANCH  39  41
ATOM     40  C   UNL     1       1.523  -0.696   4.619  0.00  0.00    +0.005 C 
ATOM     41  C   UNL     1       1.090  -1.683   3.533  0.00  0.00    +0.016 C 
ENDBRANCH  39  41
ENDBRANCH  26  39
ENDBRANCH   1  26
TORSDOF 9
