REMARK  Name = ZINC55650741
REMARK  6 active torsions:
REMARK  status: ('A' for Active; 'I' for Inactive)
REMARK    1  A    between atoms: C_1  and  C_2
REMARK    2  A    between atoms: C_3  and  N_12
REMARK    3  A    between atoms: C_7  and  S_8
REMARK    4  A    between atoms: S_8  and  N_11
REMARK    5  A    between atoms: N_12  and  S_13
REMARK    6  A    between atoms: S_13  and  C_16
REMARK                            x       y       z     vdW  Elec       q    Type
REMARK                         _______ _______ _______ _____ _____    ______ ____
ROOT
ATOM      1  N   UNL     1      -0.010   0.010  -2.412  0.00  0.00    -0.216 N 
ATOM      2  H   UNL     1       0.515   0.821  -2.496  0.00  0.00    +0.174 HD
ENDROOT
BRANCH   1   5
ATOM      3  C   UNL     1      -0.206   1.688  -0.123  0.00  0.00    +0.048 C 
ATOM      4  C   UNL     1      -0.265   0.186  -0.018  0.00  0.00    -0.002 A 
ATOM      5  C   UNL     1      -0.164  -0.596  -1.162  0.00  0.00    +0.053 A 
ATOM      6  C   UNL     1      -0.218  -1.980  -1.061  0.00  0.00    +0.025 A 
ATOM      7  C   UNL     1      -0.371  -2.575   0.176  0.00  0.00    +0.004 A 
ATOM      8  C   UNL     1      -0.470  -1.794   1.313  0.00  0.00    +0.029 A 
ATOM      9  C   UNL     1      -0.412  -0.416   1.216  0.00  0.00    +0.110 A 
BRANCH   9  10
ATOM     10  S   UNL     1      -0.533   0.574   2.669  0.00  0.00    +0.056 S 
ATOM     11  O   UNL     1      -1.505   1.575   2.399  0.00  0.00    -0.153 OA
ATOM     12  O   UNL     1      -0.648  -0.324   3.764  0.00  0.00    -0.153 OA
BRANCH  10  13
ATOM     13  N   UNL     1       0.915   1.358   2.849  0.00  0.00    -0.204 NA
ATOM     14  H   UNL     1       1.627   1.216   2.205  0.00  0.00    +0.144 HD
ATOM     15  H   UNL     1       1.051   1.958   3.599  0.00  0.00    +0.144 HD
ENDBRANCH  10  13
ENDBRANCH   9  10
ENDBRANCH   1   5
BRANCH   1  16
ATOM     16  S   UNL     1      -0.725  -0.657  -3.748  0.00  0.00    +0.072 S 
ATOM     17  O   UNL     1      -0.500   0.245  -4.822  0.00  0.00    -0.150 OA
ATOM     18  O   UNL     1      -0.310  -2.016  -3.796  0.00  0.00    -0.150 OA
BRANCH  16  19
ATOM     19  C   UNL     1      -2.462  -0.672  -3.458  0.00  0.00    +0.109 A 
ATOM     20  C   UNL     1      -3.046  -1.776  -2.840  0.00  0.00    +0.029 A 
ATOM     21  C   UNL     1      -4.385  -1.819  -2.601  0.00  0.00    +0.010 A 
ATOM     22  C   UNL     1      -5.195  -0.735  -2.982  0.00  0.00    -0.018 A 
ATOM     23  C   UNL     1      -6.581  -0.743  -2.752  0.00  0.00    +0.008 A 
ATOM     24  C   UNL     1      -7.333   0.325  -3.135  0.00  0.00    +0.001 A 
ATOM     25  C   UNL     1      -6.750   1.429  -3.753  0.00  0.00    +0.001 A 
ATOM     26  C   UNL     1      -5.410   1.472  -3.992  0.00  0.00    +0.008 A 
ATOM     27  C   UNL     1      -4.601   0.388  -3.611  0.00  0.00    -0.016 A 
ATOM     28  C   UNL     1      -3.214   0.398  -3.836  0.00  0.00    +0.037 A 
ENDBRANCH  16  19
ENDBRANCH   1  16
TORSDOF 5
