REMARK  Name = ZINC01063898
REMARK  6 active torsions:
REMARK  status: ('A' for Active; 'I' for Inactive)
REMARK    1  A    between atoms: C_4  and  C_7
REMARK    2  A    between atoms: C_9  and  S_16
REMARK    3  A    between atoms: C_13  and  C_14
REMARK    4  A    between atoms: S_16  and  C_17
REMARK    5  A    between atoms: C_17  and  C_18
REMARK    6  A    between atoms: C_18  and  N_19
REMARK                            x       y       z     vdW  Elec       q    Type
REMARK                         _______ _______ _______ _____ _____    ______ ____
ROOT
ATOM      1  C   UNL     1       3.697  -0.687  -0.037  0.00  0.00    +0.097 A 
ATOM      2  N   UNL     1       4.739  -0.190  -0.697  0.00  0.00    -0.220 NA
ATOM      3  C   UNL     1       5.901  -0.828  -0.717  0.00  0.00    +0.192 A 
ATOM      4  N   UNL     1       6.083  -1.982  -0.088  0.00  0.00    -0.182 NA
ATOM      5  C   UNL     1       5.100  -2.551   0.595  0.00  0.00    +0.292 A 
ATOM      6  O   UNL     1       5.297  -3.728   1.233  0.00  0.00    -0.264 OA
ATOM      7  C   UNL     1       3.848  -1.908   0.651  0.00  0.00    +0.144 A 
ENDROOT
BRANCH   1  11
ATOM      8  C   UNL     1      -0.017   1.379   0.010  0.00  0.00    +0.000 A 
ATOM      9  C   UNL     1       1.169   2.093   0.002  0.00  0.00    +0.001 A 
ATOM     10  C   UNL     1       2.377   1.428  -0.013  0.00  0.00    +0.010 A 
ATOM     11  C   UNL     1       2.403   0.033  -0.021  0.00  0.00    +0.002 A 
ATOM     12  C   UNL     1       1.205  -0.680  -0.013  0.00  0.00    +0.010 A 
ATOM     13  C   UNL     1       0.002  -0.004   0.002  0.00  0.00    +0.001 A 
ENDBRANCH   1  11
BRANCH   7  14
ATOM     14  C   UNL     1       2.757  -2.481   1.381  0.00  0.00    +0.107 C 
ATOM     15  N   UNL     1       1.892  -2.936   1.961  0.00  0.00    -0.191 NA
ENDBRANCH   7  14
BRANCH   3  16
ATOM     16  S   UNL     1       7.246  -0.121  -1.608  0.00  0.00    -0.084 S 
BRANCH  16  17
ATOM     17  C   UNL     1       8.601  -1.304  -1.368  0.00  0.00    +0.097 C 
BRANCH  17  18
ATOM     18  C   UNL     1       9.848  -0.805  -2.100  0.00  0.00    +0.128 C 
BRANCH  18  19
ATOM     19  N   UNL     1      10.942  -1.760  -1.906  0.00  0.00    -0.233 N 
ATOM     20  C   UNL     1      11.823  -1.713  -0.890  0.00  0.00    +0.254 C 
ATOM     21  O   UNL     1      11.838  -0.884  -0.003  0.00  0.00    -0.270 OA
ATOM     22  C   UNL     1      12.771  -2.838  -1.035  0.00  0.00    +0.049 A 
ATOM     23  C   UNL     1      13.862  -3.284  -0.308  0.00  0.00    +0.014 A 
ATOM     24  C   UNL     1      14.556  -4.408  -0.729  0.00  0.00    +0.001 A 
ATOM     25  C   UNL     1      14.166  -5.086  -1.868  0.00  0.00    +0.001 A 
ATOM     26  C   UNL     1      13.076  -4.652  -2.606  0.00  0.00    +0.014 A 
ATOM     27  C   UNL     1      12.373  -3.530  -2.197  0.00  0.00    +0.049 A 
ATOM     28  C   UNL     1      11.195  -2.804  -2.717  0.00  0.00    +0.254 C 
ATOM     29  O   UNL     1      10.561  -3.099  -3.710  0.00  0.00    -0.270 OA
ENDBRANCH  18  19
ENDBRANCH  17  18
ENDBRANCH  16  17
ENDBRANCH   3  16
TORSDOF 6
