REMARK  Name = ZINC66091664
REMARK  6 active torsions:
REMARK  status: ('A' for Active; 'I' for Inactive)
REMARK    1  A    between atoms: C_4  and  O_23
REMARK    2  A    between atoms: C_5  and  C_7
REMARK    3  A    between atoms: N_9  and  N_10
REMARK    4  A    between atoms: N_10  and  C_11
REMARK    5  A    between atoms: C_11  and  N_13
REMARK    6  A    between atoms: C_14  and  C_16
REMARK                            x       y       z     vdW  Elec       q    Type
REMARK                         _______ _______ _______ _____ _____    ______ ____
ROOT
ATOM      1  N   UNL     1       0.121  -4.255  -0.023  0.00  0.00    -0.245 N 
ATOM      2  H   UNL     1       0.970  -4.725  -0.034  0.00  0.00    +0.172 HD
ENDROOT
BRANCH   1   5
ATOM      3  C   UNL     1       1.250  -2.159  -0.022  0.00  0.00    +0.264 C 
ATOM      4  O   UNL     1       2.314  -2.748  -0.035  0.00  0.00    -0.269 OA
ATOM      5  N   UNL     1       0.095  -2.855  -0.015  0.00  0.00    -0.231 N 
ATOM      6  H   UNL     1      -0.754  -2.385  -0.004  0.00  0.00    +0.173 HD
BRANCH   3  11
ATOM      7  C   UNL     1      -0.017   1.374   0.010  0.00  0.00    +0.001 A 
ATOM      8  C   UNL     1       1.170   2.089   0.002  0.00  0.00    +0.004 A 
ATOM      9  C   UNL     1       2.383   1.429  -0.013  0.00  0.00    +0.046 A 
ATOM     10  C   UNL     1       2.420   0.043  -0.021  0.00  0.00    +0.129 A 
ATOM     11  C   UNL     1       1.222  -0.684  -0.013  0.00  0.00    +0.079 A 
ATOM     12  C   UNL     1       0.002  -0.004   0.002  0.00  0.00    +0.017 A 
BRANCH  10  13
ATOM     13  O   UNL     1       3.611  -0.606  -0.036  0.00  0.00    -0.506 OA
ATOM     14  H   UNL     1       3.965  -0.799   0.843  0.00  0.00    +0.292 HD
ENDBRANCH  10  13
ENDBRANCH   3  11
ENDBRANCH   1   5
BRANCH   1  15
ATOM     15  C   UNL     1      -1.033  -4.951  -0.015  0.00  0.00    +0.153 C 
ATOM     16  S   UNL     1      -1.002  -6.662  -0.025  0.00  0.00    -0.017 S 
BRANCH  15  17
ATOM     17  N   UNL     1      -2.213  -4.299  -0.000  0.00  0.00    -0.263 N 
ATOM     18  C   UNL     1      -3.367  -4.994   0.007  0.00  0.00    +0.250 C 
ATOM     19  O   UNL     1      -3.345  -6.209  -0.000  0.00  0.00    -0.270 OA
ATOM     20  H   UNL     1      -2.231  -3.329   0.005  0.00  0.00    +0.157 HD
BRANCH  18  21
ATOM     21  C   UNL     1      -4.660  -4.279   0.024  0.00  0.00    +0.037 A 
ATOM     22  C   UNL     1      -4.689  -2.883   0.026  0.00  0.00    +0.014 A 
ATOM     23  C   UNL     1      -5.899  -2.222   0.042  0.00  0.00    +0.016 A 
ATOM     24  C   UNL     1      -7.083  -2.939   0.055  0.00  0.00    +0.018 A 
ATOM     25  C   UNL     1      -7.061  -4.324   0.053  0.00  0.00    +0.016 A 
ATOM     26  C   UNL     1      -5.858  -4.997   0.031  0.00  0.00    +0.014 A 
ATOM     27 BR   UNL     1      -8.738  -2.024   0.076  0.00  0.00    -0.050 Br
ENDBRANCH  18  21
ENDBRANCH  15  17
ENDBRANCH   1  15
TORSDOF 6
