REMARK  Name = ZINC42333280
REMARK  5 active torsions:
REMARK  status: ('A' for Active; 'I' for Inactive)
REMARK    1  A    between atoms: C_1  and  C_2
REMARK    2  A    between atoms: C_2  and  C_3
REMARK    3  A    between atoms: C_2  and  N_4
REMARK    4  A    between atoms: N_4  and  C_5
REMARK    5  A    between atoms: C_5  and  C_13
REMARK                            x       y       z     vdW  Elec       q    Type
REMARK                         _______ _______ _______ _____ _____    ______ ____
ROOT
ATOM      1  C   UNL     1      -1.706  -1.615   0.362  0.00  0.00    -0.015 C 
ATOM      2  C   UNL     1      -1.046  -2.099   1.650  0.00  0.00    +0.017 C 
ATOM      3  C   UNL     1      -1.385  -1.146   2.800  0.00  0.00    +0.165 C 
ATOM      4  S   UNL     1      -3.180  -1.177   3.080  0.00  0.00    -0.031 S 
ATOM      5  O   UNL     1      -3.521  -0.100   3.943  0.00  0.00    -0.174 OA
ATOM      6  O   UNL     1      -3.558  -2.499   3.439  0.00  0.00    -0.174 OA
ATOM      7  C   UNL     1      -3.829  -0.817   1.422  0.00  0.00    +0.165 C 
ATOM      8  C   UNL     1      -3.219  -1.806   0.426  0.00  0.00    +0.017 C 
ENDROOT
BRANCH   1   9
ATOM      9  C   UNL     1      -1.155  -2.400  -0.801  0.00  0.00    +0.068 A 
ATOM     10  N   UNL     1      -1.378  -2.224  -2.079  0.00  0.00    -0.250 NA
ATOM     11  C   UNL     1      -0.822  -2.996  -3.006  0.00  0.00    +0.052 A 
ATOM     12  C   UNL     1      -0.012  -3.974  -2.522  0.00  0.00    +0.013 A 
ATOM     13  S   UNL     1      -0.097  -3.712  -0.772  0.00  0.00    -0.078 S 
ATOM     14  C   UNL     1       0.748  -4.995  -3.298  0.00  0.00    +0.044 C 
ATOM     15  C   UNL     1       0.196  -5.015  -4.733  0.00  0.00    +0.006 C 
ATOM     16  C   UNL     1       0.085  -3.575  -5.240  0.00  0.00    +0.006 C 
ATOM     17  C   UNL     1      -1.039  -2.842  -4.504  0.00  0.00    +0.056 C 
ENDBRANCH   1   9
BRANCH   1  18
ATOM     18  N   UNL     1      -1.406  -0.190   0.170  0.00  0.00    +0.388 N 
ATOM     19  H   UNL     1      -1.687   0.326   0.989  0.00  0.00    -0.084 HD
ATOM     20  H   UNL     1      -1.910   0.154  -0.634  0.00  0.00    -0.084 HD
BRANCH  18  22
ATOM     21  C   UNL     1       0.277   1.200  -0.940  0.00  0.00    -0.014 C 
ATOM     22  C   UNL     1       0.037  -0.019  -0.047  0.00  0.00    -0.077 C 
ATOM     23  C   UNL     1       0.733   0.191   1.299  0.00  0.00    -0.014 C 
ENDBRANCH  18  22
ENDBRANCH   1  18
TORSDOF 3
