REMARK  Name = ZINC16003251
REMARK  4 active torsions:
REMARK  status: ('A' for Active; 'I' for Inactive)
REMARK    1  A    between atoms: C_4  and  C_7
REMARK    2  A    between atoms: C_7  and  N_8
REMARK    3  A    between atoms: N_16  and  C_17
REMARK    4  A    between atoms: C_17  and  C_19
REMARK                            x       y       z     vdW  Elec       q    Type
REMARK                         _______ _______ _______ _____ _____    ______ ____
ROOT
ATOM      1  N   UNL     1       2.854   4.204  -1.386  0.00  0.00    +0.386 N 
ATOM      2  C   UNL     1       3.987   5.138  -1.441  0.00  0.00    -0.072 C 
ATOM      3  C   UNL     1       4.636   5.106  -2.827  0.00  0.00    +0.035 C 
ATOM      4  C   UNL     1       3.542   5.316  -3.869  0.00  0.00    +0.024 A 
ATOM      5  C   UNL     1       2.241   5.125  -3.518  0.00  0.00    -0.004 A 
ATOM      6  S   UNL     1       1.377   5.482  -5.021  0.00  0.00    -0.059 S 
ATOM      7  C   UNL     1       2.775   5.851  -5.987  0.00  0.00    +0.164 A 
ATOM      8  N   UNL     1       3.759   5.682  -5.127  0.00  0.00    -0.339 N 
ATOM      9  N   UNL     1       2.838   6.229  -7.322  0.00  0.00    -0.152 NA
ATOM     10  C   UNL     1       1.720   4.713  -2.184  0.00  0.00    -0.033 C 
ATOM     11  H   UNL     1       4.787   5.854  -5.480  0.00  0.00    +0.167 HD
ATOM     12  H   UNL     1       3.181   3.247  -1.817  0.00  0.00    -0.081 HD
ENDROOT
BRANCH   9  13
ATOM     13  C   UNL     1       4.032   6.474  -7.897  0.00  0.00    +0.270 C 
ATOM     14  O   UNL     1       5.054   6.365  -7.247  0.00  0.00    -0.268 OA
BRANCH  13  15
ATOM     15  C   UNL     1       4.099   6.876  -9.319  0.00  0.00    +0.053 A 
ATOM     16  C   UNL     1       2.965   6.896 -10.118  0.00  0.00    +0.083 A 
ATOM     17  C   UNL     1       3.074   7.287 -11.457  0.00  0.00    +0.250 A 
ATOM     18  N   UNL     1       4.219   7.631 -11.998  0.00  0.00    -0.322 N 
ATOM     19  C   UNL     1       5.363   7.636 -11.308  0.00  0.00    +0.050 A 
ATOM     20  C   UNL     1       5.366   7.262  -9.942  0.00  0.00    +0.011 A 
ATOM     21  C   UNL     1       6.565   7.267  -9.220  0.00  0.00    +0.011 A 
ATOM     22  C   UNL     1       7.722   7.634  -9.841  0.00  0.00    +0.001 A 
ATOM     23  C   UNL     1       7.725   8.002 -11.184  0.00  0.00    +0.002 A 
ATOM     24  C   UNL     1       6.576   8.008 -11.914  0.00  0.00    +0.026 A 
ATOM     25  O   UNL     1       1.956   7.308 -12.225  0.00  0.00    -0.268 OA
ATOM     26  H   UNL     1       4.261   7.928 -13.057  0.00  0.00    +0.169 HD
ENDBRANCH  13  15
ENDBRANCH   9  13
BRANCH   1  27
ATOM     27  C   UNL     1       2.448   3.950   0.003  0.00  0.00    -0.043 C 
BRANCH  27  31
ATOM     28  C   UNL     1      -1.247   1.806   0.032  0.00  0.00    +0.000 A 
ATOM     29  C   UNL     1      -0.048   1.118   0.018  0.00  0.00    +0.000 A 
ATOM     30  C   UNL     1       1.147   1.812   0.007  0.00  0.00    +0.002 A 
ATOM     31  C   UNL     1       1.144   3.194   0.015  0.00  0.00    -0.064 A 
ATOM     32  C   UNL     1      -0.054   3.882   0.035  0.00  0.00    +0.002 A 
ATOM     33  C   UNL     1      -1.250   3.188   0.045  0.00  0.00    +0.000 A 
ENDBRANCH  27  31
ENDBRANCH   1  27
TORSDOF 4
