REMARK  Name = ZINC61514864
REMARK  3 active torsions:
REMARK  status: ('A' for Active; 'I' for Inactive)
REMARK    1  A    between atoms: C_1  and  O_2
REMARK    2  A    between atoms: O_2  and  C_3
REMARK    3  A    between atoms: N_10  and  C_11
REMARK                            x       y       z     vdW  Elec       q    Type
REMARK                         _______ _______ _______ _____ _____    ______ ____
ROOT
ATOM      1  C   UNL     1       1.044  -0.625  -0.838  0.00  0.00    +0.323 A 
ATOM      2  N   UNL     1       0.975  -1.944  -0.966  0.00  0.00    -0.161 NA
ATOM      3  C   UNL     1       1.363  -2.521  -2.098  0.00  0.00    +0.227 A 
ATOM      4  N   UNL     1       1.820  -1.774  -3.101  0.00  0.00    -0.184 NA
ATOM      5  C   UNL     1       1.887  -0.460  -2.970  0.00  0.00    +0.230 A 
ATOM      6  N   UNL     1       1.495   0.116  -1.844  0.00  0.00    -0.164 NA
ATOM      7 CL   UNL     1       2.483   0.512  -4.279  0.00  0.00    -0.041 Cl
ATOM      8  N   UNL     1       1.294  -3.893  -2.234  0.00  0.00    -0.281 N 
ATOM      9  H   UNL     1       0.878  -4.429  -1.540  0.00  0.00    +0.155 HD
ENDROOT
BRANCH   8  10
ATOM     10  C   UNL     1       1.822  -4.511  -3.374  0.00  0.00    +0.070 A 
ATOM     11  C   UNL     1       2.883  -3.928  -4.052  0.00  0.00    +0.041 A 
ATOM     12  C   UNL     1       3.403  -4.541  -5.177  0.00  0.00    +0.020 A 
ATOM     13  C   UNL     1       2.867  -5.734  -5.628  0.00  0.00    +0.018 A 
ATOM     14  C   UNL     1       1.810  -6.318  -4.955  0.00  0.00    +0.041 A 
ATOM     15  C   UNL     1       1.289  -5.714  -3.825  0.00  0.00    +0.145 A 
ATOM     16  F   UNL     1       0.260  -6.288  -3.164  0.00  0.00    -0.204 F 
ATOM     17 BR   UNL     1       4.849  -3.746  -6.102  0.00  0.00    -0.050 Br
ENDBRANCH   8  10
BRANCH   1  19
ATOM     18  C   UNL     1       0.745   1.389   0.379  0.00  0.00    +0.280 C 
ATOM     19  O   UNL     1       0.649  -0.035   0.314  0.00  0.00    -0.466 OA
ENDBRANCH   1  19
TORSDOF 2
