REMARK  Name = ZINC59202438
REMARK  7 active torsions:
REMARK  status: ('A' for Active; 'I' for Inactive)
REMARK    1  A    between atoms: C_3  and  N_14
REMARK    2  A    between atoms: C_4  and  N_11
REMARK    3  A    between atoms: C_6  and  C_7
REMARK    4  A    between atoms: C_18  and  C_20
REMARK    5  A    between atoms: N_22  and  N_23
REMARK    6  A    between atoms: C_24  and  C_25
REMARK    7  A    between atoms: C_30  and  O_31
REMARK                            x       y       z     vdW  Elec       q    Type
REMARK                         _______ _______ _______ _____ _____    ______ ____
ROOT
ATOM      1  N   UNL     1       3.582   2.122  -0.021  0.00  0.00    -0.317 N 
ATOM      2  C   UNL     1       4.306   2.572  -1.224  0.00  0.00    +0.106 C 
ATOM      3  C   UNL     1       5.152   3.780  -0.749  0.00  0.00    +0.021 C 
ATOM      4  C   UNL     1       5.572   3.325   0.674  0.00  0.00    +0.033 C 
ATOM      5  C   UNL     1       4.330   2.554   1.168  0.00  0.00    +0.161 C 
ENDROOT
BRANCH   1   8
ATOM      6  C   UNL     1      -0.017   1.378   0.010  0.00  0.00    +0.014 A 
ATOM      7  C   UNL     1       1.169   2.087   0.002  0.00  0.00    +0.026 A 
ATOM      8  C   UNL     1       2.381   1.409  -0.013  0.00  0.00    +0.061 A 
ATOM      9  C   UNL     1       2.396   0.020  -0.021  0.00  0.00    +0.148 A 
ATOM     10  C   UNL     1       1.207  -0.682  -0.013  0.00  0.00    +0.047 A 
ATOM     11  C   UNL     1       0.002  -0.004   0.002  0.00  0.00    +0.057 A 
BRANCH  11  12
ATOM     12  C   UNL     1      -1.294  -0.774   0.010  0.00  0.00    +0.417 C 
ATOM     13  F   UNL     1      -2.368   0.122   0.025  0.00  0.00    -0.166 F 
ATOM     14  F   UNL     1      -1.369  -1.573  -1.136  0.00  0.00    -0.166 F 
ATOM     15  F   UNL     1      -1.347  -1.585   1.149  0.00  0.00    -0.166 F 
ENDBRANCH  11  12
BRANCH   9  16
ATOM     16  N   UNL     1       3.686  -0.707  -0.037  0.00  0.00    +0.058 N 
ATOM     17  O   UNL     1       3.698  -1.916  -0.044  0.00  0.00    -0.126 OA
ATOM     18  O   UNL     1       4.726  -0.092  -0.044  0.00  0.00    -0.126 OA
ENDBRANCH   9  16
ENDBRANCH   1   8
BRANCH   5  19
ATOM     19  C   UNL     1       3.469   3.453   2.017  0.00  0.00    +0.253 C 
ATOM     20  O   UNL     1       2.337   3.714   1.669  0.00  0.00    -0.272 OA
ATOM     21  N   UNL     1       3.957   3.967   3.163  0.00  0.00    -0.205 N 
ATOM     22  H   UNL     1       4.863   3.759   3.442  0.00  0.00    +0.177 HD
BRANCH  21  23
ATOM     23  N   UNL     1       3.157   4.804   3.953  0.00  0.00    -0.188 NA
ATOM     24  C   UNL     1       3.627   5.299   5.056  0.00  0.00    +0.142 C 
BRANCH  24  25
ATOM     25  C   UNL     1       2.784   6.179   5.886  0.00  0.00    +0.037 A 
ATOM     26  C   UNL     1       3.288   6.719   7.072  0.00  0.00    +0.028 A 
ATOM     27  C   UNL     1       2.495   7.542   7.844  0.00  0.00    +0.019 A 
ATOM     28  C   UNL     1       1.200   7.835   7.449  0.00  0.00    +0.019 A 
ATOM     29  C   UNL     1       0.690   7.306   6.278  0.00  0.00    +0.047 A 
ATOM     30  C   UNL     1       1.476   6.483   5.488  0.00  0.00    +0.126 A 
ATOM     31 BR   UNL     1       3.177   8.273   9.449  0.00  0.00    -0.050 Br
BRANCH  30  32
ATOM     32  O   UNL     1       0.978   5.967   4.334  0.00  0.00    -0.506 OA
ATOM     33  H   UNL     1       0.535   5.115   4.443  0.00  0.00    +0.292 HD
ENDBRANCH  30  32
ENDBRANCH  24  25
ENDBRANCH  21  23
ENDBRANCH   5  19
TORSDOF 7
