REMARK  Name = ZINC59420602
REMARK  6 active torsions:
REMARK  status: ('A' for Active; 'I' for Inactive)
REMARK    1  A    between atoms: C_3  and  N_10
REMARK    2  A    between atoms: C_4  and  C_8
REMARK    3  A    between atoms: N_10  and  C_11
REMARK    4  A    between atoms: C_11  and  C_12
REMARK    5  A    between atoms: C_12  and  C_13
REMARK    6  A    between atoms: N_15  and  C_16
REMARK                            x       y       z     vdW  Elec       q    Type
REMARK                         _______ _______ _______ _____ _____    ______ ____
ROOT
ATOM      1  C   UNL     1       3.541   3.616  -0.011  0.00  0.00    +0.111 C 
ENDROOT
BRANCH   1   2
ATOM      2  N   UNL     1       3.572   2.152  -0.011  0.00  0.00    -0.342 N 
ATOM      3  H   UNL     1       4.422   1.685  -0.015  0.00  0.00    +0.146 HD
BRANCH   2   6
ATOM      4  C   UNL     1      -0.016   1.379   0.008  0.00  0.00    +0.005 A 
ATOM      5  C   UNL     1       1.165   2.096   0.002  0.00  0.00    +0.024 A 
ATOM      6  C   UNL     1       2.383   1.431  -0.004  0.00  0.00    +0.048 A 
ATOM      7  C   UNL     1       2.409   0.027  -0.004  0.00  0.00    +0.108 A 
ATOM      8  C   UNL     1       1.205  -0.686   0.002  0.00  0.00    +0.142 A 
ATOM      9  C   UNL     1       0.003  -0.005   0.008  0.00  0.00    +0.040 A 
ATOM     10  F   UNL     1       1.218  -2.037   0.002  0.00  0.00    -0.204 F 
BRANCH   7  11
ATOM     11  C   UNL     1       3.660  -0.671  -0.010  0.00  0.00    +0.104 C 
ATOM     12  N   UNL     1       4.652  -1.224  -0.016  0.00  0.00    -0.191 NA
ENDBRANCH   7  11
ENDBRANCH   2   6
ENDBRANCH   1   2
BRANCH   1  13
ATOM     13  C   UNL     1       4.972   4.157  -0.019  0.00  0.00    +0.114 C 
BRANCH  13  14
ATOM     14  C   UNL     1       4.940   5.664  -0.020  0.00  0.00    +0.219 C 
ATOM     15  O   UNL     1       3.877   6.248  -0.015  0.00  0.00    -0.275 OA
ATOM     16  N   UNL     1       6.092   6.362  -0.026  0.00  0.00    -0.285 N 
ATOM     17  H   UNL     1       6.941   5.898   0.037  0.00  0.00    +0.155 HD
BRANCH  16  18
ATOM     18  C   UNL     1       6.064   7.758  -0.125  0.00  0.00    +0.033 A 
ATOM     19  C   UNL     1       7.054   8.426  -0.833  0.00  0.00    +0.024 A 
ATOM     20  C   UNL     1       7.024   9.803  -0.928  0.00  0.00    +0.017 A 
ATOM     21  C   UNL     1       6.007  10.518  -0.320  0.00  0.00    +0.018 A 
ATOM     22  C   UNL     1       5.019   9.855   0.386  0.00  0.00    +0.017 A 
ATOM     23  C   UNL     1       5.042   8.478   0.481  0.00  0.00    +0.024 A 
ATOM     24 BR   UNL     1       5.969  12.404  -0.453  0.00  0.00    -0.050 Br
ENDBRANCH  16  18
ENDBRANCH  13  14
ENDBRANCH   1  13
TORSDOF 6
