REMARK  Name = ZINC40424928
REMARK  4 active torsions:
REMARK  status: ('A' for Active; 'I' for Inactive)
REMARK    1  A    between atoms: C_4  and  C_7
REMARK    2  A    between atoms: C_7  and  C_8
REMARK    3  A    between atoms: C_27  and  S_30
REMARK    4  A    between atoms: S_30  and  N_33
REMARK                            x       y       z     vdW  Elec       q    Type
REMARK                         _______ _______ _______ _____ _____    ______ ____
ROOT
ATOM      1  C   UNL     1       4.112  -0.795   1.436  0.00  0.00    +0.073 A 
ATOM      2  C   UNL     1       5.299  -1.544   1.545  0.00  0.00    +0.009 A 
ATOM      3  C   UNL     1       6.069  -1.908   0.433  0.00  0.00    +0.010 A 
ATOM      4  C   UNL     1       7.208  -2.635   0.617  0.00  0.00    +0.001 A 
ATOM      5  C   UNL     1       7.615  -3.021   1.892  0.00  0.00    +0.001 A 
ATOM      6  C   UNL     1       6.888  -2.683   2.996  0.00  0.00    +0.012 A 
ATOM      7  C   UNL     1       5.715  -1.938   2.843  0.00  0.00    +0.023 A 
ATOM      8  C   UNL     1       4.908  -1.548   3.937  0.00  0.00    +0.123 A 
ATOM      9  N   UNL     1       3.815  -0.844   3.701  0.00  0.00    -0.263 N 
ATOM     10  N   UNL     1       3.448  -0.489   2.526  0.00  0.00    -0.176 NA
ATOM     11  N   UNL     1       5.256  -1.899   5.231  0.00  0.00    -0.312 N 
ATOM     12  C   UNL     1       6.189  -1.069   6.005  0.00  0.00    +0.125 C 
ATOM     13  C   UNL     1       5.514  -0.674   7.324  0.00  0.00    +0.125 C 
ATOM     14  N   UNL     1       4.957  -1.882   7.947  0.00  0.00    -0.312 N 
ATOM     15  C   UNL     1       4.023  -2.712   7.173  0.00  0.00    +0.125 C 
ATOM     16  C   UNL     1       4.694  -3.105   5.856  0.00  0.00    +0.125 C 
ATOM     17  C   UNL     1       5.306  -2.234   9.246  0.00  0.00    +0.121 A 
ATOM     18  C   UNL     1       6.004  -1.331  10.041  0.00  0.00    +0.045 A 
ATOM     19  C   UNL     1       6.346  -1.694  11.331  0.00  0.00    +0.033 A 
ATOM     20  C   UNL     1       5.976  -2.954  11.785  0.00  0.00    +0.123 A 
ATOM     21  C   UNL     1       5.284  -3.799  10.942  0.00  0.00    +0.141 A 
ATOM     22  N   UNL     1       4.966  -3.424   9.717  0.00  0.00    -0.238 NA
ATOM     23  H   UNL     1       3.265  -0.580   4.455  0.00  0.00    +0.190 HD
ENDROOT
BRANCH  20  24
ATOM     24  S   UNL     1       6.386  -3.466  13.420  0.00  0.00    +0.057 S 
ATOM     25  O   UNL     1       6.403  -4.887  13.407  0.00  0.00    -0.153 OA
ATOM     26  O   UNL     1       7.511  -2.695  13.817  0.00  0.00    -0.153 OA
BRANCH  24  27
ATOM     27  N   UNL     1       5.132  -3.016  14.403  0.00  0.00    -0.203 NA
ATOM     28  H   UNL     1       4.926  -3.537  15.195  0.00  0.00    +0.144 HD
ATOM     29  H   UNL     1       4.604  -2.232  14.188  0.00  0.00    +0.144 HD
ENDBRANCH  24  27
ENDBRANCH  20  24
BRANCH   1  30
ATOM     30  C   UNL     1       3.614  -0.345   0.087  0.00  0.00    +0.093 C 
BRANCH  30  34
ATOM     31  C   UNL     1       5.277   3.478  -0.845  0.00  0.00    +0.000 A 
ATOM     32  C   UNL     1       5.943   2.325  -1.217  0.00  0.00    +0.000 A 
ATOM     33  C   UNL     1       5.405   1.088  -0.915  0.00  0.00    +0.004 A 
ATOM     34  C   UNL     1       4.201   1.004  -0.241  0.00  0.00    -0.042 A 
ATOM     35  C   UNL     1       3.535   2.156   0.131  0.00  0.00    +0.004 A 
ATOM     36  C   UNL     1       4.073   3.393  -0.172  0.00  0.00    +0.000 A 
ENDBRANCH  30  34
ENDBRANCH   1  30
TORSDOF 4
