REMARK  Name = ZINC39941961
REMARK  8 active torsions:
REMARK  status: ('A' for Active; 'I' for Inactive)
REMARK    1  A    between atoms: C_1  and  C_2
REMARK    2  A    between atoms: C_2  and  C_4
REMARK    3  A    between atoms: C_4  and  O_32
REMARK    4  A    between atoms: C_9  and  C_31
REMARK    5  A    between atoms: C_20  and  C_30
REMARK    6  A    between atoms: C_23  and  O_26
REMARK    7  A    between atoms: O_26  and  C_27
REMARK    8  A    between atoms: C_27  and  C_29
REMARK                            x       y       z     vdW  Elec       q    Type
REMARK                         _______ _______ _______ _____ _____    ______ ____
ROOT
ATOM      1  C   UNL     1      -1.293  -0.775   0.010  0.00  0.00    +0.129 C 
ATOM      2  C   UNL     1      -1.785  -0.997  -1.432  0.00  0.00    +0.043 C 
ATOM      3  C   UNL     1      -1.883  -2.527  -1.634  0.00  0.00    +0.008 C 
ATOM      4  C   UNL     1      -2.027  -3.070  -0.201  0.00  0.00    +0.002 C 
ATOM      5  C   UNL     1      -1.069  -2.186   0.617  0.00  0.00    +0.007 C 
ATOM      6  C   UNL     1       0.388  -2.561   0.332  0.00  0.00    +0.010 C 
ATOM      7  C   UNL     1       0.619  -4.051   0.563  0.00  0.00    +0.005 C 
ATOM      8  C   UNL     1      -0.255  -4.840  -0.418  0.00  0.00    -0.001 C 
ATOM      9  C   UNL     1      -1.704  -4.541  -0.103  0.00  0.00    -0.004 C 
ATOM     10  C   UNL     1      -2.588  -5.348  -1.058  0.00  0.00    +0.004 C 
ATOM     11  C   UNL     1      -2.300  -6.840  -0.884  0.00  0.00    +0.004 C 
ATOM     12  C   UNL     1      -1.227  -7.032   0.190  0.00  0.00    -0.001 C 
ATOM     13  C   UNL     1       0.028  -6.335  -0.259  0.00  0.00    -0.026 C 
ATOM     14  C   UNL     1       1.110  -6.539   0.803  0.00  0.00    +0.011 C 
ATOM     15  C   UNL     1       1.392  -8.034   0.963  0.00  0.00    +0.045 C 
ATOM     16  C   UNL     1       0.112  -8.752   1.394  0.00  0.00    +0.177 C 
ATOM     17  C   UNL     1      -0.939  -8.525   0.361  0.00  0.00    +0.048 C 
ATOM     18  C   UNL     1       0.507  -6.909  -1.594  0.00  0.00    +0.012 C 
ATOM     19  C   UNL     1      -1.400  -2.223   2.110  0.00  0.00    +0.015 C 
ENDROOT
BRANCH   1  21
ATOM     20  C   UNL     1       0.433   0.757   1.229  0.00  0.00    +0.089 C 
ATOM     21  C   UNL     1       0.002  -0.004   0.002  0.00  0.00    +0.162 C 
ATOM     22  O   UNL     1       0.694   0.004  -0.988  0.00  0.00    -0.295 OA
ENDBRANCH   1  21
BRANCH   1  23
ATOM     23  O   UNL     1      -2.280  -0.068   0.764  0.00  0.00    -0.381 OA
ATOM     24  H   UNL     1      -2.473   0.817   0.426  0.00  0.00    +0.211 HD
ENDBRANCH   1  23
BRANCH  16  25
ATOM     25  O   UNL     1       0.376 -10.149   1.542  0.00  0.00    -0.462 OA
BRANCH  25  26
ATOM     26  C   UNL     1       0.776 -10.568   2.752  0.00  0.00    +0.304 C 
ATOM     27  O   UNL     1       0.898  -9.776   3.656  0.00  0.00    -0.251 OA
ATOM     28  C   UNL     1       1.073 -12.028   2.983  0.00  0.00    +0.136 C 
ENDBRANCH  25  26
ENDBRANCH  16  25
TORSDOF 4
