REMARK  Name = ZINC35265631
REMARK  14 active torsions:
REMARK  status: ('A' for Active; 'I' for Inactive)
REMARK    1  A    between atoms: C_1  and  C_2
REMARK    2  A    between atoms: C_2  and  C_3
REMARK    3  A    between atoms: C_3  and  N_4
REMARK    4  A    between atoms: C_5  and  C_38
REMARK    5  A    between atoms: C_6  and  C_32
REMARK    6  A    between atoms: C_7  and  C_12
REMARK    7  A    between atoms: C_16  and  N_18
REMARK    8  A    between atoms: C_19  and  C_21
REMARK    9  A    between atoms: C_22  and  C_23
REMARK   10  A    between atoms: C_26  and  N_29
REMARK   11  A    between atoms: C_32  and  O_34
REMARK   12  A    between atoms: O_34  and  C_35
REMARK   13  A    between atoms: C_35  and  C_36
REMARK   14  A    between atoms: C_35  and  C_37
REMARK                            x       y       z     vdW  Elec       q    Type
REMARK                         _______ _______ _______ _____ _____    ______ ____
ROOT
ATOM      1  C   UNL     1       1.285  -5.375  -2.336  0.00  0.00    -0.021 A 
ATOM      2  C   UNL     1       1.494  -4.827  -3.588  0.00  0.00    +0.006 A 
ATOM      3  C   UNL     1       2.059  -5.589  -4.594  0.00  0.00    +0.002 A 
ATOM      4  C   UNL     1       2.416  -6.901  -4.351  0.00  0.00    +0.023 A 
ATOM      5  C   UNL     1       2.208  -7.455  -3.094  0.00  0.00    +0.034 A 
ATOM      6  C   UNL     1       1.645  -6.684  -2.084  0.00  0.00    +0.029 A 
ENDROOT
BRANCH   1  10
ATOM      7  N   UNL     1       0.426  -1.786  -1.237  0.00  0.00    -0.259 N 
ATOM      8  C   UNL     1       1.561  -2.320  -0.697  0.00  0.00    +0.024 C 
ATOM      9  C   UNL     1       1.754  -3.656  -0.662  0.00  0.00    +0.078 C 
ATOM     10  C   UNL     1       0.669  -4.541  -1.242  0.00  0.00    +0.144 C 
ATOM     11  N   UNL     1      -0.515  -3.866  -1.800  0.00  0.00    -0.288 N 
ATOM     12  C   UNL     1      -0.566  -2.520  -1.758  0.00  0.00    +0.307 C 
ATOM     13  O   UNL     1      -1.540  -1.953  -2.212  0.00  0.00    -0.252 OA
ATOM     14  C   UNL     1       2.615  -1.404  -0.131  0.00  0.00    +0.061 C 
ATOM     15  H   UNL     1      -1.243  -4.378  -2.185  0.00  0.00    +0.151 HD
BRANCH   9  16
ATOM     16  C   UNL     1       2.929  -4.211  -0.104  0.00  0.00    +0.339 C 
ATOM     17  O   UNL     1       3.788  -3.481   0.356  0.00  0.00    -0.245 OA
BRANCH  16  18
ATOM     18  O   UNL     1       3.099  -5.549  -0.081  0.00  0.00    -0.459 OA
BRANCH  18  19
ATOM     19  C   UNL     1       4.309  -6.040   0.497  0.00  0.00    +0.171 C 
ATOM     20  C   UNL     1       4.101  -6.275   1.995  0.00  0.00    +0.052 C 
ATOM     21  C   UNL     1       4.699  -7.358  -0.176  0.00  0.00    +0.052 C 
ENDBRANCH  18  19
ENDBRANCH  16  18
ENDBRANCH   9  16
BRANCH   7  22
ATOM     22  C   UNL     1       0.282  -0.328  -1.241  0.00  0.00    +0.114 C 
BRANCH  22  24
ATOM     23  C   UNL     1       0.849   1.774  -2.467  0.00  0.00    +0.005 C 
ATOM     24  C   UNL     1       0.999   0.252  -2.462  0.00  0.00    +0.016 C 
ENDBRANCH  22  24
ENDBRANCH   7  22
ENDBRANCH   1  10
BRANCH   5  25
ATOM     25  N   UNL     1       2.568  -8.782  -2.844  0.00  0.00    -0.282 N 
ATOM     26  C   UNL     1       3.662  -9.305  -3.433  0.00  0.00    +0.241 C 
ATOM     27  O   UNL     1       4.291  -8.648  -4.241  0.00  0.00    -0.270 OA
ATOM     28  H   UNL     1       2.031  -9.327  -2.248  0.00  0.00    +0.155 HD
BRANCH  26  29
ATOM     29  C   UNL     1       4.094 -10.664  -3.099  0.00  0.00    +0.068 C 
ATOM     30  C   UNL     1       5.189 -11.187  -3.687  0.00  0.00    +0.013 C 
BRANCH  30  31
ATOM     31  C   UNL     1       5.623 -12.553  -3.352  0.00  0.00    -0.025 A 
ATOM     32  C   UNL     1       4.899 -13.313  -2.427  0.00  0.00    +0.010 A 
ATOM     33  C   UNL     1       5.312 -14.592  -2.118  0.00  0.00    +0.033 A 
ATOM     34  C   UNL     1       6.439 -15.123  -2.720  0.00  0.00    +0.126 A 
ATOM     35  C   UNL     1       7.160 -14.377  -3.636  0.00  0.00    +0.033 A 
ATOM     36  C   UNL     1       6.757 -13.099  -3.960  0.00  0.00    +0.010 A 
BRANCH  34  37
ATOM     37  N   UNL     1       6.875 -16.497  -2.383  0.00  0.00    +0.056 N 
ATOM     38  O   UNL     1       6.248 -17.151  -1.584  0.00  0.00    -0.126 OA
ATOM     39  O   UNL     1       7.859 -16.965  -2.908  0.00  0.00    -0.126 OA
ENDBRANCH  34  37
ENDBRANCH  30  31
ENDBRANCH  26  29
ENDBRANCH   5  25
TORSDOF 10
