REMARK  Name = ZINC12777050
REMARK  3 active torsions:
REMARK  status: ('A' for Active; 'I' for Inactive)
REMARK    1  A    between atoms: C_6  and  S_7
REMARK    2  A    between atoms: S_7  and  N_10
REMARK    3  A    between atoms: C_15  and  C_17
REMARK                            x       y       z     vdW  Elec       q    Type
REMARK                         _______ _______ _______ _____ _____    ______ ____
ROOT
ATOM      1  N   UNL     1      -2.798  -3.002   0.184  0.00  0.00    -0.165 NA
ATOM      2  C   UNL     1      -3.357  -4.359   0.233  0.00  0.00    +0.110 C 
ATOM      3  C   UNL     1      -2.971  -5.098  -1.053  0.00  0.00    +0.017 C 
ATOM      4  C   UNL     1      -1.452  -5.050  -1.228  0.00  0.00    +0.003 C 
ATOM      5  C   UNL     1      -0.994  -3.594  -1.352  0.00  0.00    +0.030 C 
ATOM      6  C   UNL     1      -1.360  -2.838  -0.071  0.00  0.00    +0.166 C 
ENDROOT
BRANCH   6   7
ATOM      7  C   UNL     1      -1.040  -1.375  -0.239  0.00  0.00    +0.238 C 
ATOM      8  O   UNL     1      -1.397  -0.787  -1.238  0.00  0.00    -0.274 OA
ATOM      9  N   UNL     1      -0.357  -0.720   0.721  0.00  0.00    -0.264 N 
ATOM     10  C   UNL     1      -0.064   0.622   0.567  0.00  0.00    +0.156 C 
ATOM     11  N   UNL     1       0.580   1.379   1.396  0.00  0.00    -0.262 NA
ATOM     12  C   UNL     1       0.829   2.776   1.126  0.00  0.00    +0.155 C 
ATOM     13  C   UNL     1       0.250   3.234  -0.231  0.00  0.00    +0.100 C 
ATOM     14  S   UNL     1      -0.487   1.660  -0.818  0.00  0.00    -0.089 S 
ATOM     15  H   UNL     1      -0.072  -1.190   1.520  0.00  0.00    +0.157 HD
ENDBRANCH   6   7
BRANCH   1  16
ATOM     16  S   UNL     1      -3.770  -1.680   0.411  0.00  0.00    +0.062 S 
ATOM     17  O   UNL     1      -4.839  -2.102   1.247  0.00  0.00    -0.153 OA
ATOM     18  O   UNL     1      -2.913  -0.600   0.756  0.00  0.00    -0.153 OA
BRANCH  16  24
ATOM     19  C   UNL     1      -3.953  -0.250  -1.906  0.00  0.00    +0.029 A 
ATOM     20  C   UNL     1      -4.507   0.061  -3.134  0.00  0.00    +0.017 A 
ATOM     21  C   UNL     1      -5.595  -0.653  -3.602  0.00  0.00    +0.018 A 
ATOM     22  C   UNL     1      -6.125  -1.681  -2.844  0.00  0.00    +0.017 A 
ATOM     23  C   UNL     1      -5.568  -1.995  -1.619  0.00  0.00    +0.029 A 
ATOM     24  C   UNL     1      -4.480  -1.281  -1.151  0.00  0.00    +0.106 A 
ATOM     25 BR   UNL     1      -6.357  -0.224  -5.279  0.00  0.00    -0.050 Br
ENDBRANCH  16  24
ENDBRANCH   1  16
TORSDOF 3
