REMARK  Name = ZINC16027695
REMARK  13 active torsions:
REMARK  status: ('A' for Active; 'I' for Inactive)
REMARK    1  A    between atoms: C_1  and  C_2
REMARK    2  A    between atoms: C_3  and  C_33
REMARK    3  A    between atoms: C_8  and  C_32
REMARK    4  A    between atoms: C_21  and  C_31
REMARK    5  A    between atoms: C_24  and  O_27
REMARK    6  A    between atoms: O_27  and  C_28
REMARK    7  A    between atoms: C_28  and  C_30
REMARK    8  A    between atoms: C_33  and  C_34
REMARK    9  A    between atoms: C_34  and  C_35
REMARK   10  A    between atoms: C_35  and  C_37
REMARK   11  A    between atoms: C_35  and  C_38
REMARK   12  A    between atoms: C_38  and  N_39
REMARK   13  A    between atoms: C_40  and  C_42
REMARK                            x       y       z     vdW  Elec       q    Type
REMARK                         _______ _______ _______ _____ _____    ______ ____
ROOT
ATOM      1  C   UNL     1       3.328   5.910  -4.624  0.00  0.00    +0.046 C 
ATOM      2  C   UNL     1       4.169   5.404  -3.480  0.00  0.00    -0.022 A 
ATOM      3  C   UNL     1       5.532   5.698  -3.403  0.00  0.00    +0.067 A 
ATOM      4  N   UNL     1       6.276   5.256  -2.413  0.00  0.00    -0.154 NA
ATOM      5  N   UNL     1       5.827   4.535  -1.440  0.00  0.00    -0.154 NA
ATOM      6  C   UNL     1       4.551   4.215  -1.421  0.00  0.00    +0.068 A 
ATOM      7  C   UNL     1       3.675   4.629  -2.449  0.00  0.00    -0.014 A 
ATOM      8  C   UNL     1       2.331   4.067  -2.135  0.00  0.00    -0.002 C 
ATOM      9  C   UNL     1       1.085   4.782  -2.578  0.00  0.00    +0.012 C 
ATOM     10  C   UNL     1      -0.135   3.993  -2.058  0.00  0.00    +0.005 C 
ATOM     11  C   UNL     1      -0.116   3.855  -0.550  0.00  0.00    +0.003 C 
ATOM     12  C   UNL     1       1.187   3.296   0.020  0.00  0.00    +0.001 C 
ATOM     13  C   UNL     1       2.357   4.007  -0.595  0.00  0.00    +0.009 C 
ATOM     14  C   UNL     1       3.767   3.433  -0.383  0.00  0.00    +0.062 C 
ATOM     15  C   UNL     1       1.304   1.788  -0.001  0.00  0.00    +0.031 C 
ATOM     16  C   UNL     1      -0.013   1.079   0.008  0.00  0.00    -0.027 C 
ATOM     17  C   UNL     1      -1.155   1.665   0.112  0.00  0.00    -0.064 C 
ATOM     18  C   UNL     1      -1.334   3.157   0.017  0.00  0.00    -0.008 C 
ATOM     19  C   UNL     1      -1.669   3.662   1.423  0.00  0.00    +0.015 C 
ATOM     20  C   UNL     1      -2.192   2.523   2.290  0.00  0.00    +0.046 C 
ATOM     21  C   UNL     1      -3.139   1.586   1.552  0.00  0.00    +0.180 C 
ATOM     22  C   UNL     1      -2.403   0.856   0.420  0.00  0.00    +0.075 C 
ATOM     23  C   UNL     1      -2.548   3.443  -0.872  0.00  0.00    +0.016 C 
ATOM     24  C   UNL     1       2.330   2.679  -2.772  0.00  0.00    +0.016 C 
ENDROOT
BRANCH  21  25
ATOM     25  O   UNL     1      -3.665   0.602   2.486  0.00  0.00    -0.461 OA
BRANCH  25  26
ATOM     26  C   UNL     1      -4.894   0.122   2.240  0.00  0.00    +0.304 C 
ATOM     27  O   UNL     1      -5.512   0.511   1.277  0.00  0.00    -0.251 OA
ATOM     28  C   UNL     1      -5.504  -0.900   3.164  0.00  0.00    +0.136 C 
ENDBRANCH  25  26
ENDBRANCH  21  25
BRANCH   3  29
ATOM     29  C   UNL     1       6.161   6.541  -4.482  0.00  0.00    +0.058 C 
BRANCH  29  30
ATOM     30  C   UNL     1       6.074   8.018  -4.092  0.00  0.00    +0.011 C 
BRANCH  30  31
ATOM     31  C   UNL     1       6.713   8.873  -5.188  0.00  0.00    +0.003 C 
ATOM     32  C   UNL     1       5.896   8.746  -6.475  0.00  0.00    +0.009 C 
BRANCH  31  33
ATOM     33  C   UNL     1       6.739  10.337  -4.742  0.00  0.00    +0.107 C 
BRANCH  33  34
ATOM     34  N   UNL     1       7.456  11.138  -5.737  0.00  0.00    -0.315 N 
ATOM     35  C   UNL     1       7.605  12.465  -5.554  0.00  0.00    +0.210 C 
ATOM     36  O   UNL     1       7.144  12.996  -4.566  0.00  0.00    -0.276 OA
ATOM     37  C   UNL     1       8.343  13.288  -6.578  0.00  0.00    +0.109 C 
ATOM     38  H   UNL     1       7.824  10.713  -6.528  0.00  0.00    +0.149 HD
ENDBRANCH  33  34
ENDBRANCH  31  33
ENDBRANCH  30  31
ENDBRANCH  29  30
ENDBRANCH   3  29
TORSDOF 7
