REMARK  Name = ZINC36833843
REMARK  8 active torsions:
REMARK  status: ('A' for Active; 'I' for Inactive)
REMARK    1  A    between atoms: C_1  and  C_2
REMARK    2  A    between atoms: C_2  and  C_4
REMARK    3  A    between atoms: C_2  and  S_16
REMARK    4  A    between atoms: S_16  and  C_17
REMARK    5  A    between atoms: C_20  and  S_22
REMARK    6  A    between atoms: S_22  and  C_23
REMARK    7  A    between atoms: C_23  and  C_25
REMARK    8  A    between atoms: C_23  and  C_26
REMARK                            x       y       z     vdW  Elec       q    Type
REMARK                         _______ _______ _______ _____ _____    ______ ____
ROOT
ATOM      1  C   UNL     1      -2.365  -0.093  -1.525  0.00  0.00    +0.160 A 
ATOM      2  N   UNL     1      -1.787   0.599  -2.489  0.00  0.00    -0.134 NA
ATOM      3  N   UNL     1      -2.498   0.917  -3.623  0.00  0.00    -0.134 NA
ATOM      4  C   UNL     1      -3.752   0.528  -3.743  0.00  0.00    +0.160 A 
ATOM      5  S   UNL     1      -3.998  -0.346  -2.204  0.00  0.00    -0.033 S 
ENDROOT
BRANCH   1   6
ATOM      6  S   UNL     1      -1.700  -0.632   0.015  0.00  0.00    -0.086 S 
BRANCH   6   8
ATOM      7  C   UNL     1      -0.019   1.526   0.010  0.00  0.00    +0.027 C 
ATOM      8  C   UNL     1       0.002  -0.004   0.002  0.00  0.00    +0.116 C 
BRANCH   8   9
ATOM      9  C   UNL     1       0.731  -0.503   1.223  0.00  0.00    +0.124 A 
ATOM     10  N   UNL     1       2.054  -0.793   1.110  0.00  0.00    -0.309 N 
ATOM     11  H   UNL     1       2.501  -0.675   0.258  0.00  0.00    +0.170 HD
ATOM     12  C   UNL     1       2.753  -1.244   2.178  0.00  0.00    +0.259 A 
ATOM     13  O   UNL     1       3.939  -1.506   2.091  0.00  0.00    -0.267 OA
ATOM     14  C   UNL     1       2.026  -1.404   3.445  0.00  0.00    +0.065 A 
ATOM     15  C   UNL     1       2.653  -1.862   4.602  0.00  0.00    +0.015 A 
ATOM     16  C   UNL     1       1.923  -1.994   5.763  0.00  0.00    +0.001 A 
ATOM     17  C   UNL     1       0.572  -1.675   5.788  0.00  0.00    +0.002 A 
ATOM     18  C   UNL     1      -0.067  -1.221   4.656  0.00  0.00    +0.028 A 
ATOM     19  C   UNL     1       0.652  -1.079   3.467  0.00  0.00    +0.078 A 
ATOM     20  N   UNL     1       0.064  -0.630   2.330  0.00  0.00    -0.233 NA
ENDBRANCH   8   9
ENDBRANCH   6   8
ENDBRANCH   1   6
BRANCH   4  21
ATOM     21  S   UNL     1      -4.882   0.792  -5.069  0.00  0.00    -0.086 S 
BRANCH  21  22
ATOM     22  C   UNL     1      -3.923   1.744  -6.279  0.00  0.00    +0.116 C 
ATOM     23  C   UNL     1      -2.773   0.886  -6.808  0.00  0.00    +0.027 C 
BRANCH  22  24
ATOM     24  C   UNL     1      -4.817   2.147  -7.423  0.00  0.00    +0.124 A 
ATOM     25  N   UNL     1      -4.602   3.350  -8.017  0.00  0.00    -0.309 N 
ATOM     26  H   UNL     1      -3.886   3.922  -7.698  0.00  0.00    +0.170 HD
ATOM     27  C   UNL     1      -5.377   3.757  -9.049  0.00  0.00    +0.259 A 
ATOM     28  O   UNL     1      -5.194   4.832  -9.591  0.00  0.00    -0.267 OA
ATOM     29  C   UNL     1      -6.447   2.851  -9.491  0.00  0.00    +0.065 A 
ATOM     30  C   UNL     1      -7.300   3.176 -10.543  0.00  0.00    +0.015 A 
ATOM     31  C   UNL     1      -8.287   2.289 -10.916  0.00  0.00    +0.001 A 
ATOM     32  C   UNL     1      -8.436   1.079 -10.252  0.00  0.00    +0.002 A 
ATOM     33  C   UNL     1      -7.604   0.739  -9.209  0.00  0.00    +0.028 A 
ATOM     34  C   UNL     1      -6.596   1.621  -8.813  0.00  0.00    +0.078 A 
ATOM     35  N   UNL     1      -5.750   1.324  -7.795  0.00  0.00    -0.233 NA
ENDBRANCH  22  24
ENDBRANCH  21  22
ENDBRANCH   4  21
TORSDOF 6
