REMARK  Name = ZINC64008882
REMARK  8 active torsions:
REMARK  status: ('A' for Active; 'I' for Inactive)
REMARK    1  A    between atoms: C_1  and  C_2
REMARK    2  A    between atoms: C_5  and  C_8
REMARK    3  A    between atoms: C_8  and  O_9
REMARK    4  A    between atoms: O_9  and  C_10
REMARK    5  A    between atoms: C_13  and  C_16
REMARK    6  A    between atoms: N_18  and  C_19
REMARK    7  A    between atoms: C_19  and  C_20
REMARK    8  A    between atoms: C_20  and  C_21
REMARK                            x       y       z     vdW  Elec       q    Type
REMARK                         _______ _______ _______ _____ _____    ______ ____
ROOT
ATOM      1  C   UNL     1       7.860  -5.333  -3.461  0.00  0.00    +0.244 C 
ATOM      2  O   UNL     1       7.883  -5.356  -4.677  0.00  0.00    -0.270 OA
ATOM      3  N   UNL     1       8.813  -5.974  -2.756  0.00  0.00    -0.311 N 
ATOM      4  H   UNL     1       8.794  -5.955  -1.787  0.00  0.00    +0.149 HD
ENDROOT
BRANCH   1   8
ATOM      5  C   UNL     1       4.773  -3.232  -1.437  0.00  0.00    +0.121 A 
ATOM      6  C   UNL     1       4.799  -3.257  -2.827  0.00  0.00    +0.046 A 
ATOM      7  C   UNL     1       5.798  -3.937  -3.487  0.00  0.00    +0.016 A 
ATOM      8  C   UNL     1       6.787  -4.603  -2.758  0.00  0.00    +0.037 A 
ATOM      9  C   UNL     1       6.758  -4.575  -1.361  0.00  0.00    +0.016 A 
ATOM     10  C   UNL     1       5.759  -3.888  -0.708  0.00  0.00    +0.046 A 
BRANCH   5  11
ATOM     11  O   UNL     1       3.787  -2.561  -0.790  0.00  0.00    -0.484 OA
BRANCH  11  12
ATOM     12  C   UNL     1       2.807  -1.910  -1.600  0.00  0.00    +0.303 C 
BRANCH  12  16
ATOM     13  C   UNL     1      -0.019   1.526   0.010  0.00  0.00    +0.077 C 
ATOM     14  C   UNL     1       0.002  -0.004   0.002  0.00  0.00    +0.288 C 
ATOM     15  N   UNL     1       0.724  -0.502  -1.179  0.00  0.00    -0.291 N 
ATOM     16  C   UNL     1       1.800  -1.222  -0.715  0.00  0.00    +0.175 C 
ATOM     17  N   UNL     1       1.839  -1.235   0.568  0.00  0.00    -0.069 NA
ATOM     18  O   UNL     1       0.756  -0.502   1.118  0.00  0.00    -0.370 OA
ATOM     19  H   UNL     1       0.487  -0.352  -2.108  0.00  0.00    +0.151 HD
ENDBRANCH  12  16
ENDBRANCH  11  12
ENDBRANCH   5  11
ENDBRANCH   1   8
BRANCH   3  20
ATOM     20  C   UNL     1       9.877  -6.699  -3.455  0.00  0.00    +0.109 C 
BRANCH  20  21
ATOM     21  C   UNL     1      10.821  -7.331  -2.430  0.00  0.00    +0.052 C 
BRANCH  21  22
ATOM     22  C   UNL     1      11.916  -8.077  -3.148  0.00  0.00    -0.040 C 
ATOM     23  C   UNL     1      13.150  -7.614  -3.454  0.00  0.00    -0.001 A 
ATOM     24  C   UNL     1      13.816  -6.327  -3.219  0.00  0.00    +0.010 A 
ATOM     25  C   UNL     1      15.085  -6.157  -3.653  0.00  0.00    +0.001 A 
ATOM     26  C   UNL     1      15.780  -7.176  -4.319  0.00  0.00    +0.002 A 
ATOM     27  C   UNL     1      15.235  -8.385  -4.572  0.00  0.00    +0.026 A 
ATOM     28  C   UNL     1      13.905  -8.674  -4.160  0.00  0.00    +0.043 A 
ATOM     29  N   UNL     1      13.166  -9.750  -4.285  0.00  0.00    -0.380 N 
ATOM     30  C   UNL     1      11.860  -9.496  -3.667  0.00  0.00    +0.144 C 
ATOM     31  H   UNL     1      13.440 -10.577  -4.712  0.00  0.00    +0.160 HD
ENDBRANCH  21  22
ENDBRANCH  20  21
ENDBRANCH   3  20
TORSDOF 7
