REMARK  Name = ZINC64678848
REMARK  7 active torsions:
REMARK  status: ('A' for Active; 'I' for Inactive)
REMARK    1  A    between atoms: C_1  and  N_2
REMARK    2  A    between atoms: N_2  and  C_3
REMARK    3  A    between atoms: C_3  and  C_4
REMARK    4  A    between atoms: C_4  and  C_5
REMARK    5  A    between atoms: C_8  and  C_11
REMARK    6  A    between atoms: C_22  and  C_24
REMARK    7  A    between atoms: C_24  and  C_27
REMARK                            x       y       z     vdW  Elec       q    Type
REMARK                         _______ _______ _______ _____ _____    ______ ____
ROOT
ATOM      1  C   UNL     1      -0.174   0.284   3.514  0.00  0.00    +0.139 C 
ATOM      2  N   UNL     1       0.959  -0.138   3.946  0.00  0.00    -0.072 NA
ATOM      3  O   UNL     1       0.915  -0.371   5.341  0.00  0.00    -0.367 OA
ATOM      4  C   UNL     1      -0.417  -0.040   5.764  0.00  0.00    +0.318 C 
ATOM      5  N   UNL     1      -1.094   0.390   4.530  0.00  0.00    -0.291 N 
ATOM      6  H   UNL     1      -2.013   0.690   4.450  0.00  0.00    +0.151 HD
ENDROOT
BRANCH   4   7
ATOM      7  C   UNL     1      -0.386   1.102   6.782  0.00  0.00    +0.165 C 
ATOM      8  C   UNL     1       0.219   2.340   6.159  0.00  0.00    +0.012 C 
ATOM      9  C   UNL     1       1.320   2.627   6.890  0.00  0.00    -0.002 A 
ATOM     10  C   UNL     1       2.326   3.692   6.795  0.00  0.00    +0.029 A 
ATOM     11  C   UNL     1       3.339   3.719   7.693  0.00  0.00    +0.042 A 
ATOM     12  C   UNL     1       3.450   2.757   8.708  0.00  0.00    +0.022 A 
ATOM     13  C   UNL     1       2.565   1.750   8.858  0.00  0.00    +0.027 A 
ATOM     14  C   UNL     1       1.461   1.624   7.970  0.00  0.00    +0.043 A 
ATOM     15  N   UNL     1       0.484   0.751   7.910  0.00  0.00    -0.373 N 
ATOM     16 CL   UNL     1       4.531   4.977   7.584  0.00  0.00    -0.084 Cl
ATOM     17  H   UNL     1       0.357  -0.001   8.510  0.00  0.00    +0.160 HD
ENDBRANCH   4   7
BRANCH   1  18
ATOM     18  C   UNL     1      -0.459   0.627   2.074  0.00  0.00    +0.094 C 
BRANCH  18  19
ATOM     19  C   UNL     1       0.798   0.385   1.235  0.00  0.00    +0.115 C 
BRANCH  19  21
ATOM     20  C   UNL     1       0.754   2.080  -0.654  0.00  0.00    +0.132 C 
ATOM     21  N   UNL     1       0.521   0.718  -0.165  0.00  0.00    -0.303 N 
ATOM     22  C   UNL     1       0.053  -0.228  -1.003  0.00  0.00    +0.226 C 
ATOM     23  O   UNL     1      -0.225  -1.329  -0.579  0.00  0.00    -0.275 OA
BRANCH  22  24
ATOM     24  C   UNL     1      -0.124   0.083  -2.467  0.00  0.00    +0.072 C 
ATOM     25  C   UNL     1       0.542  -0.856  -3.474  0.00  0.00    +0.022 C 
ATOM     26  C   UNL     1       1.108   0.547  -3.245  0.00  0.00    +0.022 C 
BRANCH  24  27
ATOM     27  C   UNL     1      -1.454   0.682  -2.847  0.00  0.00    -0.032 A 
ATOM     28  C   UNL     1      -1.506   1.933  -3.434  0.00  0.00    +0.004 A 
ATOM     29  C   UNL     1      -2.725   2.482  -3.783  0.00  0.00    +0.000 A 
ATOM     30  C   UNL     1      -3.893   1.781  -3.546  0.00  0.00    +0.000 A 
ATOM     31  C   UNL     1      -3.841   0.530  -2.960  0.00  0.00    +0.000 A 
ATOM     32  C   UNL     1      -2.621  -0.021  -2.615  0.00  0.00    +0.004 A 
ENDBRANCH  24  27
ENDBRANCH  22  24
ENDBRANCH  19  21
ENDBRANCH  18  19
ENDBRANCH   1  18
TORSDOF 6
