REMARK  Name = ZINC67469723
REMARK  6 active torsions:
REMARK  status: ('A' for Active; 'I' for Inactive)
REMARK    1  A    between atoms: C_1  and  C_2
REMARK    2  A    between atoms: C_2  and  C_4
REMARK    3  A    between atoms: C_2  and  N_15
REMARK    4  A    between atoms: C_8  and  S_10
REMARK    5  A    between atoms: S_10  and  N_13
REMARK    6  A    between atoms: N_13  and  C_14
REMARK                            x       y       z     vdW  Elec       q    Type
REMARK                         _______ _______ _______ _____ _____    ______ ____
ROOT
ATOM      1  N   UNL     1      -1.375  -0.506   0.013  0.00  0.00    -0.293 N 
ATOM      2  C   UNL     1      -2.051  -0.643  -1.145  0.00  0.00    +0.303 C 
ATOM      3  O   UNL     1      -1.555  -0.261  -2.187  0.00  0.00    -0.253 OA
ATOM      4  N   UNL     1      -3.277  -1.203  -1.147  0.00  0.00    -0.282 N 
ATOM      5  C   UNL     1      -3.875  -1.542   0.113  0.00  0.00    +0.113 C 
ATOM      6  C   UNL     1      -4.725  -2.774   0.045  0.00  0.00    +0.007 C 
ATOM      7  C   UNL     1      -4.055  -3.914  -0.704  0.00  0.00    +0.008 C 
ATOM      8  C   UNL     1      -4.291  -3.901  -2.201  0.00  0.00    -0.009 C 
ATOM      9  C   UNL     1      -5.780  -3.744  -2.521  0.00  0.00    +0.007 C 
ATOM     10  C   UNL     1      -6.240  -2.423  -1.900  0.00  0.00    -0.009 C 
ATOM     11  C   UNL     1      -6.149  -2.550  -0.379  0.00  0.00    +0.008 C 
ATOM     12  C   UNL     1      -5.408  -1.259  -2.387  0.00  0.00    +0.026 C 
ATOM     13  C   UNL     1      -3.931  -1.428  -2.424  0.00  0.00    +0.078 C 
ATOM     14  C   UNL     1      -3.530  -2.803  -2.929  0.00  0.00    +0.026 C 
ATOM     15  H   UNL     1      -1.799  -0.740   0.853  0.00  0.00    +0.151 HD
ENDROOT
BRANCH   1  17
ATOM     16  C   UNL     1      -0.015   1.527   0.001  0.00  0.00    +0.033 C 
ATOM     17  C   UNL     1       0.001  -0.003   0.003  0.00  0.00    +0.102 C 
BRANCH  17  18
ATOM     18  C   UNL     1       0.725  -0.496   1.229  0.00  0.00    -0.026 A 
ATOM     19  C   UNL     1       0.072  -0.541   2.447  0.00  0.00    +0.005 A 
ATOM     20  C   UNL     1       0.736  -0.994   3.571  0.00  0.00    +0.002 A 
ATOM     21  C   UNL     1       2.054  -1.402   3.478  0.00  0.00    +0.028 A 
ATOM     22  C   UNL     1       2.707  -1.357   2.261  0.00  0.00    +0.106 A 
ATOM     23  C   UNL     1       2.041  -0.909   1.135  0.00  0.00    +0.034 A 
BRANCH  22  24
ATOM     24  S   UNL     1       4.387  -1.876   2.142  0.00  0.00    +0.058 S 
ATOM     25  O   UNL     1       4.934  -1.224   1.005  0.00  0.00    -0.153 OA
ATOM     26  O   UNL     1       4.946  -1.740   3.442  0.00  0.00    -0.153 OA
BRANCH  24  27
ATOM     27  N   UNL     1       4.375  -3.496   1.799  0.00  0.00    -0.193 NA
ATOM     28  C   UNL     1       3.829  -3.972   0.526  0.00  0.00    +0.127 C 
ATOM     29  H   UNL     1       4.731  -4.131   2.441  0.00  0.00    +0.148 HD
ENDBRANCH  24  27
ENDBRANCH  22  24
ENDBRANCH  17  18
ENDBRANCH   1  17
TORSDOF 4
