REMARK  Name = ZINC57608737
REMARK  13 active torsions:
REMARK  status: ('A' for Active; 'I' for Inactive)
REMARK    1  A    between atoms: C_1  and  C_2
REMARK    2  A    between atoms: C_6  and  C_15
REMARK    3  A    between atoms: C_13  and  C_14
REMARK    4  A    between atoms: C_15  and  C_17
REMARK    5  A    between atoms: C_15  and  N_26
REMARK    6  A    between atoms: N_21  and  C_22
REMARK    7  A    between atoms: C_22  and  C_23
REMARK    8  A    between atoms: C_22  and  C_24
REMARK    9  A    between atoms: C_22  and  C_25
REMARK   10  A    between atoms: N_26  and  C_27
REMARK   11  A    between atoms: N_26  and  C_34
REMARK   12  A    between atoms: C_27  and  C_28
REMARK   13  A    between atoms: C_34  and  C_35
REMARK                            x       y       z     vdW  Elec       q    Type
REMARK                         _______ _______ _______ _____ _____    ______ ____
ROOT
ATOM      1  C   UNL     1       0.460  -4.073  -3.759  0.00  0.00    +0.163 C 
ENDROOT
BRANCH   1   7
ATOM      2  C   UNL     1       1.820   2.320  -0.168  0.00  0.00    +0.044 C 
ATOM      3  C   UNL     1       1.628   0.825  -0.163  0.00  0.00    -0.047 A 
ATOM      4  C   UNL     1       1.369   0.172  -1.335  0.00  0.00    +0.013 A 
ATOM      5  C   UNL     1       1.191  -1.215  -1.331  0.00  0.00    -0.001 A 
ATOM      6  C   UNL     1       0.912  -1.946  -2.569  0.00  0.00    +0.021 A 
ATOM      7  C   UNL     1       0.749  -3.291  -2.504  0.00  0.00    +0.042 A 
ATOM      8  C   UNL     1       0.848  -3.960  -1.265  0.00  0.00    +0.254 A 
ATOM      9  O   UNL     1       0.699  -5.169  -1.229  0.00  0.00    -0.268 OA
ATOM     10  N   UNL     1       1.105  -3.297  -0.124  0.00  0.00    -0.322 N 
ATOM     11  H   UNL     1       1.167  -3.788   0.711  0.00  0.00    +0.169 HD
ATOM     12  C   UNL     1       1.280  -1.929  -0.122  0.00  0.00    +0.049 A 
ATOM     13  C   UNL     1       1.545  -1.243   1.059  0.00  0.00    +0.030 A 
ATOM     14  C   UNL     1       1.723   0.123   1.030  0.00  0.00    -0.046 A 
ATOM     15  C   UNL     1       2.016   0.864   2.310  0.00  0.00    +0.044 C 
ENDBRANCH   1   7
BRANCH   1  16
ATOM     16  C   UNL     1      -0.916  -4.679  -3.667  0.00  0.00    +0.174 A 
ATOM     17  N   UNL     1      -1.269  -5.716  -2.947  0.00  0.00    -0.111 NA
ATOM     18  N   UNL     1      -2.526  -5.924  -3.136  0.00  0.00    -0.023 NA
ATOM     19  N   UNL     1      -2.985  -5.046  -3.958  0.00  0.00    -0.043 NA
ATOM     20  N   UNL     1      -2.024  -4.258  -4.305  0.00  0.00    -0.222 N 
BRANCH  20  21
ATOM     21  C   UNL     1      -2.120  -3.120  -5.222  0.00  0.00    +0.059 C 
ATOM     22  C   UNL     1      -1.244  -3.378  -6.449  0.00  0.00    +0.036 C 
ATOM     23  C   UNL     1      -3.575  -2.941  -5.662  0.00  0.00    +0.036 C 
ATOM     24  C   UNL     1      -1.643  -1.851  -4.513  0.00  0.00    +0.036 C 
ENDBRANCH  20  21
ENDBRANCH   1  16
BRANCH   1  25
ATOM     25  N   UNL     1       1.457  -5.142  -3.910  0.00  0.00    -0.277 NA
BRANCH  25  26
ATOM     26  C   UNL     1       1.395  -5.734  -5.253  0.00  0.00    +0.122 C 
BRANCH  26  27
ATOM     27  C   UNL     1       0.370  -6.839  -5.267  0.00  0.00    -0.015 A 
ATOM     28  C   UNL     1       0.697  -8.107  -4.811  0.00  0.00    +0.008 A 
ATOM     29  C   UNL     1      -0.278  -9.092  -4.844  0.00  0.00    +0.020 A 
ATOM     30  C   UNL     1      -1.535  -8.780  -5.326  0.00  0.00    +0.111 A 
ATOM     31  N   UNL     1      -1.811  -7.563  -5.752  0.00  0.00    -0.263 NA
ATOM     32  C   UNL     1      -0.910  -6.599  -5.730  0.00  0.00    +0.115 A 
ENDBRANCH  26  27
ENDBRANCH  25  26
BRANCH  25  33
ATOM     33  C   UNL     1       2.808  -4.647  -3.615  0.00  0.00    +0.160 C 
BRANCH  33  34
ATOM     34  C   UNL     1       3.757  -5.812  -3.505  0.00  0.00    +0.119 A 
ATOM     35  C   UNL     1       4.555  -6.271  -4.486  0.00  0.00    +0.046 A 
ATOM     36  C   UNL     1       5.270  -7.368  -3.952  0.00  0.00    +0.041 A 
ATOM     37  C   UNL     1       4.866  -7.514  -2.678  0.00  0.00    +0.195 A 
ATOM     38  O   UNL     1       3.954  -6.565  -2.411  0.00  0.00    -0.467 OA
ENDBRANCH  33  34
ENDBRANCH  25  33
ENDBRANCH   1  25
TORSDOF 8
