REMARK  Name = ZINC52568157
REMARK  5 active torsions:
REMARK  status: ('A' for Active; 'I' for Inactive)
REMARK    1  A    between atoms: C_1  and  C_2
REMARK    2  A    between atoms: C_12  and  C_14
REMARK    3  A    between atoms: N_23  and  C_25
REMARK    4  A    between atoms: C_25  and  C_26
REMARK    5  A    between atoms: C_25  and  C_27
REMARK                            x       y       z     vdW  Elec       q    Type
REMARK                         _______ _______ _______ _____ _____    ______ ____
ROOT
ATOM      1  C   UNL     1       0.809  -1.662   3.330  0.00  0.00    +0.154 A 
ATOM      2  C   UNL     1       0.098  -2.390   4.394  0.00  0.00    +0.020 A 
ATOM      3  C   UNL     1      -1.283  -2.558   4.398  0.00  0.00    +0.011 A 
ATOM      4  C   UNL     1      -1.877  -3.253   5.431  0.00  0.00    +0.001 A 
ATOM      5  C   UNL     1      -1.113  -3.784   6.462  0.00  0.00    +0.001 A 
ATOM      6  C   UNL     1       0.257  -3.629   6.477  0.00  0.00    +0.014 A 
ATOM      7  C   UNL     1       0.875  -2.932   5.444  0.00  0.00    +0.050 A 
ATOM      8  C   UNL     1       2.328  -2.720   5.381  0.00  0.00    +0.275 A 
ATOM      9  O   UNL     1       3.059  -3.158   6.250  0.00  0.00    -0.266 OA
ATOM     10  N   UNL     1       2.832  -2.029   4.338  0.00  0.00    -0.226 N 
ATOM     11  N   UNL     1       2.113  -1.550   3.394  0.00  0.00    -0.163 NA
ENDROOT
BRANCH   1  22
ATOM     12  C   UNL     1       3.014  -0.597   0.586  0.00  0.00    +0.033 C 
ATOM     13  C   UNL     1       2.086   0.140   1.553  0.00  0.00    +0.104 C 
ATOM     14  C   UNL     1       2.175   1.645   1.309  0.00  0.00    -0.017 A 
ATOM     15  C   UNL     1       3.273   2.416   1.687  0.00  0.00    +0.013 A 
ATOM     16  C   UNL     1       3.286   3.745   1.435  0.00  0.00    +0.046 A 
ATOM     17  S   UNL     1       1.707   3.982   0.633  0.00  0.00    -0.101 S 
ATOM     18  C   UNL     1       1.152   2.299   0.696  0.00  0.00    -0.004 A 
ATOM     19  C   UNL     1      -0.136   1.728   0.199  0.00  0.00    +0.062 C 
ATOM     20  C   UNL     1       0.004   0.201   0.110  0.00  0.00    +0.114 C 
ATOM     21  N   UNL     1       0.695  -0.272   1.320  0.00  0.00    -0.289 N 
ATOM     22  C   UNL     1       0.062  -1.070   2.203  0.00  0.00    +0.268 C 
ATOM     23  O   UNL     1      -1.124  -1.303   2.070  0.00  0.00    -0.268 OA
ENDBRANCH   1  22
BRANCH  10  24
ATOM     24  C   UNL     1       4.281  -1.819   4.280  0.00  0.00    +0.105 C 
ATOM     25  C   UNL     1       4.836  -2.446   3.000  0.00  0.00    +0.032 C 
ATOM     26  C   UNL     1       4.580  -0.319   4.285  0.00  0.00    +0.032 C 
ENDBRANCH  10  24
TORSDOF 2
