REMARK  Name = ZINC20118757
REMARK  8 active torsions:
REMARK  status: ('A' for Active; 'I' for Inactive)
REMARK    1  A    between atoms: C_1  and  C_2
REMARK    2  A    between atoms: C_6  and  C_9
REMARK    3  A    between atoms: C_9  and  N_10
REMARK    4  A    between atoms: N_10  and  C_11
REMARK    5  A    between atoms: N_22  and  C_25
REMARK    6  A    between atoms: C_25  and  C_27
REMARK    7  A    between atoms: C_25  and  C_28
REMARK    8  A    between atoms: C_31  and  C_33
REMARK                            x       y       z     vdW  Elec       q    Type
REMARK                         _______ _______ _______ _____ _____    ______ ____
ROOT
ATOM      1  C   UNL     1      -0.018   1.465   0.010  0.00  0.00    +0.059 C 
ATOM      2  C   UNL     1       1.418   1.998  -0.001  0.00  0.00    +0.024 C 
ATOM      3  C   UNL     1       1.414   3.505   0.258  0.00  0.00    +0.038 C 
ATOM      4  C   UNL     1       0.459   4.174  -0.728  0.00  0.00    -0.023 A 
ATOM      5  C   UNL     1      -0.484   3.447  -1.372  0.00  0.00    -0.003 A 
ATOM      6  S   UNL     1      -1.348   4.610  -2.397  0.00  0.00    -0.073 S 
ATOM      7  C   UNL     1      -0.447   6.064  -1.961  0.00  0.00    +0.116 A 
ATOM      8  C   UNL     1       0.503   5.594  -1.027  0.00  0.00    +0.076 A 
ATOM      9  C   UNL     1       1.406   6.563  -0.473  0.00  0.00    +0.263 A 
ATOM     10  O   UNL     1       2.263   6.260   0.340  0.00  0.00    -0.267 OA
ATOM     11  N   UNL     1       1.246   7.834  -0.913  0.00  0.00    -0.290 N 
ATOM     12  C   UNL     1       0.301   8.190  -1.816  0.00  0.00    +0.203 A 
ATOM     13  N   UNL     1      -0.543   7.333  -2.345  0.00  0.00    -0.230 NA
ATOM     14  C   UNL     1      -0.741   1.977  -1.244  0.00  0.00    +0.061 C 
ENDROOT
BRANCH   1  15
ATOM     15  N   UNL     1       0.002  -0.004   0.002  0.00  0.00    -0.309 NA
ATOM     16  H   UNL     1       0.871  -0.348   0.583  0.00  0.00    +0.123 HD
BRANCH  15  17
ATOM     17  C   UNL     1      -1.228  -0.550   0.591  0.00  0.00    +0.122 C 
BRANCH  17  23
ATOM     18  C   UNL     1       0.014  -4.883   2.774  0.00  0.00    +0.047 C 
ATOM     19  C   UNL     1      -0.577  -4.131   1.610  0.00  0.00    -0.015 A 
ATOM     20  C   UNL     1      -1.067  -4.822   0.518  0.00  0.00    +0.009 A 
ATOM     21  C   UNL     1      -1.610  -4.133  -0.550  0.00  0.00    +0.039 A 
ATOM     22  C   UNL     1      -1.667  -2.749  -0.526  0.00  0.00    +0.131 A 
ATOM     23  C   UNL     1      -1.171  -2.056   0.565  0.00  0.00    +0.037 A 
ATOM     24  C   UNL     1      -0.628  -2.747   1.635  0.00  0.00    +0.133 A 
ATOM     25  F   UNL     1      -0.149  -2.072   2.702  0.00  0.00    -0.205 F 
ATOM     26  F   UNL     1      -2.202  -2.076  -1.568  0.00  0.00    -0.205 F 
ENDBRANCH  17  23
ENDBRANCH  15  17
ENDBRANCH   1  15
BRANCH  11  27
ATOM     27  C   UNL     1       2.136   8.871  -0.386  0.00  0.00    +0.137 C 
ATOM     28  C   UNL     1       1.306   9.945   0.320  0.00  0.00    +0.038 C 
BRANCH  27  29
ATOM     29  C   UNL     1       2.905   9.497  -1.521  0.00  0.00    +0.071 A 
ATOM     30  C   UNL     1       4.107  10.090  -1.304  0.00  0.00    +0.072 A 
ATOM     31  S   UNL     1       4.513  10.624  -2.960  0.00  0.00    -0.080 S 
ATOM     32  C   UNL     1       3.087  10.023  -3.746  0.00  0.00    +0.076 A 
ATOM     33  N   UNL     1       2.430   9.477  -2.749  0.00  0.00    -0.247 NA
ATOM     34  C   UNL     1       2.704  10.102  -5.202  0.00  0.00    +0.073 C 
ENDBRANCH  27  29
ENDBRANCH  11  27
TORSDOF 5
