REMARK  Name = ZINC11955115
REMARK  10 active torsions:
REMARK  status: ('A' for Active; 'I' for Inactive)
REMARK    1  A    between atoms: C_1  and  C_2
REMARK    2  A    between atoms: C_5  and  C_23
REMARK    3  A    between atoms: C_6  and  O_9
REMARK    4  A    between atoms: C_7  and  C_8
REMARK    5  A    between atoms: O_9  and  C_10
REMARK    6  A    between atoms: C_10  and  C_11
REMARK    7  A    between atoms: C_11  and  O_12
REMARK    8  A    between atoms: O_12  and  C_13
REMARK    9  A    between atoms: C_16  and  C_20
REMARK   10  A    between atoms: C_20  and  N_22
REMARK                            x       y       z     vdW  Elec       q    Type
REMARK                         _______ _______ _______ _____ _____    ______ ____
ROOT
ATOM      1  O   UNL     1       3.911   1.282   1.175  0.00  0.00    -0.487 OA
ENDROOT
BRANCH   1   2
ATOM      2  C   UNL     1       5.177   0.796   1.113  0.00  0.00    +0.135 A 
ATOM      3  C   UNL     1       6.147   1.276   1.986  0.00  0.00    +0.047 A 
ATOM      4  C   UNL     1       7.432   0.785   1.927  0.00  0.00    +0.014 A 
ATOM      5  C   UNL     1       7.762  -0.197   0.988  0.00  0.00    +0.004 A 
ATOM      6  C   UNL     1       6.784  -0.676   0.112  0.00  0.00    +0.029 A 
ATOM      7  C   UNL     1       5.499  -0.184   0.181  0.00  0.00    +0.060 A 
ATOM      8 BR   UNL     1       4.172  -0.837  -0.998  0.00  0.00    -0.046 Br
BRANCH   5   9
ATOM      9  C   UNL     1       9.137  -0.724   0.921  0.00  0.00    +0.077 C 
ATOM     10  S   UNL     1      10.055  -0.902   2.355  0.00  0.00    -0.035 S 
BRANCH   9  11
ATOM     11  N   UNL     1       9.670  -1.066  -0.268  0.00  0.00    -0.352 N 
ATOM     12  H   UNL     1       9.150  -0.965  -1.080  0.00  0.00    +0.143 HD
ATOM     13  H   UNL     1      10.575  -1.413  -0.312  0.00  0.00    +0.143 HD
ENDBRANCH   9  11
ENDBRANCH   5   9
ENDBRANCH   1   2
BRANCH   1  14
ATOM     14  C   UNL     1       3.648   2.283   2.160  0.00  0.00    +0.270 C 
BRANCH  14  15
ATOM     15  C   UNL     1       2.179   2.705   2.079  0.00  0.00    +0.270 C 
BRANCH  15  16
ATOM     16  O   UNL     1       1.346   1.599   2.432  0.00  0.00    -0.488 OA
BRANCH  16  22
ATOM     17  C   UNL     1      -2.865   1.540  -0.037  0.00  0.00    +0.044 C 
ATOM     18  C   UNL     1      -2.082   1.789   1.227  0.00  0.00    -0.044 A 
ATOM     19  C   UNL     1      -2.731   2.231   2.366  0.00  0.00    +0.004 A 
ATOM     20  C   UNL     1      -2.014   2.466   3.525  0.00  0.00    +0.007 A 
ATOM     21  C   UNL     1      -0.649   2.254   3.549  0.00  0.00    -0.009 A 
ATOM     22  C   UNL     1       0.003   1.807   2.410  0.00  0.00    +0.127 A 
ATOM     23  C   UNL     1      -0.718   1.572   1.248  0.00  0.00    -0.006 A 
ATOM     24  C   UNL     1      -0.013   1.086   0.008  0.00  0.00    +0.048 C 
ATOM     25  C   UNL     1       0.131   2.510   4.813  0.00  0.00    +0.047 C 
ENDBRANCH  16  22
ENDBRANCH  15  16
ENDBRANCH  14  15
ENDBRANCH   1  14
TORSDOF 7
