REMARK  Name = ZINC49119990
REMARK  5 active torsions:
REMARK  status: ('A' for Active; 'I' for Inactive)
REMARK    1  A    between atoms: C_1  and  C_2
REMARK    2  A    between atoms: C_2  and  C_3
REMARK    3  A    between atoms: C_9  and  N_11
REMARK    4  A    between atoms: N_11  and  C_12
REMARK    5  A    between atoms: C_12  and  C_13
REMARK                            x       y       z     vdW  Elec       q    Type
REMARK                         _______ _______ _______ _____ _____    ______ ____
ROOT
ATOM      1  N   UNL     1      -0.488  -2.625  -1.133  0.00  0.00    +0.386 N 
ATOM      2  H   UNL     1      -0.991  -2.238  -0.349  0.00  0.00    -0.085 HD
ATOM      3  H   UNL     1      -0.991  -2.430  -1.986  0.00  0.00    -0.085 HD
ENDROOT
BRANCH   1   9
ATOM      4  C   UNL     1       0.718  -0.497  -1.257  0.00  0.00    -0.025 C 
ATOM      5  C   UNL     1      -0.089  -0.097  -2.493  0.00  0.00    +0.002 C 
ATOM      6  C   UNL     1       0.627  -0.590  -3.752  0.00  0.00    +0.000 C 
ATOM      7  C   UNL     1       0.758  -2.114  -3.700  0.00  0.00    -0.002 C 
ATOM      8  C   UNL     1       1.565  -2.514  -2.464  0.00  0.00    -0.015 C 
ATOM      9  C   UNL     1       0.849  -2.021  -1.205  0.00  0.00    -0.068 C 
BRANCH   4  11
ATOM     10  C   UNL     1      -0.019   1.526   0.010  0.00  0.00    +0.004 C 
ATOM     11  C   UNL     1       0.002  -0.004   0.002  0.00  0.00    -0.002 C 
ENDBRANCH   4  11
ENDBRANCH   1   9
BRANCH   1  12
ATOM     12  C   UNL     1      -0.360  -4.079  -0.963  0.00  0.00    -0.005 C 
BRANCH  12  13
ATOM     13  C   UNL     1      -1.731  -4.699  -0.890  0.00  0.00    +0.117 A 
ATOM     14  N   UNL     1      -2.302  -4.816   0.296  0.00  0.00    -0.195 NA
ATOM     15  C   UNL     1      -3.513  -5.358   0.404  0.00  0.00    +0.288 A 
ATOM     16  O   UNL     1      -4.113  -5.485   1.612  0.00  0.00    -0.265 OA
ATOM     17  C   UNL     1      -4.143  -5.787  -0.749  0.00  0.00    +0.104 A 
ATOM     18  C   UNL     1      -3.524  -5.658  -2.012  0.00  0.00    +0.085 A 
ATOM     19  N   UNL     1      -2.295  -5.087  -2.004  0.00  0.00    -0.233 NA
ATOM     20  C   UNL     1      -4.274  -6.135  -3.101  0.00  0.00    +0.036 A 
ATOM     21  C   UNL     1      -5.494  -6.669  -2.901  0.00  0.00    +0.048 A 
ATOM     22  S   UNL     1      -5.698  -6.547  -1.132  0.00  0.00    -0.090 S 
ENDBRANCH  12  13
ENDBRANCH   1  12
TORSDOF 4
