REMARK  Name = ZINC39886157
REMARK  7 active torsions:
REMARK  status: ('A' for Active; 'I' for Inactive)
REMARK    1  A    between atoms: C_1  and  C_2
REMARK    2  A    between atoms: C_2  and  O_3
REMARK    3  A    between atoms: O_3  and  C_4
REMARK    4  A    between atoms: C_4  and  C_6
REMARK    5  A    between atoms: C_9  and  N_12
REMARK    6  A    between atoms: C_15  and  C_16
REMARK    7  A    between atoms: C_19  and  O_22
REMARK                            x       y       z     vdW  Elec       q    Type
REMARK                         _______ _______ _______ _____ _____    ______ ____
ROOT
ATOM      1  N   UNL     1      -6.548  -4.449   0.555  0.00  0.00    -0.231 NA
ATOM      2  C   UNL     1      -6.827  -5.480  -0.218  0.00  0.00    +0.140 C 
ATOM      3  C   UNL     1      -8.216  -5.892  -0.499  0.00  0.00    +0.058 C 
ATOM      4  C   UNL     1      -9.381  -5.348  -0.063  0.00  0.00    +0.026 C 
ATOM      5  S   UNL     1      -7.949  -7.299  -1.567  0.00  0.00    -0.028 S 
ATOM      6  C   UNL     1      -6.165  -7.274  -1.586  0.00  0.00    +0.282 C 
ATOM      7  O   UNL     1      -5.408  -8.026  -2.170  0.00  0.00    -0.262 OA
ATOM      8  N   UNL     1      -5.854  -6.221  -0.805  0.00  0.00    -0.260 N 
ATOM      9  H   UNL     1      -4.923  -5.992  -0.658  0.00  0.00    +0.157 HD
ENDROOT
BRANCH   1  13
ATOM     10  C   UNL     1      -2.621  -3.392   1.249  0.00  0.00    +0.059 A 
ATOM     11  C   UNL     1      -3.567  -2.407   0.944  0.00  0.00    +0.017 A 
ATOM     12  C   UNL     1      -4.866  -2.755   0.714  0.00  0.00    +0.028 A 
ATOM     13  C   UNL     1      -5.253  -4.100   0.783  0.00  0.00    +0.066 A 
ATOM     14  C   UNL     1      -4.305  -5.087   1.088  0.00  0.00    +0.028 A 
ATOM     15  C   UNL     1      -3.006  -4.737   1.312  0.00  0.00    +0.017 A 
BRANCH  10  16
ATOM     16  C   UNL     1      -1.219  -3.015   1.497  0.00  0.00    +0.339 C 
ATOM     17  O   UNL     1      -0.397  -3.871   1.757  0.00  0.00    -0.245 OA
BRANCH  16  18
ATOM     18  O   UNL     1      -0.849  -1.721   1.436  0.00  0.00    -0.461 OA
BRANCH  18  20
ATOM     19  C   UNL     1       0.755   0.081   1.575  0.00  0.00    +0.048 C 
ATOM     20  C   UNL     1       0.527  -1.427   1.688  0.00  0.00    +0.229 C 
ENDBRANCH  18  20
ENDBRANCH  16  18
ENDBRANCH  10  16
ENDBRANCH   1  13
BRANCH   4  21
ATOM     21  C   UNL     1     -10.655  -6.025  -0.338  0.00  0.00    -0.024 A 
ATOM     22  C   UNL     1     -10.666  -7.372  -0.723  0.00  0.00    +0.011 A 
ATOM     23  C   UNL     1     -11.863  -8.002  -0.979  0.00  0.00    +0.046 A 
ATOM     24  C   UNL     1     -13.059  -7.304  -0.856  0.00  0.00    +0.117 A 
ATOM     25  C   UNL     1     -13.054  -5.968  -0.474  0.00  0.00    +0.046 A 
ATOM     26  C   UNL     1     -11.863  -5.329  -0.210  0.00  0.00    +0.011 A 
BRANCH  24  27
ATOM     27  O   UNL     1     -14.237  -7.930  -1.111  0.00  0.00    -0.507 OA
ATOM     28  H   UNL     1     -14.632  -8.354  -0.336  0.00  0.00    +0.292 HD
ENDBRANCH  24  27
ENDBRANCH   4  21
TORSDOF 6
