REMARK  Name = ZINC17420092
REMARK  8 active torsions:
REMARK  status: ('A' for Active; 'I' for Inactive)
REMARK    1  A    between atoms: C_4  and  C_8
REMARK    2  A    between atoms: N_9  and  N_10
REMARK    3  A    between atoms: C_11  and  C_13
REMARK    4  A    between atoms: C_13  and  C_14
REMARK    5  A    between atoms: C_14  and  C_15
REMARK    6  A    between atoms: C_15  and  C_16
REMARK    7  A    between atoms: N_18  and  N_19
REMARK    8  A    between atoms: C_20  and  C_21
REMARK                            x       y       z     vdW  Elec       q    Type
REMARK                         _______ _______ _______ _____ _____    ______ ____
ROOT
ATOM      1  C   UNL     1       2.690   7.252  -0.076  0.00  0.00    +0.018 C 
ENDROOT
BRANCH   1   2
ATOM      2  C   UNL     1       2.986   5.776  -0.348  0.00  0.00    +0.098 C 
BRANCH   2   4
ATOM      3  N   UNL     1       1.711   3.669  -0.579  0.00  0.00    -0.207 N 
ATOM      4  C   UNL     1       1.695   4.998  -0.358  0.00  0.00    +0.232 C 
ATOM      5  O   UNL     1       0.641   5.569  -0.167  0.00  0.00    -0.274 OA
ATOM      6  H   UNL     1       2.543   3.224  -0.804  0.00  0.00    +0.177 HD
BRANCH   3   8
ATOM      7  C   UNL     1       0.555   1.637  -0.599  0.00  0.00    +0.141 C 
ATOM      8  N   UNL     1       0.525   2.929  -0.485  0.00  0.00    -0.188 NA
BRANCH   7  12
ATOM      9  C   UNL     1       4.281  -0.388  -0.810  0.00  0.00    +0.003 A 
ATOM     10  C   UNL     1       4.011   0.445   0.261  0.00  0.00    +0.021 A 
ATOM     11  C   UNL     1       2.801   1.107   0.337  0.00  0.00    +0.051 A 
ATOM     12  C   UNL     1       1.849   0.934  -0.672  0.00  0.00    +0.031 A 
ATOM     13  C   UNL     1       2.128   0.086  -1.749  0.00  0.00    +0.051 A 
ATOM     14  C   UNL     1       3.345  -0.565  -1.813  0.00  0.00    +0.021 A 
ATOM     15 CL   UNL     1       0.951  -0.143  -3.004  0.00  0.00    -0.083 Cl
ATOM     16 CL   UNL     1       2.463   2.151   1.682  0.00  0.00    -0.083 Cl
ENDBRANCH   7  12
ENDBRANCH   3   8
ENDBRANCH   2   4
ENDBRANCH   1   2
BRANCH   1  17
ATOM     17  C   UNL     1       4.000   8.042  -0.066  0.00  0.00    +0.098 C 
BRANCH  17  18
ATOM     18  C   UNL     1       3.708   9.496   0.201  0.00  0.00    +0.232 C 
ATOM     19  O   UNL     1       2.565   9.864   0.367  0.00  0.00    -0.274 OA
ATOM     20  N   UNL     1       4.718  10.387   0.256  0.00  0.00    -0.207 N 
ATOM     21  H   UNL     1       5.624  10.106   0.052  0.00  0.00    +0.177 HD
BRANCH  20  22
ATOM     22  N   UNL     1       4.460  11.718   0.608  0.00  0.00    -0.188 NA
ATOM     23  C   UNL     1       5.412  12.599   0.558  0.00  0.00    +0.141 C 
BRANCH  23  24
ATOM     24  C   UNL     1       6.715  12.244  -0.034  0.00  0.00    +0.031 A 
ATOM     25  C   UNL     1       7.889  12.400   0.708  0.00  0.00    +0.051 A 
ATOM     26  C   UNL     1       9.105  12.060   0.149  0.00  0.00    +0.021 A 
ATOM     27  C   UNL     1       9.164  11.577  -1.146  0.00  0.00    +0.003 A 
ATOM     28  C   UNL     1       8.006  11.424  -1.889  0.00  0.00    +0.021 A 
ATOM     29  C   UNL     1       6.782  11.754  -1.341  0.00  0.00    +0.051 A 
ATOM     30 CL   UNL     1       5.331  11.563  -2.275  0.00  0.00    -0.083 Cl
ATOM     31 CL   UNL     1       7.819  13.014   2.330  0.00  0.00    -0.083 Cl
ENDBRANCH  23  24
ENDBRANCH  20  22
ENDBRANCH  17  18
ENDBRANCH   1  17
TORSDOF 8
