REMARK  Name = ZINC32504605
REMARK  10 active torsions:
REMARK  status: ('A' for Active; 'I' for Inactive)
REMARK    1  A    between atoms: C_1  and  C_2
REMARK    2  A    between atoms: C_5  and  N_8
REMARK    3  A    between atoms: N_20  and  C_21
REMARK    4  A    between atoms: C_21  and  C_23
REMARK    5  A    between atoms: C_23  and  N_24
REMARK    6  A    between atoms: C_25  and  O_27
REMARK    7  A    between atoms: O_27  and  C_28
REMARK    8  A    between atoms: C_28  and  C_29
REMARK    9  A    between atoms: C_28  and  C_30
REMARK   10  A    between atoms: C_28  and  C_31
REMARK                            x       y       z     vdW  Elec       q    Type
REMARK                         _______ _______ _______ _____ _____    ______ ____
ROOT
ATOM      1  N   UNL     1      -0.666   1.517  -1.214  0.00  0.00    -0.276 N 
ATOM      2  C   UNL     1       0.117   1.318  -0.008  0.00  0.00    +0.116 C 
ATOM      3  C   UNL     1       1.466   2.062  -0.150  0.00  0.00    +0.190 C 
ATOM      4  S   UNL     1       1.773   2.618   1.582  0.00  0.00    -0.028 S 
ATOM      5  O   UNL     1       2.354   1.553   2.322  0.00  0.00    -0.174 OA
ATOM      6  O   UNL     1       2.405   3.891   1.562  0.00  0.00    -0.174 OA
ATOM      7  C   UNL     1       0.007   2.818   2.083  0.00  0.00    +0.182 C 
ATOM      8  C   UNL     1      -0.668   1.714   1.247  0.00  0.00    +0.097 C 
ATOM      9  S   UNL     1      -2.217   2.363   0.517  0.00  0.00    -0.086 S 
ATOM     10  C   UNL     1      -1.887   2.083  -1.157  0.00  0.00    +0.154 C 
ATOM     11  N   UNL     1      -2.684   2.365  -2.181  0.00  0.00    -0.157 NA
ENDROOT
BRANCH   1  16
ATOM     12  C   UNL     1       1.444  -0.018  -6.251  0.00  0.00    +0.044 C 
ATOM     13  C   UNL     1       0.884   0.390  -4.912  0.00  0.00    -0.050 A 
ATOM     14  C   UNL     1       0.576  -0.575  -3.971  0.00  0.00    +0.005 A 
ATOM     15  C   UNL     1       0.061  -0.204  -2.744  0.00  0.00    +0.024 A 
ATOM     16  C   UNL     1      -0.145   1.139  -2.455  0.00  0.00    +0.036 A 
ATOM     17  C   UNL     1       0.162   2.105  -3.405  0.00  0.00    +0.024 A 
ATOM     18  C   UNL     1       0.680   1.728  -4.629  0.00  0.00    +0.005 A 
ENDBRANCH   1  16
BRANCH  11  19
ATOM     19  C   UNL     1      -3.873   2.921  -1.965  0.00  0.00    +0.255 C 
ATOM     20  O   UNL     1      -4.230   3.170  -0.830  0.00  0.00    -0.272 OA
BRANCH  19  21
ATOM     21  C   UNL     1      -4.778   3.241  -3.127  0.00  0.00    +0.205 C 
BRANCH  21  22
ATOM     22  N   UNL     1      -6.018   3.842  -2.629  0.00  0.00    -0.272 N 
ATOM     23  C   UNL     1      -6.982   4.212  -3.495  0.00  0.00    +0.401 C 
ATOM     24  O   UNL     1      -6.823   4.047  -4.688  0.00  0.00    -0.226 OA
ATOM     25  H   UNL     1      -6.162   3.990  -1.549  0.00  0.00    +0.153 HD
BRANCH  23  26
ATOM     26  O   UNL     1      -8.122   4.764  -3.037  0.00  0.00    -0.445 OA
BRANCH  26  27
ATOM     27  C   UNL     1      -9.117   5.138  -4.027  0.00  0.00    +0.107 C 
ATOM     28  C   UNL     1      -9.547   3.897  -4.812  0.00  0.00    +0.055 C 
ATOM     29  C   UNL     1     -10.333   5.744  -3.323  0.00  0.00    +0.055 C 
ATOM     30  C   UNL     1      -8.518   6.167  -4.987  0.00  0.00    +0.055 C 
ENDBRANCH  26  27
ENDBRANCH  23  26
ENDBRANCH  21  22
ENDBRANCH  19  21
ENDBRANCH  11  19
TORSDOF 6
