REMARK  Name = ZINC35697739
REMARK  4 active torsions:
REMARK  status: ('A' for Active; 'I' for Inactive)
REMARK    1  A    between atoms: C_1  and  C_2
REMARK    2  A    between atoms: C_2  and  C_3
REMARK    3  A    between atoms: C_7  and  C_20
REMARK    4  A    between atoms: C_8  and  N_9
REMARK                            x       y       z     vdW  Elec       q    Type
REMARK                         _______ _______ _______ _____ _____    ______ ____
ROOT
ATOM      1  N   UNL     1       2.833  -0.268  -0.111  0.00  0.00    -0.256 N 
ATOM      2  C   UNL     1       3.264   0.997   0.041  0.00  0.00    +0.267 A 
ATOM      3  O   UNL     1       3.011   1.839  -0.801  0.00  0.00    -0.267 OA
ATOM      4  C   UNL     1       4.047   1.354   1.243  0.00  0.00    +0.071 A 
ATOM      5  C   UNL     1       4.613   2.639   1.624  0.00  0.00    +0.023 A 
ATOM      6  C   UNL     1       5.286   2.679   2.785  0.00  0.00    +0.048 A 
ATOM      7  S   UNL     1       5.173   1.006   3.381  0.00  0.00    -0.079 S 
ATOM      8  C   UNL     1       4.282   0.318   2.147  0.00  0.00    +0.092 A 
ATOM      9  N   UNL     1       3.806  -0.946   1.913  0.00  0.00    -0.329 N 
ATOM     10  C   UNL     1       3.093  -1.217   0.804  0.00  0.00    +0.166 A 
ATOM     11  S   UNL     1       2.509  -2.806   0.551  0.00  0.00    -0.012 S 
ATOM     12  H   UNL     1       3.982  -1.652   2.555  0.00  0.00    +0.168 HD
ENDROOT
BRANCH   1  18
ATOM     13  C   UNL     1       0.707  -0.490  -1.238  0.00  0.00    -0.023 A 
ATOM     14  C   UNL     1      -0.021  -0.817  -2.365  0.00  0.00    +0.005 A 
ATOM     15  C   UNL     1       0.625  -1.263  -3.503  0.00  0.00    +0.001 A 
ATOM     16  C   UNL     1       2.003  -1.383  -3.517  0.00  0.00    +0.005 A 
ATOM     17  C   UNL     1       2.737  -1.058  -2.393  0.00  0.00    -0.026 A 
ATOM     18  C   UNL     1       2.091  -0.604  -1.251  0.00  0.00    +0.058 A 
ATOM     19  C   UNL     1       4.238  -1.190  -2.409  0.00  0.00    +0.046 C 
BRANCH  13  21
ATOM     20  C   UNL     1      -0.019   1.526   0.010  0.00  0.00    +0.009 C 
ATOM     21  C   UNL     1       0.002  -0.004   0.002  0.00  0.00    +0.034 C 
ENDBRANCH  13  21
ENDBRANCH   1  18
TORSDOF 2
