REMARK  Name = ZINC21857903
REMARK  7 active torsions:
REMARK  status: ('A' for Active; 'I' for Inactive)
REMARK    1  A    between atoms: C_1  and  C_2
REMARK    2  A    between atoms: C_2  and  C_24
REMARK    3  A    between atoms: C_7  and  O_22
REMARK    4  A    between atoms: N_15  and  C_16
REMARK    5  A    between atoms: C_16  and  C_17
REMARK    6  A    between atoms: O_22  and  C_23
REMARK    7  A    between atoms: N_26  and  C_27
REMARK                            x       y       z     vdW  Elec       q    Type
REMARK                         _______ _______ _______ _____ _____    ______ ____
ROOT
ATOM      1  C   UNL     1       2.365   1.436  -6.958  0.00  0.00    +0.043 C 
ATOM      2  C   UNL     1       2.794   2.417  -5.865  0.00  0.00    +0.129 C 
ATOM      3  C   UNL     1       2.501   3.840  -6.339  0.00  0.00    +0.157 C 
ATOM      4  N   UNL     1       3.472   4.212  -7.374  0.00  0.00    -0.334 N 
ATOM      5  C   UNL     1       3.350   5.058  -8.425  0.00  0.00    +0.053 A 
ATOM      6  C   UNL     1       2.283   5.826  -8.889  0.00  0.00    +0.072 A 
ATOM      7  C   UNL     1       2.507   6.603 -10.017  0.00  0.00    +0.122 A 
ATOM      8  C   UNL     1       3.737   6.625 -10.668  0.00  0.00    +0.046 A 
ATOM      9  C   UNL     1       4.802   5.880 -10.236  0.00  0.00    +0.013 A 
ATOM     10  C   UNL     1       4.604   5.084  -9.097  0.00  0.00    +0.001 A 
ATOM     11  C   UNL     1       5.466   4.216  -8.404  0.00  0.00    +0.041 A 
ATOM     12  C   UNL     1       4.768   3.684  -7.380  0.00  0.00    +0.106 A 
ATOM     13  C   UNL     1       5.185   2.716  -6.351  0.00  0.00    +0.264 C 
ATOM     14  O   UNL     1       6.349   2.393  -6.211  0.00  0.00    -0.268 OA
ATOM     15  N   UNL     1       4.206   2.205  -5.569  0.00  0.00    -0.273 N 
ENDROOT
BRANCH   2  16
ATOM     16  C   UNL     1       1.988   2.142  -4.622  0.00  0.00    +0.238 C 
ATOM     17  O   UNL     1       1.001   1.440  -4.681  0.00  0.00    -0.273 OA
ATOM     18  N   UNL     1       2.365   2.676  -3.443  0.00  0.00    -0.311 N 
ATOM     19  H   UNL     1       3.306   3.240  -3.370  0.00  0.00    +0.149 HD
BRANCH  18  20
ATOM     20  C   UNL     1       1.520   2.505  -2.258  0.00  0.00    +0.073 C 
ATOM     21  C   UNL     1       0.396   3.558  -2.291  0.00  0.00    +0.022 C 
ATOM     22  C   UNL     1      -0.279   3.755  -0.920  0.00  0.00    +0.002 C 
ATOM     23  C   UNL     1      -0.514   2.454  -0.202  0.00  0.00    +0.000 C 
ATOM     24  C   UNL     1       0.678   2.194   0.742  0.00  0.00    +0.000 C 
ATOM     25  C   UNL     1       1.832   1.651   0.042  0.00  0.00    +0.002 C 
ATOM     26  C   UNL     1       2.379   2.619  -1.028  0.00  0.00    +0.022 C 
ENDBRANCH  18  20
ENDBRANCH   2  16
BRANCH   7  27
ATOM     27  O   UNL     1       1.493   7.365 -10.502  0.00  0.00    -0.495 OA
ATOM     28  C   UNL     1       1.769   8.149 -11.665  0.00  0.00    +0.277 C 
ENDBRANCH   7  27
BRANCH  15  29
ATOM     29  C   UNL     1       4.575   1.417  -4.390  0.00  0.00    +0.183 C 
BRANCH  29  30
ATOM     30  C   UNL     1       4.703  -0.034  -4.776  0.00  0.00    +0.122 A 
ATOM     31  C   UNL     1       5.806  -0.622  -5.274  0.00  0.00    +0.046 A 
ATOM     32  C   UNL     1       5.483  -1.981  -5.491  0.00  0.00    +0.041 A 
ATOM     33  C   UNL     1       4.202  -2.143  -5.113  0.00  0.00    +0.195 A 
ATOM     34  O   UNL     1       3.736  -0.961  -4.675  0.00  0.00    -0.466 OA
ENDBRANCH  29  30
ENDBRANCH  15  29
TORSDOF 5
