REMARK  Name = ZINC52272270
REMARK  5 active torsions:
REMARK  status: ('A' for Active; 'I' for Inactive)
REMARK    1  A    between atoms: C_1  and  C_2
REMARK    2  A    between atoms: C_5  and  N_7
REMARK    3  A    between atoms: N_7  and  S_8
REMARK    4  A    between atoms: S_8  and  C_11
REMARK    5  A    between atoms: C_12  and  N_19
REMARK                            x       y       z     vdW  Elec       q    Type
REMARK                         _______ _______ _______ _____ _____    ______ ____
ROOT
ATOM      1  C   UNL     1       2.790  -2.631   3.555  0.00  0.00    +0.140 A 
ATOM      2  C   UNL     1       2.492  -1.482   4.277  0.00  0.00    +0.053 A 
ATOM      3  C   UNL     1       1.741  -1.573   5.442  0.00  0.00    +0.040 A 
ATOM      4  C   UNL     1       1.293  -2.805   5.880  0.00  0.00    +0.021 A 
ATOM      5  C   UNL     1       1.592  -3.947   5.159  0.00  0.00    +0.032 A 
ATOM      6  C   UNL     1       2.335  -3.859   3.995  0.00  0.00    +0.047 A 
ATOM      7 BR   UNL     1       2.733  -5.423   3.009  0.00  0.00    -0.048 Br
ATOM      8 BR   UNL     1       0.272  -2.929   7.467  0.00  0.00    -0.050 Br
ENDROOT
BRANCH   1   9
ATOM      9  S   UNL     1       3.741  -2.521   2.076  0.00  0.00    +0.061 S 
ATOM     10  O   UNL     1       4.438  -3.753   1.949  0.00  0.00    -0.153 OA
ATOM     11  O   UNL     1       4.410  -1.268   2.116  0.00  0.00    -0.153 OA
BRANCH   9  12
ATOM     12  N   UNL     1       2.674  -2.448   0.812  0.00  0.00    -0.187 NA
ATOM     13  H   UNL     1       2.641  -3.168   0.163  0.00  0.00    +0.148 HD
BRANCH  12  17
ATOM     14  C   UNL     1       1.267   0.679  -0.963  0.00  0.00    +0.009 C 
ATOM     15  C   UNL     1       1.448  -0.825  -0.743  0.00  0.00    +0.006 C 
ATOM     16  C   UNL     1       0.387  -1.549   0.089  0.00  0.00    +0.025 C 
ATOM     17  C   UNL     1       1.779  -1.296   0.674  0.00  0.00    +0.080 C 
ENDBRANCH  12  17
ENDBRANCH   9  12
ENDBRANCH   1   9
BRANCH   2  18
ATOM     18  N   UNL     1       2.946  -0.239   3.833  0.00  0.00    -0.356 N 
ATOM     19  H   UNL     1       3.114  -0.093   2.889  0.00  0.00    +0.142 HD
ATOM     20  H   UNL     1       3.093   0.479   4.468  0.00  0.00    +0.142 HD
ENDBRANCH   2  18
TORSDOF 4
