REMARK  Name = ZINC01181258
REMARK  8 active torsions:
REMARK  status: ('A' for Active; 'I' for Inactive)
REMARK    1  A    between atoms: C_3  and  C_10
REMARK    2  A    between atoms: C_5  and  N_7
REMARK    3  A    between atoms: C_11  and  C_12
REMARK    4  A    between atoms: N_14  and  C_15
REMARK    5  A    between atoms: C_15  and  C_16
REMARK    6  A    between atoms: C_16  and  C_17
REMARK    7  A    between atoms: C_20  and  S_23
REMARK    8  A    between atoms: S_23  and  N_26
REMARK                            x       y       z     vdW  Elec       q    Type
REMARK                         _______ _______ _______ _____ _____    ______ ____
ROOT
ATOM      1  C   UNL     1       4.899   4.249  -0.023  0.00  0.00    +0.237 C 
ATOM      2  O   UNL     1       5.959   3.652  -0.037  0.00  0.00    -0.271 OA
ATOM      3  N   UNL     1       4.885   5.597  -0.016  0.00  0.00    -0.312 N 
ATOM      4  H   UNL     1       4.040   6.073  -0.006  0.00  0.00    +0.149 HD
ENDROOT
BRANCH   1   6
ATOM      5  C   UNL     1       3.653   2.156  -0.022  0.00  0.00    +0.013 C 
ATOM      6  C   UNL     1       3.639   3.504  -0.015  0.00  0.00    +0.068 C 
BRANCH   5   9
ATOM      7  C   UNL     1      -0.017   1.380   0.010  0.00  0.00    +0.003 A 
ATOM      8  C   UNL     1       1.166   2.089   0.002  0.00  0.00    +0.008 A 
ATOM      9  C   UNL     1       2.386   1.406  -0.013  0.00  0.00    -0.023 A 
ATOM     10  C   UNL     1       2.397   0.008  -0.021  0.00  0.00    +0.040 A 
ATOM     11  C   UNL     1       1.206  -0.687  -0.013  0.00  0.00    +0.127 A 
ATOM     12  C   UNL     1       0.002  -0.004   0.002  0.00  0.00    +0.033 A 
BRANCH  11  13
ATOM     13  N   UNL     1       1.215  -2.167  -0.021  0.00  0.00    +0.056 N 
ATOM     14  O   UNL     1       2.265  -2.765  -0.034  0.00  0.00    -0.126 OA
ATOM     15  O   UNL     1       0.172  -2.778  -0.014  0.00  0.00    -0.126 OA
ENDBRANCH  11  13
ENDBRANCH   5   9
ENDBRANCH   1   6
BRANCH   3  16
ATOM     16  C   UNL     1       6.146   6.343  -0.025  0.00  0.00    +0.109 C 
BRANCH  16  17
ATOM     17  C   UNL     1       5.850   7.844  -0.015  0.00  0.00    +0.054 C 
BRANCH  17  18
ATOM     18  C   UNL     1       7.147   8.611  -0.023  0.00  0.00    -0.046 A 
ATOM     19  C   UNL     1       7.757   8.952   1.170  0.00  0.00    +0.005 A 
ATOM     20  C   UNL     1       8.947   9.656   1.162  0.00  0.00    +0.029 A 
ATOM     21  C   UNL     1       9.527  10.018  -0.039  0.00  0.00    +0.105 A 
ATOM     22  C   UNL     1       8.918   9.677  -1.232  0.00  0.00    +0.029 A 
ATOM     23  C   UNL     1       7.731   8.969  -1.224  0.00  0.00    +0.005 A 
BRANCH  21  24
ATOM     24  S   UNL     1      11.043  10.917  -0.050  0.00  0.00    +0.056 S 
ATOM     25  O   UNL     1      11.097  11.608  -1.290  0.00  0.00    -0.153 OA
ATOM     26  O   UNL     1      11.126  11.587   1.200  0.00  0.00    -0.153 OA
BRANCH  24  27
ATOM     27  N   UNL     1      12.270   9.805  -0.073  0.00  0.00    -0.204 NA
ATOM     28  H   UNL     1      13.113  10.023  -0.502  0.00  0.00    +0.144 HD
ATOM     29  H   UNL     1      12.146   8.937   0.341  0.00  0.00    +0.144 HD
ENDBRANCH  24  27
ENDBRANCH  21  24
ENDBRANCH  17  18
ENDBRANCH  16  17
ENDBRANCH   3  16
TORSDOF 8
