REMARK  Name = ZINC59020866
REMARK  11 active torsions:
REMARK  status: ('A' for Active; 'I' for Inactive)
REMARK    1  A    between atoms: C_1  and  C_2
REMARK    2  A    between atoms: C_2  and  C_3
REMARK    3  A    between atoms: C_3  and  C_4
REMARK    4  A    between atoms: C_4  and  C_5
REMARK    5  A    between atoms: C_8  and  C_11
REMARK    6  A    between atoms: C_17  and  C_19
REMARK    7  A    between atoms: C_19  and  C_20
REMARK    8  A    between atoms: C_20  and  C_21
REMARK    9  A    between atoms: C_22  and  C_34
REMARK   10  A    between atoms: C_25  and  C_31
REMARK   11  A    between atoms: C_29  and  C_30
REMARK                            x       y       z     vdW  Elec       q    Type
REMARK                         _______ _______ _______ _____ _____    ______ ____
ROOT
ATOM      1  C   UNL     1       3.548  -3.948   5.899  0.00  0.00    +0.080 A 
ATOM      2  C   UNL     1       2.864  -4.204   7.054  0.00  0.00    +0.076 A 
ATOM      3  S   UNL     1       4.197  -4.749   8.115  0.00  0.00    -0.060 S 
ATOM      4  C   UNL     1       5.515  -4.581   6.920  0.00  0.00    +0.165 A 
ATOM      5  N   UNL     1       4.857  -4.149   5.860  0.00  0.00    -0.225 NA
ATOM      6  N   UNL     1       6.872  -4.842   7.065  0.00  0.00    -0.265 N 
ATOM      7  C   UNL     1       7.350  -5.289   8.244  0.00  0.00    +0.219 C 
ATOM      8  O   UNL     1       6.595  -5.464   9.177  0.00  0.00    -0.275 OA
ATOM      9  H   UNL     1       7.476  -4.702   6.319  0.00  0.00    +0.157 HD
ENDROOT
BRANCH   1  13
ATOM     10  C   UNL     1       1.492  -2.540   2.454  0.00  0.00    -0.047 A 
ATOM     11  C   UNL     1       2.859  -2.745   2.404  0.00  0.00    +0.004 A 
ATOM     12  C   UNL     1       3.531  -3.202   3.519  0.00  0.00    +0.010 A 
ATOM     13  C   UNL     1       2.831  -3.457   4.697  0.00  0.00    +0.001 A 
ATOM     14  C   UNL     1       1.454  -3.247   4.742  0.00  0.00    +0.010 A 
ATOM     15  C   UNL     1       0.792  -2.786   3.622  0.00  0.00    +0.004 A 
BRANCH  10  16
ATOM     16  C   UNL     1       0.763  -2.041   1.233  0.00  0.00    +0.035 C 
BRANCH  16  17
ATOM     17  C   UNL     1       0.742  -0.511   1.242  0.00  0.00    +0.004 C 
BRANCH  17  19
ATOM     18  C   UNL     1      -0.019   1.526   0.010  0.00  0.00    +0.004 C 
ATOM     19  C   UNL     1       0.002  -0.004   0.002  0.00  0.00    -0.003 C 
ENDBRANCH  17  19
ENDBRANCH  16  17
ENDBRANCH  10  16
ENDBRANCH   1  13
BRANCH   7  20
ATOM     20  C   UNL     1       8.822  -5.572   8.402  0.00  0.00    +0.101 C 
BRANCH  20  21
ATOM     21  C   UNL     1       9.096  -6.064   9.824  0.00  0.00    +0.048 C 
BRANCH  21  22
ATOM     22  C   UNL     1      10.568  -6.346   9.982  0.00  0.00    -0.005 A 
ATOM     23  C   UNL     1      11.096  -7.583   9.594  0.00  0.00    +0.045 A 
ATOM     24  N   UNL     1      12.381  -7.825   9.733  0.00  0.00    -0.232 NA
ATOM     25  C   UNL     1      13.199  -6.904  10.244  0.00  0.00    +0.168 A 
ATOM     26  C   UNL     1      14.584  -6.898  10.498  0.00  0.00    +0.100 A 
ATOM     27  C   UNL     1      14.894  -5.641  11.048  0.00  0.00    +0.150 A 
ATOM     28  N   UNL     1      13.797  -4.935  11.125  0.00  0.00    -0.172 NA
ATOM     29  N   UNL     1      12.722  -5.685  10.635  0.00  0.00    -0.218 N 
ATOM     30  C   UNL     1      11.396  -5.402  10.498  0.00  0.00    +0.047 A 
ATOM     31  C   UNL     1      10.854  -4.061  10.920  0.00  0.00    +0.066 C 
ATOM     32  C   UNL     1      10.190  -8.639   9.014  0.00  0.00    +0.066 C 
BRANCH  26  33
ATOM     33  C   UNL     1      15.523  -7.994  10.241  0.00  0.00    +0.247 C 
ATOM     34  O   UNL     1      15.123  -9.037   9.758  0.00  0.00    -0.270 OA
ATOM     35  N   UNL     1      16.829  -7.845  10.537  0.00  0.00    -0.325 N 
ATOM     36  H   UNL     1      17.148  -7.013  10.921  0.00  0.00    +0.145 HD
ATOM     37  H   UNL     1      17.451  -8.570  10.366  0.00  0.00    +0.145 HD
ENDBRANCH  26  33
ENDBRANCH  21  22
ENDBRANCH  20  21
ENDBRANCH   7  20
TORSDOF 8
