REMARK  Name = ZINC59505844
REMARK  7 active torsions:
REMARK  status: ('A' for Active; 'I' for Inactive)
REMARK    1  A    between atoms: C_5  and  S_7
REMARK    2  A    between atoms: S_7  and  C_8
REMARK    3  A    between atoms: C_8  and  C_9
REMARK    4  A    between atoms: N_11  and  C_12
REMARK    5  A    between atoms: C_19  and  S_21
REMARK    6  A    between atoms: S_21  and  C_22
REMARK    7  A    between atoms: C_22  and  C_23
REMARK                            x       y       z     vdW  Elec       q    Type
REMARK                         _______ _______ _______ _____ _____    ______ ____
ROOT
ATOM      1  C   UNL     1       4.677  -6.228  -0.169  0.00  0.00    +0.035 A 
ATOM      2  C   UNL     1       3.599  -7.105  -0.269  0.00  0.00    +0.025 A 
ATOM      3  C   UNL     1       3.788  -8.458  -0.371  0.00  0.00    +0.031 A 
ATOM      4  C   UNL     1       5.089  -9.010  -0.376  0.00  0.00    +0.080 A 
ATOM      5  C   UNL     1       6.159  -8.093  -0.273  0.00  0.00    +0.042 A 
ATOM      6  C   UNL     1       5.968  -6.738  -0.177  0.00  0.00    +0.040 A 
ATOM      7  S   UNL     1       7.579  -9.161  -0.315  0.00  0.00    -0.061 S 
ATOM      8  C   UNL     1       6.695 -10.706  -0.463  0.00  0.00    +0.136 A 
ATOM      9  N   UNL     1       5.441 -10.313  -0.469  0.00  0.00    -0.233 NA
ENDROOT
BRANCH   1  12
ATOM     10  C   UNL     1       5.309  -4.083   0.650  0.00  0.00    +0.227 C 
ATOM     11  O   UNL     1       6.204  -4.601   1.283  0.00  0.00    -0.275 OA
ATOM     12  N   UNL     1       4.460  -4.847  -0.067  0.00  0.00    -0.285 N 
ATOM     13  H   UNL     1       3.699  -4.441  -0.511  0.00  0.00    +0.155 HD
BRANCH  10  14
ATOM     14  C   UNL     1       5.145  -2.585   0.663  0.00  0.00    +0.171 C 
BRANCH  14  15
ATOM     15  S   UNL     1       6.430  -1.846   1.709  0.00  0.00    -0.097 S 
BRANCH  15  20
ATOM     16  C   UNL     1       6.654   2.128   2.244  0.00  0.00    +0.004 A 
ATOM     17  C   UNL     1       5.582   2.551   1.467  0.00  0.00    +0.020 A 
ATOM     18  C   UNL     1       4.819   1.615   0.800  0.00  0.00    +0.112 A 
ATOM     19  N   UNL     1       5.095   0.327   0.892  0.00  0.00    -0.249 NA
ATOM     20  C   UNL     1       6.107  -0.116   1.622  0.00  0.00    +0.097 A 
ATOM     21  C   UNL     1       6.918   0.773   2.321  0.00  0.00    +0.035 A 
ENDBRANCH  15  20
ENDBRANCH  14  15
ENDBRANCH  10  14
ENDBRANCH   1  12
BRANCH   8  22
ATOM     22  S   UNL     1       7.340 -12.342  -0.574  0.00  0.00    -0.094 S 
BRANCH  22  23
ATOM     23  C   UNL     1       5.863 -13.389  -0.699  0.00  0.00    +0.111 C 
BRANCH  23  24
ATOM     24  C   UNL     1       6.278 -14.834  -0.801  0.00  0.00    -0.037 A 
ATOM     25  C   UNL     1       6.509 -15.400  -2.041  0.00  0.00    +0.005 A 
ATOM     26  C   UNL     1       6.891 -16.726  -2.135  0.00  0.00    +0.015 A 
ATOM     27  C   UNL     1       7.041 -17.485  -0.988  0.00  0.00    +0.018 A 
ATOM     28  C   UNL     1       6.810 -16.917   0.252  0.00  0.00    +0.015 A 
ATOM     29  C   UNL     1       6.434 -15.590   0.345  0.00  0.00    +0.005 A 
ATOM     30 BR   UNL     1       7.563 -19.298  -1.116  0.00  0.00    -0.050 Br
ENDBRANCH  23  24
ENDBRANCH  22  23
ENDBRANCH   8  22
TORSDOF 7
