REMARK  Name = ZINC09969245
REMARK  6 active torsions:
REMARK  status: ('A' for Active; 'I' for Inactive)
REMARK    1  A    between atoms: C_10  and  N_11
REMARK    2  A    between atoms: N_11  and  C_12
REMARK    3  A    between atoms: C_15  and  S_18
REMARK    4  A    between atoms: S_18  and  N_21
REMARK    5  A    between atoms: N_25  and  C_26
REMARK    6  A    between atoms: C_26  and  C_27
REMARK                            x       y       z     vdW  Elec       q    Type
REMARK                         _______ _______ _______ _____ _____    ______ ____
ROOT
ATOM      1  C   UNL     1       3.504   2.960   3.502  0.00  0.00    +0.001 A 
ATOM      2  C   UNL     1       2.119   2.896   3.510  0.00  0.00    +0.002 A 
ATOM      3  C   UNL     1       1.437   2.501   2.379  0.00  0.00    +0.025 A 
ATOM      4  C   UNL     1       2.130   2.167   1.222  0.00  0.00    +0.062 A 
ATOM      5  C   UNL     1       3.531   2.222   1.208  0.00  0.00    +0.046 A 
ATOM      6  C   UNL     1       4.207   2.627   2.368  0.00  0.00    +0.013 A 
ATOM      7  C   UNL     1       4.333   1.874   0.021  0.00  0.00    +0.216 C 
ATOM      8  O   UNL     1       5.523   1.642   0.152  0.00  0.00    -0.285 OA
ATOM      9  C   UNL     1       3.751   1.805  -1.268  0.00  0.00    +0.169 C 
ATOM     10  C   UNL     1       4.491   1.496  -2.356  0.00  0.00    +0.105 C 
ATOM     11  S   UNL     1       2.017   2.140  -1.402  0.00  0.00    +0.080 S 
ATOM     12  O   UNL     1       1.480   1.192  -2.314  0.00  0.00    -0.150 OA
ATOM     13  O   UNL     1       1.875   3.543  -1.577  0.00  0.00    -0.150 OA
ATOM     14  N   UNL     1       1.403   1.772   0.100  0.00  0.00    -0.198 N 
ENDROOT
BRANCH  10  15
ATOM     15  N   UNL     1       5.794   1.112  -2.209  0.00  0.00    -0.319 N 
ATOM     16  H   UNL     1       6.167   0.991  -1.322  0.00  0.00    +0.152 HD
BRANCH  15  17
ATOM     17  C   UNL     1       6.590   0.895  -3.337  0.00  0.00    +0.031 A 
ATOM     18  C   UNL     1       6.056   1.062  -4.609  0.00  0.00    +0.025 A 
ATOM     19  C   UNL     1       6.846   0.852  -5.721  0.00  0.00    +0.030 A 
ATOM     20  C   UNL     1       8.165   0.463  -5.571  0.00  0.00    +0.105 A 
ATOM     21  C   UNL     1       8.698   0.290  -4.307  0.00  0.00    +0.030 A 
ATOM     22  C   UNL     1       7.915   0.504  -3.190  0.00  0.00    +0.025 A 
BRANCH  20  23
ATOM     23  S   UNL     1       9.168   0.188  -6.994  0.00  0.00    +0.056 S 
ATOM     24  O   UNL     1       8.592   0.945  -8.049  0.00  0.00    -0.153 OA
ATOM     25  O   UNL     1      10.516   0.361  -6.580  0.00  0.00    -0.153 OA
BRANCH  23  26
ATOM     26  N   UNL     1       9.002  -1.407  -7.409  0.00  0.00    -0.204 NA
ATOM     27  H   UNL     1       9.085  -1.677  -8.337  0.00  0.00    +0.144 HD
ATOM     28  H   UNL     1       8.822  -2.070  -6.724  0.00  0.00    +0.144 HD
ENDBRANCH  23  26
ENDBRANCH  20  23
ENDBRANCH  15  17
ENDBRANCH  10  15
BRANCH  14  29
ATOM     29  C   UNL     1       0.132   1.058   0.240  0.00  0.00    +0.166 C 
BRANCH  29  30
ATOM     30  C   UNL     1       0.398  -0.418   0.392  0.00  0.00    -0.028 A 
ATOM     31  C   UNL     1       0.458  -1.227  -0.727  0.00  0.00    +0.006 A 
ATOM     32  C   UNL     1       0.708  -2.580  -0.590  0.00  0.00    +0.020 A 
ATOM     33  C   UNL     1       0.887  -3.125   0.669  0.00  0.00    +0.041 A 
ATOM     34  C   UNL     1       0.822  -2.315   1.789  0.00  0.00    +0.020 A 
ATOM     35  C   UNL     1       0.577  -0.962   1.650  0.00  0.00    +0.006 A 
ATOM     36 CL   UNL     1       1.195  -4.825   0.844  0.00  0.00    -0.084 Cl
ENDBRANCH  29  30
ENDBRANCH  14  29
TORSDOF 6
