REMARK  Name = ZINC40135096
REMARK  6 active torsions:
REMARK  status: ('A' for Active; 'I' for Inactive)
REMARK    1  A    between atoms: C_1  and  C_2
REMARK    2  A    between atoms: N_11  and  C_12
REMARK    3  A    between atoms: N_15  and  C_18
REMARK    4  A    between atoms: C_21  and  S_27
REMARK    5  A    between atoms: C_23  and  N_24
REMARK    6  A    between atoms: S_27  and  N_30
REMARK                            x       y       z     vdW  Elec       q    Type
REMARK                         _______ _______ _______ _____ _____    ______ ____
ROOT
ATOM      1  C   UNL     1       2.118  -0.351   1.490  0.00  0.00    +0.077 C 
ATOM      2  C   UNL     1       2.975  -1.610   1.643  0.00  0.00    +0.041 C 
ATOM      3  C   UNL     1       4.400  -1.208   2.039  0.00  0.00    +0.107 C 
ATOM      4  N   UNL     1       4.337  -0.371   3.245  0.00  0.00    -0.328 N 
ATOM      5  C   UNL     1       3.470   0.816   3.237  0.00  0.00    +0.107 C 
ATOM      6  C   UNL     1       2.057   0.391   2.828  0.00  0.00    +0.041 C 
ENDROOT
BRANCH   1  16
ATOM      7  C   UNL     1      -0.021   1.229  -0.183  0.00  0.00    +0.028 C 
ATOM      8  C   UNL     1       0.111  -0.295  -0.158  0.00  0.00    +0.075 C 
ATOM      9  C   UNL     1      -1.280  -0.951  -0.133  0.00  0.00    +0.059 C 
ATOM     10  C   UNL     1      -1.308  -1.732   1.161  0.00  0.00    -0.025 A 
ATOM     11  C   UNL     1      -2.295  -2.519   1.724  0.00  0.00    +0.005 A 
ATOM     12  C   UNL     1      -2.079  -3.139   2.940  0.00  0.00    +0.000 A 
ATOM     13  C   UNL     1      -0.872  -2.971   3.594  0.00  0.00    +0.002 A 
ATOM     14  C   UNL     1       0.115  -2.187   3.037  0.00  0.00    +0.023 A 
ATOM     15  C   UNL     1      -0.095  -1.556   1.808  0.00  0.00    +0.033 A 
ATOM     16  N   UNL     1       0.764  -0.729   1.079  0.00  0.00    -0.323 N 
ENDBRANCH   1  16
BRANCH   4  17
ATOM     17  C   UNL     1       5.085  -0.698   4.378  0.00  0.00    +0.060 A 
ATOM     18  C   UNL     1       4.533  -1.496   5.372  0.00  0.00    +0.027 A 
ATOM     19  C   UNL     1       5.276  -1.818   6.490  0.00  0.00    +0.030 A 
ATOM     20  C   UNL     1       6.570  -1.346   6.622  0.00  0.00    +0.107 A 
ATOM     21  C   UNL     1       7.122  -0.550   5.635  0.00  0.00    +0.063 A 
ATOM     22  C   UNL     1       6.386  -0.230   4.511  0.00  0.00    +0.149 A 
BRANCH  22  23
ATOM     23  N   UNL     1       6.981   0.617   3.453  0.00  0.00    +0.058 N 
ATOM     24  O   UNL     1       8.142   0.947   3.524  0.00  0.00    -0.126 OA
ATOM     25  O   UNL     1       6.306   0.977   2.517  0.00  0.00    -0.126 OA
ENDBRANCH  22  23
BRANCH  20  26
ATOM     26  S   UNL     1       7.515  -1.758   8.051  0.00  0.00    +0.056 S 
ATOM     27  O   UNL     1       8.502  -0.745   8.191  0.00  0.00    -0.153 OA
ATOM     28  O   UNL     1       6.583  -2.062   9.080  0.00  0.00    -0.153 OA
BRANCH  26  29
ATOM     29  N   UNL     1       8.323  -3.163   7.714  0.00  0.00    -0.204 NA
ATOM     30  H   UNL     1       8.215  -3.590   6.849  0.00  0.00    +0.144 HD
ATOM     31  H   UNL     1       8.905  -3.560   8.381  0.00  0.00    +0.144 HD
ENDBRANCH  26  29
ENDBRANCH  20  26
ENDBRANCH   4  17
TORSDOF 5
