REMARK  Name = ZINC40066875
REMARK  10 active torsions:
REMARK  status: ('A' for Active; 'I' for Inactive)
REMARK    1  A    between atoms: C_1  and  C_2
REMARK    2  A    between atoms: C_2  and  C_3
REMARK    3  A    between atoms: C_3  and  N_4
REMARK    4  A    between atoms: C_5  and  N_27
REMARK    5  A    between atoms: C_6  and  C_14
REMARK    6  A    between atoms: C_7  and  C_13
REMARK    7  A    between atoms: C_8  and  C_11
REMARK    8  A    between atoms: N_18  and  C_22
REMARK    9  A    between atoms: N_27  and  C_28
REMARK   10  A    between atoms: C_28  and  C_29
REMARK                            x       y       z     vdW  Elec       q    Type
REMARK                         _______ _______ _______ _____ _____    ______ ____
ROOT
ATOM      1  N   UNL     1      -1.659  -2.031  -0.172  0.00  0.00    -0.295 N 
ATOM      2  C   UNL     1      -1.641  -2.615  -1.398  0.00  0.00    +0.109 A 
ATOM      3  C   UNL     1      -1.469  -4.003  -1.525  0.00  0.00    +0.019 A 
ATOM      4  C   UNL     1      -1.314  -4.789  -0.370  0.00  0.00    -0.017 A 
ATOM      5  C   UNL     1      -1.336  -4.166   0.875  0.00  0.00    +0.120 A 
ATOM      6  C   UNL     1      -1.507  -2.760   0.948  0.00  0.00    +0.270 A 
ATOM      7  O   UNL     1      -1.522  -2.209   2.035  0.00  0.00    -0.266 OA
ATOM      8  C   UNL     1      -1.129  -6.280  -0.477  0.00  0.00    +0.046 C 
ENDROOT
BRANCH   3   9
ATOM      9  C   UNL     1      -1.452  -4.627  -2.849  0.00  0.00    +0.032 C 
ATOM     10  C   UNL     1      -0.558  -4.210  -3.786  0.00  0.00    +0.077 C 
ATOM     11  C   UNL     1      -0.435  -4.589  -5.158  0.00  0.00    +0.259 C 
ATOM     12  O   UNL     1      -1.197  -5.399  -5.655  0.00  0.00    -0.269 OA
ATOM     13  N   UNL     1       0.529  -4.034  -5.871  0.00  0.00    -0.252 N 
ATOM     14  C   UNL     1       1.375  -3.136  -5.319  0.00  0.00    +0.121 C 
ATOM     15  S   UNL     1       2.680  -2.302  -6.047  0.00  0.00    -0.027 S 
ATOM     16  S   UNL     1       0.779  -3.033  -3.637  0.00  0.00    -0.061 S 
BRANCH  13  17
ATOM     17  C   UNL     1       0.685  -4.399  -7.281  0.00  0.00    +0.083 C 
ATOM     18  C   UNL     1       2.107  -4.944  -7.532  0.00  0.00    +0.023 C 
ATOM     19  C   UNL     1       2.478  -4.403  -8.935  0.00  0.00    +0.002 C 
ATOM     20  C   UNL     1       1.861  -2.982  -8.928  0.00  0.00    +0.002 C 
ATOM     21  C   UNL     1       0.529  -3.152  -8.169  0.00  0.00    +0.023 C 
ENDBRANCH  13  17
ENDBRANCH   3   9
BRANCH   5  22
ATOM     22  C   UNL     1      -1.181  -4.938   2.071  0.00  0.00    +0.105 C 
ATOM     23  N   UNL     1      -1.058  -5.551   3.020  0.00  0.00    -0.191 NA
ENDBRANCH   5  22
BRANCH   2  24
ATOM     24  N   UNL     1      -1.792  -1.847  -2.515  0.00  0.00    -0.326 N 
ATOM     25  H   UNL     1      -1.021  -1.413  -2.913  0.00  0.00    +0.148 HD
BRANCH  24  26
ATOM     26  C   UNL     1      -3.118  -1.677  -3.114  0.00  0.00    +0.138 C 
BRANCH  26  27
ATOM     27  C   UNL     1      -2.996  -0.882  -4.388  0.00  0.00    -0.030 A 
ATOM     28  C   UNL     1      -3.084   0.497  -4.354  0.00  0.00    +0.008 A 
ATOM     29  C   UNL     1      -2.971   1.226  -5.522  0.00  0.00    +0.038 A 
ATOM     30  C   UNL     1      -2.771   0.576  -6.728  0.00  0.00    +0.123 A 
ATOM     31  C   UNL     1      -2.684  -0.806  -6.761  0.00  0.00    +0.038 A 
ATOM     32  C   UNL     1      -2.791  -1.533  -5.591  0.00  0.00    +0.008 A 
ATOM     33  F   UNL     1      -2.662   1.288  -7.870  0.00  0.00    -0.205 F 
ENDBRANCH  26  27
ENDBRANCH  24  26
ENDBRANCH   2  24
BRANCH   1  34
ATOM     34  C   UNL     1      -1.840  -0.581  -0.068  0.00  0.00    +0.126 C 
BRANCH  34  36
ATOM     35  C   UNL     1      -0.690   1.631  -0.233  0.00  0.00    +0.005 C 
ATOM     36  C   UNL     1      -0.485   0.114  -0.218  0.00  0.00    +0.018 C 
ENDBRANCH  34  36
ENDBRANCH   1  34
TORSDOF 8
