REMARK  Name = ZINC47031900
REMARK  7 active torsions:
REMARK  status: ('A' for Active; 'I' for Inactive)
REMARK    1  A    between atoms: C_4  and  S_11
REMARK    2  A    between atoms: C_5  and  C_7
REMARK    3  A    between atoms: S_11  and  N_14
REMARK    4  A    between atoms: N_14  and  C_15
REMARK    5  A    between atoms: C_15  and  C_16
REMARK    6  A    between atoms: C_16  and  C_18
REMARK    7  A    between atoms: C_16  and  N_23
REMARK                            x       y       z     vdW  Elec       q    Type
REMARK                         _______ _______ _______ _____ _____    ______ ____
ROOT
ATOM      1  N   UNL     1       3.460  -3.793   0.031  0.00  0.00    -0.191 NA
ATOM      2  H   UNL     1       3.937  -4.613  -0.167  0.00  0.00    +0.148 HD
ENDROOT
BRANCH   1   3
ATOM      3  S   UNL     1       2.504  -3.091  -1.125  0.00  0.00    +0.059 S 
ATOM      4  O   UNL     1       1.247  -2.836  -0.513  0.00  0.00    -0.153 OA
ATOM      5  O   UNL     1       2.635  -3.884  -2.296  0.00  0.00    -0.153 OA
BRANCH   3   9
ATOM      6  C   UNL     1       4.317   0.945  -2.086  0.00  0.00    +0.001 A 
ATOM      7  C   UNL     1       3.070   0.870  -1.494  0.00  0.00    +0.002 A 
ATOM      8  C   UNL     1       2.516  -0.362  -1.200  0.00  0.00    +0.029 A 
ATOM      9  C   UNL     1       3.209  -1.520  -1.500  0.00  0.00    +0.117 A 
ATOM     10  C   UNL     1       4.456  -1.446  -2.093  0.00  0.00    +0.081 A 
ATOM     11  C   UNL     1       5.010  -0.213  -2.385  0.00  0.00    +0.014 A 
BRANCH  10  12
ATOM     12  C   UNL     1       5.212  -2.708  -2.418  0.00  0.00    +0.419 C 
ATOM     13  F   UNL     1       6.487  -2.379  -2.889  0.00  0.00    -0.166 F 
ATOM     14  F   UNL     1       5.327  -3.493  -1.266  0.00  0.00    -0.166 F 
ATOM     15  F   UNL     1       4.522  -3.424  -3.403  0.00  0.00    -0.166 F 
ENDBRANCH  10  12
ENDBRANCH   3   9
ENDBRANCH   1   3
BRANCH   1  16
ATOM     16  C   UNL     1       3.583  -3.175   1.354  0.00  0.00    +0.098 C 
BRANCH  16  17
ATOM     17  C   UNL     1       4.154  -4.194   2.341  0.00  0.00    +0.015 C 
BRANCH  17  18
ATOM     18  N   UNL     1       4.366  -3.548   3.644  0.00  0.00    +0.387 N 
ATOM     19  C   UNL     1       5.261  -2.382   3.481  0.00  0.00    -0.078 C 
ATOM     20  C   UNL     1       6.124  -2.364   4.768  0.00  0.00    -0.020 C 
ATOM     21  C   UNL     1       6.339  -3.879   5.022  0.00  0.00    -0.020 C 
ATOM     22  C   UNL     1       5.000  -4.501   4.573  0.00  0.00    -0.078 C 
ATOM     23  H   UNL     1       3.481  -3.244   4.021  0.00  0.00    -0.081 HD
ENDBRANCH  17  18
BRANCH  17  24
ATOM     24  C   UNL     1       3.186  -5.338   2.500  0.00  0.00    +0.093 A 
ATOM     25  C   UNL     1       3.280  -6.537   1.898  0.00  0.00    +0.043 A 
ATOM     26  C   UNL     1       2.168  -7.298   2.326  0.00  0.00    +0.041 A 
ATOM     27  C   UNL     1       1.461  -6.519   3.164  0.00  0.00    +0.195 A 
ATOM     28  O   UNL     1       2.085  -5.334   3.269  0.00  0.00    -0.469 OA
ENDBRANCH  17  24
ENDBRANCH  16  17
ENDBRANCH   1  16
TORSDOF 7
