REMARK  Name = ZINC49937298
REMARK  2 active torsions:
REMARK  status: ('A' for Active; 'I' for Inactive)
REMARK    1  A    between atoms: C_5  and  C_7
REMARK    2  A    between atoms: C_18  and  C_20
REMARK                            x       y       z     vdW  Elec       q    Type
REMARK                         _______ _______ _______ _____ _____    ______ ____
ROOT
ATOM      1  C   UNL     1       1.392  -2.117  -0.012  0.00  0.00    +0.156 C 
ATOM      2  C   UNL     1       0.653  -2.628   1.238  0.00  0.00    +0.113 C 
ATOM      3  C   UNL     1      -0.421  -3.673   0.979  0.00  0.00    +0.065 C 
ATOM      4  C   UNL     1      -0.912  -4.417   2.144  0.00  0.00    +0.040 A 
ATOM      5  C   UNL     1      -2.107  -5.134   2.102  0.00  0.00    +0.033 A 
ATOM      6  C   UNL     1      -2.526  -5.827   3.220  0.00  0.00    +0.042 A 
ATOM      7  C   UNL     1      -1.761  -5.811   4.376  0.00  0.00    +0.023 A 
ATOM      8  C   UNL     1      -0.578  -5.101   4.429  0.00  0.00    +0.048 A 
ATOM      9  C   UNL     1      -0.139  -4.394   3.320  0.00  0.00    +0.130 A 
ATOM     10  O   UNL     1       1.014  -3.685   3.377  0.00  0.00    -0.483 OA
ATOM     11  C   UNL     1       1.664  -3.306   2.162  0.00  0.00    +0.215 C 
ATOM     12 CL   UNL     1      -4.014  -6.721   3.178  0.00  0.00    -0.084 Cl
ATOM     13  N   UNL     1      -0.810  -3.913  -0.229  0.00  0.00    -0.215 NA
ATOM     14  C   UNL     1      -0.254  -3.366  -1.339  0.00  0.00    +0.249 A 
ATOM     15  N   UNL     1       0.807  -2.527  -1.298  0.00  0.00    -0.221 N 
ATOM     16  N   UNL     1       1.124  -2.209  -2.624  0.00  0.00    -0.156 NA
ATOM     17  C   UNL     1       0.248  -2.820  -3.379  0.00  0.00    +0.247 A 
ATOM     18  N   UNL     1      -0.580  -3.513  -2.619  0.00  0.00    -0.198 NA
ENDROOT
BRANCH   1  23
ATOM     19  C   UNL     1       0.259   1.484   0.045  0.00  0.00    +0.001 A 
ATOM     20  C   UNL     1       1.466   2.153   0.125  0.00  0.00    +0.003 A 
ATOM     21  C   UNL     1       2.650   1.442   0.161  0.00  0.00    +0.039 A 
ATOM     22  C   UNL     1       2.628   0.058   0.117  0.00  0.00    +0.129 A 
ATOM     23  C   UNL     1       1.418  -0.611   0.037  0.00  0.00    +0.013 A 
ATOM     24  C   UNL     1       0.235   0.102   0.001  0.00  0.00    +0.008 A 
ATOM     25  F   UNL     1       3.785  -0.639   0.152  0.00  0.00    -0.205 F 
ENDBRANCH   1  23
BRANCH  11  26
ATOM     26  C   UNL     1       2.220  -4.533   1.486  0.00  0.00    -0.007 A 
ATOM     27  C   UNL     1       3.367  -4.439   0.720  0.00  0.00    +0.009 A 
ATOM     28  C   UNL     1       3.878  -5.564   0.099  0.00  0.00    +0.020 A 
ATOM     29  C   UNL     1       3.240  -6.783   0.245  0.00  0.00    +0.041 A 
ATOM     30  C   UNL     1       2.092  -6.876   1.011  0.00  0.00    +0.020 A 
ATOM     31  C   UNL     1       1.586  -5.752   1.636  0.00  0.00    +0.009 A 
ATOM     32 CL   UNL     1       3.881  -8.196  -0.535  0.00  0.00    -0.084 Cl
ENDBRANCH  11  26
TORSDOF 2
