REMARK  Name = ZINC39546043
REMARK  10 active torsions:
REMARK  status: ('A' for Active; 'I' for Inactive)
REMARK    1  A    between atoms: C_1  and  C_2
REMARK    2  A    between atoms: C_2  and  O_3
REMARK    3  A    between atoms: O_3  and  N_4
REMARK    4  A    between atoms: N_4  and  S_30
REMARK    5  A    between atoms: C_5  and  C_7
REMARK    6  A    between atoms: C_10  and  S_21
REMARK    7  A    between atoms: S_21  and  C_24
REMARK    8  A    between atoms: S_30  and  C_33
REMARK    9  A    between atoms: C_33  and  C_34
REMARK   10  A    between atoms: C_33  and  C_35
REMARK                            x       y       z     vdW  Elec       q    Type
REMARK                         _______ _______ _______ _____ _____    ______ ____
ROOT
ATOM      1  C   UNL     1      -1.452  -2.119   2.207  0.00  0.00    +0.154 C 
ATOM      2  C   UNL     1      -0.184  -1.259   2.372  0.00  0.00    +0.088 C 
ATOM      3  C   UNL     1       0.585  -1.944   3.479  0.00  0.00    +0.107 C 
ATOM      4  C   UNL     1      -0.079  -2.998   3.882  0.00  0.00    +0.097 C 
ATOM      5  N   UNL     1       0.302  -3.866   4.921  0.00  0.00    -0.302 N 
ATOM      6  C   UNL     1      -0.761  -4.357   5.700  0.00  0.00    +0.037 A 
ATOM      7  C   UNL     1      -0.495  -5.130   6.821  0.00  0.00    +0.023 A 
ATOM      8  C   UNL     1      -1.539  -5.620   7.581  0.00  0.00    +0.002 A 
ATOM      9  C   UNL     1      -2.844  -5.339   7.219  0.00  0.00    +0.000 A 
ATOM     10  C   UNL     1      -3.109  -4.567   6.105  0.00  0.00    +0.007 A 
ATOM     11  C   UNL     1      -2.068  -4.066   5.339  0.00  0.00    -0.010 A 
ATOM     12  C   UNL     1      -2.388  -3.206   4.145  0.00  0.00    +0.124 C 
ATOM     13  N   UNL     1      -1.281  -3.205   3.187  0.00  0.00    -0.368 NA
ATOM     14  H   UNL     1       1.226  -4.108   5.088  0.00  0.00    +0.153 HD
ATOM     15  H   UNL     1      -1.249  -4.092   2.708  0.00  0.00    +0.129 HD
ENDROOT
BRANCH   1  17
ATOM     16  N   UNL     1      -1.822  -1.863  -0.225  0.00  0.00    -0.044 N 
ATOM     17  C   UNL     1      -1.533  -2.677   0.810  0.00  0.00    +0.279 C 
ATOM     18  O   UNL     1      -1.339  -3.858   0.616  0.00  0.00    -0.270 OA
BRANCH  16  19
ATOM     19  S   UNL     1      -1.956  -0.230   0.018  0.00  0.00    +0.072 S 
ATOM     20  O   UNL     1      -2.880   0.209  -0.968  0.00  0.00    -0.153 OA
ATOM     21  O   UNL     1      -2.252  -0.093   1.401  0.00  0.00    -0.153 OA
BRANCH  19  22
ATOM     22  C   UNL     1      -0.304   0.430  -0.335  0.00  0.00    +0.148 C 
ATOM     23  C   UNL     1       0.111   0.036  -1.754  0.00  0.00    +0.033 C 
ATOM     24  C   UNL     1      -0.328   1.956  -0.217  0.00  0.00    +0.033 C 
ENDBRANCH  19  22
ENDBRANCH  16  19
BRANCH  16  25
ATOM     25  O   UNL     1      -2.011  -2.404  -1.520  0.00  0.00    -0.257 OA
BRANCH  25  27
ATOM     26  C   UNL     1      -3.474  -3.180  -3.280  0.00  0.00    +0.036 C 
ATOM     27  C   UNL     1      -3.371  -2.723  -1.823  0.00  0.00    +0.189 C 
ENDBRANCH  25  27
ENDBRANCH  16  25
ENDBRANCH   1  17
BRANCH   3  28
ATOM     28  S   UNL     1       2.134  -1.409   4.125  0.00  0.00    +0.024 S 
ATOM     29  O   UNL     1       2.002  -0.020   4.399  0.00  0.00    -0.165 OA
ATOM     30  O   UNL     1       2.506  -2.350   5.123  0.00  0.00    -0.165 OA
BRANCH  28  31
ATOM     31  C   UNL     1       3.318  -1.556   2.829  0.00  0.00    +0.093 A 
ATOM     32  C   UNL     1       4.020  -2.735   2.664  0.00  0.00    +0.027 A 
ATOM     33  C   UNL     1       4.949  -2.851   1.647  0.00  0.00    +0.002 A 
ATOM     34  C   UNL     1       5.175  -1.787   0.794  0.00  0.00    +0.000 A 
ATOM     35  C   UNL     1       4.472  -0.608   0.957  0.00  0.00    +0.002 A 
ATOM     36  C   UNL     1       3.541  -0.494   1.972  0.00  0.00    +0.027 A 
ENDBRANCH  28  31
ENDBRANCH   3  28
TORSDOF 7
