REMARK  Name = ZINC40264178
REMARK  6 active torsions:
REMARK  status: ('A' for Active; 'I' for Inactive)
REMARK    1  A    between atoms: C_1  and  C_2
REMARK    2  A    between atoms: C_5  and  O_19
REMARK    3  A    between atoms: C_6  and  C_8
REMARK    4  A    between atoms: C_8  and  C_10
REMARK    5  A    between atoms: C_8  and  O_18
REMARK    6  A    between atoms: O_19  and  C_20
REMARK                            x       y       z     vdW  Elec       q    Type
REMARK                         _______ _______ _______ _____ _____    ______ ____
ROOT
ATOM      1  C   UNL     1       0.052  -2.841   2.493  0.00  0.00    +0.179 C 
ENDROOT
BRANCH   1   2
ATOM      2  C   UNL     1      -1.363  -3.112   2.934  0.00  0.00    +0.004 A 
ATOM      3  C   UNL     1      -2.257  -2.067   3.072  0.00  0.00    +0.009 A 
ATOM      4  C   UNL     1      -3.555  -2.315   3.476  0.00  0.00    +0.016 A 
ATOM      5  C   UNL     1      -3.960  -3.611   3.743  0.00  0.00    +0.019 A 
ATOM      6  C   UNL     1      -3.067  -4.657   3.605  0.00  0.00    +0.035 A 
ATOM      7  C   UNL     1      -1.769  -4.409   3.196  0.00  0.00    +0.048 A 
ATOM      8 CL   UNL     1      -0.649  -5.723   3.016  0.00  0.00    -0.083 Cl
ATOM      9 BR   UNL     1      -5.736  -3.950   4.298  0.00  0.00    -0.050 Br
ENDBRANCH   1   2
BRANCH   1  15
ATOM     10  C   UNL     1      -0.123   0.027  -1.603  0.00  0.00    +0.044 C 
ATOM     11  C   UNL     1       0.010  -1.333  -0.968  0.00  0.00    -0.050 A 
ATOM     12  C   UNL     1       0.169  -2.453  -1.763  0.00  0.00    +0.007 A 
ATOM     13  C   UNL     1       0.291  -3.701  -1.183  0.00  0.00    +0.046 A 
ATOM     14  C   UNL     1       0.253  -3.830   0.198  0.00  0.00    +0.126 A 
ATOM     15  C   UNL     1       0.094  -2.704   0.993  0.00  0.00    +0.027 A 
ATOM     16  C   UNL     1      -0.022  -1.458   0.408  0.00  0.00    +0.013 A 
BRANCH  14  17
ATOM     17  O   UNL     1       0.372  -5.056   0.770  0.00  0.00    -0.495 OA
ATOM     18  C   UNL     1       0.534  -6.170  -0.110  0.00  0.00    +0.277 C 
ENDBRANCH  14  17
ENDBRANCH   1  15
BRANCH   1  19
ATOM     19  O   UNL     1       0.514  -1.629   3.095  0.00  0.00    -0.382 OA
ATOM     20  H   UNL     1      -0.011  -0.851   2.864  0.00  0.00    +0.211 HD
ENDBRANCH   1  19
TORSDOF 4
