REMARK  Name = ZINC00565330
REMARK  5 active torsions:
REMARK  status: ('A' for Active; 'I' for Inactive)
REMARK    1  A    between atoms: C_1  and  C_2
REMARK    2  A    between atoms: C_5  and  C_7
REMARK    3  A    between atoms: C_7  and  C_9
REMARK    4  A    between atoms: C_9  and  C_10
REMARK    5  A    between atoms: C_10  and  O_20
REMARK                            x       y       z     vdW  Elec       q    Type
REMARK                         _______ _______ _______ _____ _____    ______ ____
ROOT
ATOM      1  C   UNL     1       2.881  -5.572  -0.042  0.00  0.00    +0.175 C 
ATOM      2  C   UNL     1       4.361  -5.790   0.168  0.00  0.00    +0.014 A 
ATOM      3  C   UNL     1       5.475  -5.412  -0.548  0.00  0.00    +0.009 A 
ATOM      4  C   UNL     1       6.736  -5.763  -0.100  0.00  0.00    +0.000 A 
ATOM      5  C   UNL     1       6.873  -6.493   1.067  0.00  0.00    +0.002 A 
ATOM      6  C   UNL     1       5.759  -6.873   1.786  0.00  0.00    +0.024 A 
ATOM      7  C   UNL     1       4.485  -6.523   1.341  0.00  0.00    +0.040 A 
ATOM      8  N   UNL     1       3.226  -6.784   1.883  0.00  0.00    -0.282 N 
ATOM      9  C   UNL     1       2.235  -6.265   1.139  0.00  0.00    +0.254 C 
ATOM     10  O   UNL     1       1.047  -6.337   1.370  0.00  0.00    -0.272 OA
ATOM     11  H   UNL     1       3.083  -7.282   2.703  0.00  0.00    +0.155 HD
ENDROOT
BRANCH   1  12
ATOM     12  O   UNL     1       2.454  -6.169  -1.268  0.00  0.00    -0.374 OA
ATOM     13  H   UNL     1       1.505  -6.085  -1.437  0.00  0.00    +0.211 HD
ENDBRANCH   1  12
BRANCH   1  14
ATOM     14  C   UNL     1       2.552  -4.078  -0.033  0.00  0.00    +0.129 C 
BRANCH  14  15
ATOM     15  C   UNL     1       1.056  -3.893  -0.025  0.00  0.00    +0.173 C 
ATOM     16  O   UNL     1       0.324  -4.862  -0.026  0.00  0.00    -0.291 OA
BRANCH  15  21
ATOM     17  C   UNL     1      -0.018   1.503   0.010  0.00  0.00    +0.051 C 
ATOM     18  C   UNL     1       0.002  -0.004   0.002  0.00  0.00    -0.013 A 
ATOM     19  C   UNL     1      -1.058  -0.852   0.002  0.00  0.00    +0.011 A 
ATOM     20  C   UNL     1      -0.831  -2.205  -0.007  0.00  0.00    +0.019 A 
ATOM     21  C   UNL     1       0.506  -2.592  -0.015  0.00  0.00    +0.055 A 
ATOM     22  S   UNL     1       1.342  -1.017  -0.017  0.00  0.00    -0.091 S 
ENDBRANCH  15  21
ENDBRANCH  14  15
ENDBRANCH   1  14
TORSDOF 4
