REMARK  Name = ZINC22932724
REMARK  9 active torsions:
REMARK  status: ('A' for Active; 'I' for Inactive)
REMARK    1  A    between atoms: C_1  and  C_2
REMARK    2  A    between atoms: C_2  and  C_3
REMARK    3  A    between atoms: C_2  and  C_4
REMARK    4  A    between atoms: C_2  and  N_5
REMARK    5  A    between atoms: C_6  and  C_8
REMARK    6  A    between atoms: C_8  and  N_9
REMARK    7  A    between atoms: N_13  and  C_16
REMARK    8  A    between atoms: C_16  and  C_17
REMARK    9  A    between atoms: C_27  and  C_29
REMARK                            x       y       z     vdW  Elec       q    Type
REMARK                         _______ _______ _______ _____ _____    ______ ____
ROOT
ATOM      1  N   UNL     1      -1.387   3.942   0.914  0.00  0.00    +0.386 N 
ATOM      2  C   UNL     1      -0.385   3.030   1.510  0.00  0.00    -0.077 C 
ATOM      3  C   UNL     1      -0.716   1.574   1.294  0.00  0.00    -0.003 C 
ATOM      4  C   UNL     1      -0.013   1.086   0.008  0.00  0.00    +0.083 C 
ATOM      5  N   UNL     1      -0.672   1.541  -1.141  0.00  0.00    -0.296 NA
ATOM      6  C   UNL     1      -0.722   3.010  -1.279  0.00  0.00    +0.066 C 
ATOM      7  C   UNL     1      -1.853   3.523  -0.424  0.00  0.00    -0.063 C 
ATOM      8  H   UNL     1      -0.876   4.905   0.768  0.00  0.00    -0.081 HD
ENDROOT
BRANCH   1   9
ATOM      9  C   UNL     1      -2.521   4.147   1.826  0.00  0.00    +0.019 C 
BRANCH   9  11
ATOM     10  N   UNL     1      -2.905   5.091   4.080  0.00  0.00    -0.312 N 
ATOM     11  C   UNL     1      -2.034   4.804   3.092  0.00  0.00    +0.197 C 
ATOM     12  O   UNL     1      -0.859   5.074   3.222  0.00  0.00    -0.278 OA
ATOM     13  H   UNL     1      -3.971   4.846   3.962  0.00  0.00    +0.149 HD
BRANCH  10  15
ATOM     14  C   UNL     1      -1.797   7.080   4.973  0.00  0.00    +0.031 C 
ATOM     15  C   UNL     1      -2.432   5.729   5.311  0.00  0.00    +0.026 C 
ATOM     16  C   UNL     1      -3.612   5.943   6.261  0.00  0.00    +0.031 C 
ATOM     17  C   UNL     1      -1.392   4.831   5.984  0.00  0.00    +0.031 C 
ENDBRANCH  10  15
ENDBRANCH   9  11
ENDBRANCH   1   9
BRANCH   5  18
ATOM     18  C   UNL     1      -0.116   0.917  -2.349  0.00  0.00    +0.180 C 
BRANCH  18  19
ATOM     19  C   UNL     1      -0.407  -0.561  -2.331  0.00  0.00    +0.230 C 
ATOM     20  O   UNL     1      -1.018  -1.048  -1.402  0.00  0.00    -0.274 OA
ATOM     21  N   UNL     1       0.011  -1.343  -3.346  0.00  0.00    -0.288 N 
ATOM     22  C   UNL     1       0.752  -0.764  -4.476  0.00  0.00    +0.114 C 
ATOM     23  C   UNL     1       2.171  -1.352  -4.474  0.00  0.00    +0.062 C 
ATOM     24  C   UNL     1       2.081  -2.819  -4.205  0.00  0.00    -0.003 A 
ATOM     25  C   UNL     1       1.027  -3.513  -3.696  0.00  0.00    -0.012 A 
ATOM     26  C   UNL     1       1.202  -4.886  -3.533  0.00  0.00    +0.013 A 
ATOM     27  C   UNL     1       2.374  -5.465  -3.881  0.00  0.00    +0.046 A 
ATOM     28  S   UNL     1       3.316  -4.065  -4.468  0.00  0.00    -0.101 S 
ATOM     29  C   UNL     1      -0.262  -2.787  -3.335  0.00  0.00    +0.144 C 
BRANCH  29  30
ATOM     30  C   UNL     1      -1.327  -3.112  -4.351  0.00  0.00    +0.015 A 
ATOM     31  C   UNL     1      -2.362  -3.982  -4.253  0.00  0.00    +0.013 A 
ATOM     32  C   UNL     1      -3.225  -4.119  -5.324  0.00  0.00    +0.008 A 
ATOM     33  C   UNL     1      -3.012  -3.379  -6.439  0.00  0.00    +0.045 A 
ATOM     34  S   UNL     1      -1.558  -2.446  -5.991  0.00  0.00    -0.099 S 
ENDBRANCH  29  30
ENDBRANCH  18  19
ENDBRANCH   5  18
TORSDOF 6
