REMARK  Name = ZINC06016064
REMARK  7 active torsions:
REMARK  status: ('A' for Active; 'I' for Inactive)
REMARK    1  A    between atoms: C_2  and  C_3
REMARK    2  A    between atoms: C_2  and  N_13
REMARK    3  A    between atoms: N_13  and  N_14
REMARK    4  A    between atoms: C_15  and  C_17
REMARK    5  A    between atoms: C_20  and  N_23
REMARK    6  A    between atoms: N_23  and  S_24
REMARK    7  A    between atoms: S_24  and  C_27
REMARK                            x       y       z     vdW  Elec       q    Type
REMARK                         _______ _______ _______ _____ _____    ______ ____
ROOT
ATOM      1  N   UNL     1       2.151   4.331   0.574  0.00  0.00    -0.232 N 
ATOM      2  C   UNL     1       0.997   3.652   0.732  0.00  0.00    +0.260 C 
ATOM      3  O   UNL     1      -0.031   4.250   0.984  0.00  0.00    -0.269 OA
ATOM      4  H   UNL     1       3.081   3.790   0.346  0.00  0.00    +0.173 HD
ENDROOT
BRANCH   2   5
ATOM      5  C   UNL     1       0.982   2.183   0.598  0.00  0.00    +0.038 A 
ATOM      6  C   UNL     1      -0.213   1.477   0.761  0.00  0.00    +0.015 A 
ATOM      7  C   UNL     1      -0.225   0.107   0.635  0.00  0.00    +0.027 A 
ATOM      8  C   UNL     1       0.953  -0.576   0.346  0.00  0.00    +0.074 A 
ATOM      9  C   UNL     1       2.146   0.124   0.183  0.00  0.00    +0.027 A 
ATOM     10  C   UNL     1       2.163   1.494   0.307  0.00  0.00    +0.015 A 
BRANCH   8  11
ATOM     11  N   UNL     1       0.939  -1.961   0.220  0.00  0.00    -0.097 NA
BRANCH  11  12
ATOM     12  S   UNL     1       0.306  -2.662  -1.141  0.00  0.00    +0.098 S 
ATOM     13  O   UNL     1       0.500  -4.063  -1.004  0.00  0.00    -0.148 OA
ATOM     14  O   UNL     1      -0.979  -2.086  -1.334  0.00  0.00    -0.148 OA
BRANCH  12  15
ATOM     15  C   UNL     1       1.299  -2.147  -2.502  0.00  0.00    +0.148 A 
ATOM     16  C   UNL     1       2.352  -2.777  -3.077  0.00  0.00    +0.037 A 
ATOM     17  C   UNL     1       2.988  -2.179  -4.149  0.00  0.00    +0.010 A 
ATOM     18  C   UNL     1       2.540  -0.979  -4.593  0.00  0.00    +0.047 A 
ATOM     19  S   UNL     1       1.175  -0.663  -3.487  0.00  0.00    -0.077 S 
ENDBRANCH  12  15
ENDBRANCH  11  12
ENDBRANCH   8  11
ENDBRANCH   2   5
BRANCH   1  20
ATOM     20  N   UNL     1       2.165   5.726   0.701  0.00  0.00    -0.264 N 
ATOM     21  H   UNL     1       1.235   6.268   0.930  0.00  0.00    +0.170 HD
BRANCH  20  23
ATOM     22  C   UNL     1       4.489   5.773   0.261  0.00  0.00    +0.035 C 
ATOM     23  C   UNL     1       3.360   6.430   0.538  0.00  0.00    +0.045 C 
BRANCH  23  24
ATOM     24  C   UNL     1       3.375   7.902   0.672  0.00  0.00    +0.004 A 
ATOM     25  C   UNL     1       3.838   8.695  -0.365  0.00  0.00    +0.010 A 
ATOM     26  C   UNL     1       3.854  10.079  -0.246  0.00  0.00    +0.001 A 
ATOM     27  C   UNL     1       3.418  10.695   0.888  0.00  0.00    +0.008 A 
ATOM     28  C   UNL     1       2.941   9.929   1.966  0.00  0.00    -0.017 A 
ATOM     29  C   UNL     1       2.912   8.517   1.861  0.00  0.00    -0.009 A 
ATOM     30  C   UNL     1       2.439   7.755   2.938  0.00  0.00    +0.009 A 
ATOM     31  C   UNL     1       2.006   8.380   4.068  0.00  0.00    +0.001 A 
ATOM     32  C   UNL     1       2.029   9.769   4.172  0.00  0.00    +0.001 A 
ATOM     33  C   UNL     1       2.486  10.540   3.147  0.00  0.00    +0.008 A 
ENDBRANCH  23  24
ENDBRANCH  20  23
ENDBRANCH   1  20
TORSDOF 7
