REMARK  Name = ZINC16647326
REMARK  14 active torsions:
REMARK  status: ('A' for Active; 'I' for Inactive)
REMARK    1  A    between atoms: C_1  and  C_2
REMARK    2  A    between atoms: C_2  and  C_3
REMARK    3  A    between atoms: C_3  and  C_4
REMARK    4  A    between atoms: C_4  and  C_5
REMARK    5  A    between atoms: C_5  and  C_7
REMARK    6  A    between atoms: C_5  and  C_9
REMARK    7  A    between atoms: C_7  and  C_8
REMARK    8  A    between atoms: N_11  and  C_12
REMARK    9  A    between atoms: C_15  and  C_18
REMARK   10  A    between atoms: C_20  and  C_30
REMARK   11  A    between atoms: C_21  and  C_29
REMARK   12  A    between atoms: N_32  and  C_33
REMARK   13  A    between atoms: C_36  and  C_40
REMARK   14  A    between atoms: C_38  and  C_39
REMARK                            x       y       z     vdW  Elec       q    Type
REMARK                         _______ _______ _______ _____ _____    ______ ____
ROOT
ATOM      1  C   UNL     1      -0.547   3.478   2.083  0.00  0.00    +0.143 C 
ATOM      2  C   UNL     1       0.099   3.292   0.731  0.00  0.00    +0.060 C 
ATOM      3  C   UNL     1       0.435   2.035   0.324  0.00  0.00    +0.051 C 
ATOM      4  N   UNL     1       0.250   0.988   1.123  0.00  0.00    -0.230 NA
ATOM      5  C   UNL     1      -0.006   1.131   2.417  0.00  0.00    +0.157 C 
ATOM      6  N   UNL     1      -0.099   2.376   2.961  0.00  0.00    -0.299 N 
ATOM      7  C   UNL     1       0.196   2.682   4.353  0.00  0.00    +0.109 C 
ATOM      8  C   UNL     1      -0.333   1.615   5.302  0.00  0.00    +0.030 C 
ATOM      9  C   UNL     1       0.356   0.281   4.994  0.00  0.00    +0.079 C 
ATOM     10  S   UNL     1      -0.246  -0.318   3.395  0.00  0.00    -0.090 S 
ATOM     11  C   UNL     1       1.029   1.831  -1.045  0.00  0.00    +0.066 C 
ENDROOT
BRANCH   1  15
ATOM     12  C   UNL     1      -4.802   3.371   1.690  0.00  0.00    +0.033 A 
ATOM     13  C   UNL     1      -4.145   4.588   1.819  0.00  0.00    +0.023 A 
ATOM     14  C   UNL     1      -2.770   4.619   1.946  0.00  0.00    +0.007 A 
ATOM     15  C   UNL     1      -2.047   3.440   1.945  0.00  0.00    -0.022 A 
ATOM     16  C   UNL     1      -2.698   2.227   1.812  0.00  0.00    +0.007 A 
ATOM     17  C   UNL     1      -4.073   2.189   1.690  0.00  0.00    +0.023 A 
BRANCH  12  20
ATOM     18  C   UNL     1      -6.833   4.309   0.881  0.00  0.00    +0.220 C 
ATOM     19  O   UNL     1      -6.211   5.260   0.455  0.00  0.00    -0.275 OA
ATOM     20  N   UNL     1      -6.194   3.337   1.561  0.00  0.00    -0.285 N 
ATOM     21  H   UNL     1      -6.701   2.612   1.961  0.00  0.00    +0.155 HD
BRANCH  18  22
ATOM     22  C   UNL     1      -8.319   4.216   0.649  0.00  0.00    +0.075 C 
BRANCH  22  23
ATOM     23  C   UNL     1      -9.043   4.171   1.996  0.00  0.00    +0.009 C 
ATOM     24  C   UNL     1     -10.536   3.931   1.765  0.00  0.00    +0.004 C 
ENDBRANCH  22  23
BRANCH  22  25
ATOM     25  C   UNL     1      -8.789   5.439  -0.142  0.00  0.00    +0.013 C 
BRANCH  25  26
ATOM     26  C   UNL     1      -8.192   5.395  -1.550  0.00  0.00    +0.000 C 
BRANCH  26  28
ATOM     27  C   UNL     1      -7.964   6.633  -3.708  0.00  0.00    +0.004 C 
ATOM     28  C   UNL     1      -8.561   6.677  -2.300  0.00  0.00    -0.003 C 
ENDBRANCH  26  28
ENDBRANCH  25  26
ENDBRANCH  22  25
ENDBRANCH  18  22
ENDBRANCH  12  20
ENDBRANCH   1  15
BRANCH   2  29
ATOM     29  C   UNL     1       0.347   4.400  -0.099  0.00  0.00    +0.248 C 
ATOM     30  O   UNL     1       0.866   4.240  -1.191  0.00  0.00    -0.270 OA
ATOM     31  N   UNL     1       0.012   5.639   0.312  0.00  0.00    -0.281 N 
ATOM     32  H   UNL     1      -0.463   5.760   1.149  0.00  0.00    +0.155 HD
BRANCH  31  33
ATOM     33  C   UNL     1       0.347   6.750  -0.468  0.00  0.00    +0.037 A 
ATOM     34  C   UNL     1       0.345   6.653  -1.854  0.00  0.00    +0.024 A 
ATOM     35  C   UNL     1       0.672   7.753  -2.622  0.00  0.00    +0.005 A 
ATOM     36  C   UNL     1       1.011   8.947  -2.013  0.00  0.00    -0.050 A 
ATOM     37  C   UNL     1       1.019   9.046  -0.633  0.00  0.00    +0.008 A 
ATOM     38  C   UNL     1       0.688   7.950   0.140  0.00  0.00    -0.029 A 
ATOM     39  C   UNL     1       0.697   8.058   1.643  0.00  0.00    +0.045 C 
ATOM     40  C   UNL     1       1.373  10.144  -2.853  0.00  0.00    +0.044 C 
ENDBRANCH  31  33
ENDBRANCH   2  29
TORSDOF 9
