REMARK  Name = ZINC32699884
REMARK  6 active torsions:
REMARK  status: ('A' for Active; 'I' for Inactive)
REMARK    1  A    between atoms: C_12  and  S_15
REMARK    2  A    between atoms: S_15  and  C_16
REMARK    3  A    between atoms: C_16  and  C_17
REMARK    4  A    between atoms: C_23  and  S_25
REMARK    5  A    between atoms: S_25  and  C_26
REMARK    6  A    between atoms: C_26  and  C_27
REMARK                            x       y       z     vdW  Elec       q    Type
REMARK                         _______ _______ _______ _____ _____    ______ ____
ROOT
ATOM      1  C   UNL     1       1.315  -9.446  -0.952  0.00  0.00    +0.229 C 
ATOM      2  O   UNL     1       1.321  -9.049   0.194  0.00  0.00    -0.275 OA
ATOM      3  N   UNL     1       1.294  -8.564  -1.971  0.00  0.00    -0.263 N 
ATOM      4  C   UNL     1       1.278  -7.196  -1.708  0.00  0.00    +0.189 A 
ATOM      5  N   UNL     1       1.280  -6.553  -0.551  0.00  0.00    -0.125 NA
ATOM      6  N   UNL     1       1.264  -5.293  -0.487  0.00  0.00    -0.133 NA
ATOM      7  C   UNL     1       1.245  -4.537  -1.575  0.00  0.00    +0.160 A 
ATOM      8  S   UNL     1       1.242  -5.807  -2.837  0.00  0.00    -0.024 S 
ATOM      9  H   UNL     1       1.289  -8.924  -3.010  0.00  0.00    +0.157 HD
ENDROOT
BRANCH   1  10
ATOM     10  C   UNL     1       1.332 -10.926  -1.237  0.00  0.00    +0.173 C 
BRANCH  10  11
ATOM     11  S   UNL     1       1.359 -11.841   0.324  0.00  0.00    -0.075 S 
BRANCH  11  23
ATOM     12  C   UNL     1       1.436 -19.575  -2.519  0.00  0.00    +0.001 A 
ATOM     13  C   UNL     1       1.456 -20.158  -1.262  0.00  0.00    +0.002 A 
ATOM     14  C   UNL     1       1.456 -19.376  -0.127  0.00  0.00    +0.026 A 
ATOM     15  C   UNL     1       1.435 -17.989  -0.236  0.00  0.00    +0.050 A 
ATOM     16  C   UNL     1       1.416 -17.401  -1.510  0.00  0.00    +0.029 A 
ATOM     17  C   UNL     1       1.416 -18.203  -2.648  0.00  0.00    +0.012 A 
ATOM     18  C   UNL     1       1.399 -15.944  -1.294  0.00  0.00    +0.137 A 
ATOM     19  C   UNL     1       1.409 -15.750   0.103  0.00  0.00    +0.162 A 
ATOM     20  N   UNL     1       1.431 -16.980   0.713  0.00  0.00    -0.338 N 
ATOM     21  H   UNL     1       1.444 -17.232   1.784  0.00  0.00    +0.167 HD
ATOM     22  N   UNL     1       1.402 -14.505   0.568  0.00  0.00    -0.201 NA
ATOM     23  C   UNL     1       1.375 -13.492  -0.289  0.00  0.00    +0.212 A 
ATOM     24  N   UNL     1       1.366 -13.700  -1.602  0.00  0.00    -0.122 NA
ATOM     25  N   UNL     1       1.377 -14.890  -2.097  0.00  0.00    -0.143 NA
ENDBRANCH  11  23
ENDBRANCH  10  11
ENDBRANCH   1  10
BRANCH   7  26
ATOM     26  S   UNL     1       1.220  -2.782  -1.734  0.00  0.00    -0.092 S 
BRANCH  26  27
ATOM     27  C   UNL     1       1.228  -2.186  -0.020  0.00  0.00    +0.111 C 
BRANCH  27  28
ATOM     28  C   UNL     1       1.208  -0.679  -0.013  0.00  0.00    -0.037 A 
ATOM     29  C   UNL     1       0.002  -0.004   0.002  0.00  0.00    +0.006 A 
ATOM     30  C   UNL     1      -0.017   1.378   0.010  0.00  0.00    +0.020 A 
ATOM     31  C   UNL     1       1.172   2.086   0.002  0.00  0.00    +0.041 A 
ATOM     32  C   UNL     1       2.379   1.409  -0.013  0.00  0.00    +0.020 A 
ATOM     33  C   UNL     1       2.397   0.027  -0.021  0.00  0.00    +0.006 A 
ATOM     34 CL   UNL     1       1.149   3.821   0.011  0.00  0.00    -0.084 Cl
ENDBRANCH  27  28
ENDBRANCH  26  27
ENDBRANCH   7  26
TORSDOF 6
