REMARK  Name = ZINC05770978
REMARK  4 active torsions:
REMARK  status: ('A' for Active; 'I' for Inactive)
REMARK    1  A    between atoms: C_6  and  O_7
REMARK    2  A    between atoms: C_9  and  N_23
REMARK    3  A    between atoms: C_10  and  C_21
REMARK    4  A    between atoms: C_11  and  C_13
REMARK                            x       y       z     vdW  Elec       q    Type
REMARK                         _______ _______ _______ _____ _____    ______ ____
ROOT
ATOM      1  C   UNL     1       2.757  -2.307   1.154  0.00  0.00    +0.046 A 
ATOM      2  C   UNL     1       1.515  -1.827   0.788  0.00  0.00    +0.012 A 
ATOM      3  C   UNL     1       1.365  -0.508   0.397  0.00  0.00    +0.008 A 
ATOM      4  C   UNL     1       2.464   0.336   0.370  0.00  0.00    +0.138 A 
ATOM      5  C   UNL     1       3.714  -0.145   0.737  0.00  0.00    +0.092 A 
ATOM      6  C   UNL     1       3.861  -1.466   1.129  0.00  0.00    +0.120 A 
ATOM      7  O   UNL     1       2.337   1.631  -0.011  0.00  0.00    -0.441 OA
ATOM      8  C   UNL     1       1.129   2.218   0.003  0.00  0.00    +0.199 C 
ATOM      9  C   UNL     1      -0.018   1.498   0.010  0.00  0.00    +0.098 C 
ATOM     10  C   UNL     1       0.002  -0.004   0.002  0.00  0.00    +0.101 C 
ENDROOT
BRANCH  10  11
ATOM     11  C   UNL     1      -0.332  -0.500  -1.381  0.00  0.00    +0.002 A 
ATOM     12  C   UNL     1       0.465  -0.148  -2.454  0.00  0.00    +0.022 A 
ATOM     13  C   UNL     1       0.159  -0.604  -3.723  0.00  0.00    +0.018 A 
ATOM     14  C   UNL     1      -0.946  -1.412  -3.920  0.00  0.00    +0.018 A 
ATOM     15  C   UNL     1      -1.744  -1.766  -2.849  0.00  0.00    +0.040 A 
ATOM     16  C   UNL     1      -1.435  -1.314  -1.577  0.00  0.00    +0.128 A 
ATOM     17  F   UNL     1      -2.212  -1.663  -0.528  0.00  0.00    -0.205 F 
ATOM     18 BR   UNL     1       1.251  -0.121  -5.189  0.00  0.00    -0.050 Br
ENDBRANCH  10  11
BRANCH   8  19
ATOM     19  N   UNL     1       1.054   3.589   0.010  0.00  0.00    -0.328 N 
ATOM     20  H   UNL     1       0.189   4.028   0.020  0.00  0.00    +0.145 HD
ATOM     21  H   UNL     1       1.867   4.119   0.005  0.00  0.00    +0.145 HD
ENDBRANCH   8  19
BRANCH   6  22
ATOM     22  O   UNL     1       5.084  -1.937   1.488  0.00  0.00    -0.507 OA
ATOM     23  H   UNL     1       5.280  -1.843   2.430  0.00  0.00    +0.292 HD
ENDBRANCH   6  22
BRANCH   9  24
ATOM     24  C   UNL     1      -1.276   2.183   0.020  0.00  0.00    +0.101 C 
ATOM     25  N   UNL     1      -2.274   2.726   0.028  0.00  0.00    -0.191 NA
ENDBRANCH   9  24
TORSDOF 4
