REMARK  Name = ZINC17180371
REMARK  9 active torsions:
REMARK  status: ('A' for Active; 'I' for Inactive)
REMARK    1  A    between atoms: C_1  and  C_2
REMARK    2  A    between atoms: C_2  and  O_3
REMARK    3  A    between atoms: O_3  and  C_4
REMARK    4  A    between atoms: C_4  and  C_6
REMARK    5  A    between atoms: C_7  and  C_31
REMARK    6  A    between atoms: N_14  and  C_15
REMARK    7  A    between atoms: C_16  and  C_30
REMARK    8  A    between atoms: N_20  and  S_21
REMARK    9  A    between atoms: S_21  and  C_24
REMARK                            x       y       z     vdW  Elec       q    Type
REMARK                         _______ _______ _______ _____ _____    ______ ____
ROOT
ATOM      1  C   UNL     1       1.428  -2.328  -2.479  0.00  0.00    +0.120 A 
ATOM      2  C   UNL     1       1.643  -3.649  -2.848  0.00  0.00    +0.062 A 
ATOM      3  N   UNL     1       2.283  -3.842  -3.973  0.00  0.00    -0.229 NA
ATOM      4  C   UNL     1       2.698  -2.830  -4.713  0.00  0.00    +0.167 A 
ATOM      5  S   UNL     1       2.192  -1.476  -3.850  0.00  0.00    -0.045 S 
ATOM      6  N   UNL     1       3.380  -2.872  -5.915  0.00  0.00    -0.248 N 
ATOM      7  C   UNL     1       3.726  -1.726  -6.535  0.00  0.00    +0.310 C 
ATOM      8  O   UNL     1       3.438  -0.655  -6.037  0.00  0.00    -0.252 OA
ATOM      9  N   UNL     1       4.391  -1.767  -7.706  0.00  0.00    -0.262 N 
ATOM     10  C   UNL     1       1.167  -4.799  -1.998  0.00  0.00    +0.067 C 
ATOM     11  H   UNL     1       3.610  -3.727  -6.313  0.00  0.00    +0.158 HD
ATOM     12  H   UNL     1       4.621  -2.622  -8.104  0.00  0.00    +0.157 HD
ENDROOT
BRANCH   9  13
ATOM     13  C   UNL     1       4.751  -0.577  -8.350  0.00  0.00    +0.095 A 
ATOM     14  C   UNL     1       5.401  -0.410  -9.509  0.00  0.00    +0.043 A 
ATOM     15  N   UNL     1       5.659   0.854  -9.971  0.00  0.00    -0.335 N 
ATOM     16  C   UNL     1       5.235   1.927  -9.220  0.00  0.00    +0.193 A 
ATOM     17  S   UNL     1       4.452   1.108  -7.840  0.00  0.00    -0.033 S 
ATOM     18  N   UNL     1       5.367   3.209  -9.458  0.00  0.00    -0.103 NA
ATOM     19  C   UNL     1       5.849  -1.610 -10.302  0.00  0.00    +0.066 C 
ATOM     20  H   UNL     1       6.129   0.989 -10.809  0.00  0.00    +0.168 HD
BRANCH  18  21
ATOM     21  S   UNL     1       4.763   4.316  -8.385  0.00  0.00    +0.101 S 
ATOM     22  O   UNL     1       3.349   4.177  -8.411  0.00  0.00    -0.146 OA
ATOM     23  O   UNL     1       5.521   4.180  -7.191  0.00  0.00    -0.146 OA
BRANCH  21  24
ATOM     24  C   UNL     1       5.122   5.916  -9.030  0.00  0.00    +0.113 A 
ATOM     25  C   UNL     1       6.310   6.543  -8.701  0.00  0.00    +0.029 A 
ATOM     26  C   UNL     1       6.592   7.798  -9.207  0.00  0.00    +0.002 A 
ATOM     27  C   UNL     1       5.686   8.427 -10.042  0.00  0.00    +0.000 A 
ATOM     28  C   UNL     1       4.500   7.799 -10.372  0.00  0.00    +0.002 A 
ATOM     29  C   UNL     1       4.219   6.542  -9.869  0.00  0.00    +0.029 A 
ENDBRANCH  21  24
ENDBRANCH  18  21
ENDBRANCH   9  13
BRANCH   1  30
ATOM     30  C   UNL     1       0.776  -1.800  -1.335  0.00  0.00    +0.348 C 
ATOM     31  O   UNL     1       0.312  -2.553  -0.499  0.00  0.00    -0.244 OA
BRANCH  30  32
ATOM     32  O   UNL     1       0.671  -0.465  -1.174  0.00  0.00    -0.461 OA
BRANCH  32  34
ATOM     33  C   UNL     1      -0.019   1.526   0.010  0.00  0.00    +0.048 C 
ATOM     34  C   UNL     1       0.002  -0.004   0.002  0.00  0.00    +0.229 C 
ENDBRANCH  32  34
ENDBRANCH  30  32
ENDBRANCH   1  30
TORSDOF 6
