REMARK  Name = ZINC34830137
REMARK  6 active torsions:
REMARK  status: ('A' for Active; 'I' for Inactive)
REMARK    1  A    between atoms: C_1  and  C_2
REMARK    2  A    between atoms: C_2  and  C_4
REMARK    3  A    between atoms: C_2  and  N_23
REMARK    4  A    between atoms: C_12  and  C_14
REMARK    5  A    between atoms: C_18  and  N_20
REMARK    6  A    between atoms: C_31  and  C_33
REMARK                            x       y       z     vdW  Elec       q    Type
REMARK                         _______ _______ _______ _____ _____    ______ ____
ROOT
ATOM      1  C   UNL     1      -1.785  -0.326  -0.019  0.00  0.00    +0.202 C 
ATOM      2  O   UNL     1      -2.304  -0.818   0.961  0.00  0.00    -0.277 OA
ATOM      3  N   UNL     1      -2.349  -0.486  -1.232  0.00  0.00    -0.300 N 
ATOM      4  C   UNL     1      -1.786   0.183  -2.413  0.00  0.00    +0.126 C 
ATOM      5  C   UNL     1      -1.488  -0.877  -3.481  0.00  0.00    +0.127 C 
ATOM      6  N   UNL     1      -2.678  -1.724  -3.647  0.00  0.00    -0.295 N 
ATOM      7  C   UNL     1      -3.241  -2.393  -2.466  0.00  0.00    +0.127 C 
ATOM      8  C   UNL     1      -3.536  -1.337  -1.399  0.00  0.00    +0.126 C 
ATOM      9  C   UNL     1      -3.242  -1.883  -4.860  0.00  0.00    +0.247 C 
ATOM     10  O   UNL     1      -4.277  -2.511  -4.971  0.00  0.00    -0.270 OA
ENDROOT
BRANCH   9  11
ATOM     11  C   UNL     1      -2.602  -1.296  -6.056  0.00  0.00    +0.039 A 
ATOM     12  C   UNL     1      -1.217  -1.362  -6.214  0.00  0.00    +0.013 A 
ATOM     13  C   UNL     1      -0.626  -0.812  -7.333  0.00  0.00    +0.003 A 
ATOM     14  C   UNL     1      -1.404  -0.195  -8.297  0.00  0.00    +0.033 A 
ATOM     15  C   UNL     1      -2.777  -0.126  -8.147  0.00  0.00    +0.127 A 
ATOM     16  C   UNL     1      -3.381  -0.677  -7.035  0.00  0.00    +0.045 A 
BRANCH  15  17
ATOM     17  N   UNL     1      -3.601   0.536  -9.183  0.00  0.00    +0.056 N 
ATOM     18  O   UNL     1      -3.074   1.016 -10.159  0.00  0.00    -0.126 OA
ATOM     19  O   UNL     1      -4.802   0.598  -9.053  0.00  0.00    -0.126 OA
ENDBRANCH  15  17
ENDBRANCH   9  11
BRANCH   1  21
ATOM     20  C   UNL     1      -0.840   1.952   0.238  0.00  0.00    -0.004 C 
ATOM     21  C   UNL     1      -0.509   0.463   0.121  0.00  0.00    +0.018 C 
BRANCH  21  22
ATOM     22  N   UNL     1       0.209   0.025   1.325  0.00  0.00    +0.395 N 
ATOM     23  C   UNL     1      -0.621   0.293   2.507  0.00  0.00    -0.071 C 
ATOM     24  C   UNL     1       0.248   0.148   3.768  0.00  0.00    +0.024 C 
ATOM     25  C   UNL     1       1.016  -1.127   3.641  0.00  0.00    -0.010 A 
ATOM     26  C   UNL     1       1.164  -1.873   2.510  0.00  0.00    -0.047 A 
ATOM     27  C   UNL     1       1.923  -3.035   2.627  0.00  0.00    +0.010 A 
ATOM     28  C   UNL     1       2.471  -3.369   3.819  0.00  0.00    +0.045 A 
ATOM     29  S   UNL     1       1.929  -2.024   4.864  0.00  0.00    -0.101 S 
ATOM     30  C   UNL     1       0.510  -1.407   1.213  0.00  0.00    -0.005 C 
ATOM     31  H   UNL     1       1.073   0.541   1.403  0.00  0.00    -0.079 HD
BRANCH  30  32
ATOM     32  C   UNL     1       1.454  -1.637   0.061  0.00  0.00    -0.057 A 
ATOM     33  C   UNL     1       2.495  -0.756  -0.166  0.00  0.00    +0.002 A 
ATOM     34  C   UNL     1       3.361  -0.966  -1.222  0.00  0.00    +0.000 A 
ATOM     35  C   UNL     1       3.186  -2.058  -2.052  0.00  0.00    +0.000 A 
ATOM     36  C   UNL     1       2.146  -2.939  -1.825  0.00  0.00    +0.000 A 
ATOM     37  C   UNL     1       1.282  -2.731  -0.766  0.00  0.00    +0.002 A 
ENDBRANCH  30  32
ENDBRANCH  21  22
ENDBRANCH   1  21
TORSDOF 5
