REMARK  Name = ZINC08845790
REMARK  7 active torsions:
REMARK  status: ('A' for Active; 'I' for Inactive)
REMARK    1  A    between atoms: C_1  and  C_2
REMARK    2  A    between atoms: C_2  and  N_3
REMARK    3  A    between atoms: C_4  and  C_6
REMARK    4  A    between atoms: C_10  and  N_11
REMARK    5  A    between atoms: C_12  and  C_14
REMARK    6  A    between atoms: C_16  and  C_20
REMARK    7  A    between atoms: C_25  and  O_26
REMARK                            x       y       z     vdW  Elec       q    Type
REMARK                         _______ _______ _______ _____ _____    ______ ____
ROOT
ATOM      1  N   UNL     1      -3.171  -2.443   2.499  0.00  0.00    -0.274 N 
ATOM      2  C   UNL     1      -3.962  -2.744   3.547  0.00  0.00    +0.269 C 
ATOM      3  O   UNL     1      -5.090  -3.158   3.359  0.00  0.00    -0.268 OA
ATOM      4  H   UNL     1      -2.271  -2.113   2.650  0.00  0.00    +0.156 HD
ENDROOT
BRANCH   1   9
ATOM      5  C   UNL     1      -2.976  -2.347   0.018  0.00  0.00    +0.069 A 
ATOM      6  C   UNL     1      -3.696  -2.607  -1.216  0.00  0.00    -0.023 A 
ATOM      7  C   UNL     1      -4.952  -3.071  -1.036  0.00  0.00    -0.004 A 
ATOM      8  S   UNL     1      -5.152  -3.153   0.719  0.00  0.00    -0.077 S 
ATOM      9  C   UNL     1      -3.642  -2.604   1.206  0.00  0.00    +0.085 A 
ATOM     10  C   UNL     1      -5.940  -3.429  -2.103  0.00  0.00    +0.043 C 
ATOM     11  C   UNL     1      -5.450  -2.837  -3.433  0.00  0.00    +0.005 C 
ATOM     12  C   UNL     1      -3.969  -3.181  -3.614  0.00  0.00    +0.005 C 
ATOM     13  C   UNL     1      -3.124  -2.392  -2.610  0.00  0.00    +0.037 C 
BRANCH   5  15
ATOM     14  N   UNL     1      -1.372  -0.511   0.012  0.00  0.00    -0.312 N 
ATOM     15  C   UNL     1      -1.601  -1.839   0.007  0.00  0.00    +0.247 C 
ATOM     16  O   UNL     1      -0.665  -2.618  -0.006  0.00  0.00    -0.270 OA
ATOM     17  H   UNL     1      -2.118   0.109   0.023  0.00  0.00    +0.149 HD
BRANCH  14  19
ATOM     18  C   UNL     1      -0.019   1.526   0.010  0.00  0.00    +0.024 C 
ATOM     19  C   UNL     1       0.002  -0.004   0.002  0.00  0.00    +0.101 C 
ENDBRANCH  14  19
ENDBRANCH   5  15
ENDBRANCH   1   9
BRANCH   2  20
ATOM     20  C   UNL     1      -3.460  -2.572   4.926  0.00  0.00    +0.148 A 
ATOM     21  C   UNL     1      -4.168  -2.851   6.115  0.00  0.00    +0.062 A 
ATOM     22  C   UNL     1      -3.308  -2.541   7.132  0.00  0.00    +0.070 A 
ATOM     23  N   UNL     1      -2.154  -2.103   6.552  0.00  0.00    -0.276 N 
ATOM     24  H   UNL     1      -1.363  -1.814   7.035  0.00  0.00    +0.189 HD
ATOM     25  N   UNL     1      -2.265  -2.136   5.273  0.00  0.00    -0.169 NA
BRANCH  22  26
ATOM     26  C   UNL     1      -3.577  -2.659   8.582  0.00  0.00    +0.043 A 
ATOM     27  C   UNL     1      -4.827  -2.309   9.093  0.00  0.00    +0.033 A 
ATOM     28  C   UNL     1      -5.072  -2.420  10.447  0.00  0.00    +0.042 A 
ATOM     29  C   UNL     1      -4.082  -2.878  11.300  0.00  0.00    +0.023 A 
ATOM     30  C   UNL     1      -2.840  -3.227  10.803  0.00  0.00    +0.047 A 
ATOM     31  C   UNL     1      -2.581  -3.127   9.446  0.00  0.00    +0.126 A 
ATOM     32 CL   UNL     1      -6.628  -1.984  11.082  0.00  0.00    -0.084 Cl
BRANCH  31  33
ATOM     33  O   UNL     1      -1.363  -3.475   8.957  0.00  0.00    -0.506 OA
ATOM     34  H   UNL     1      -0.725  -2.749   8.935  0.00  0.00    +0.292 HD
ENDBRANCH  31  33
ENDBRANCH  22  26
ENDBRANCH   2  20
TORSDOF 6
