REMARK  Name = ZINC15483821
REMARK  7 active torsions:
REMARK  status: ('A' for Active; 'I' for Inactive)
REMARK    1  A    between atoms: C_6  and  C_7
REMARK    2  A    between atoms: C_7  and  N_8
REMARK    3  A    between atoms: N_8  and  C_9
REMARK    4  A    between atoms: N_8  and  C_21
REMARK    5  A    between atoms: C_9  and  C_10
REMARK    6  A    between atoms: N_15  and  C_16
REMARK    7  A    between atoms: C_16  and  C_17
REMARK                            x       y       z     vdW  Elec       q    Type
REMARK                         _______ _______ _______ _____ _____    ______ ____
ROOT
ATOM      1  N   UNL     1      -1.831  -0.863  -1.396  0.00  0.00    +0.390 N 
ATOM      2  H   UNL     1      -1.151  -1.218  -2.051  0.00  0.00    -0.080 HD
ENDROOT
BRANCH   1   3
ATOM      3  C   UNL     1      -2.203   0.508  -1.770  0.00  0.00    -0.067 C 
ATOM      4  C   UNL     1      -3.271   1.028  -0.805  0.00  0.00    -0.015 C 
ATOM      5  C   UNL     1      -3.658   2.456  -1.195  0.00  0.00    -0.002 C 
ATOM      6  C   UNL     1      -4.212   2.463  -2.622  0.00  0.00    -0.000 C 
ATOM      7  C   UNL     1      -3.144   1.943  -3.586  0.00  0.00    -0.002 C 
ATOM      8  C   UNL     1      -2.757   0.515  -3.196  0.00  0.00    -0.015 C 
ENDBRANCH   1   3
BRANCH   1   9
ATOM      9  C   UNL     1      -1.255  -0.862  -0.044  0.00  0.00    -0.042 C 
BRANCH   9  15
ATOM     10  C   UNL     1       0.079   1.246   0.152  0.00  0.00    +0.004 A 
ATOM     11  C   UNL     1       1.282   1.927   0.140  0.00  0.00    +0.038 A 
ATOM     12  C   UNL     1       2.463   1.241  -0.083  0.00  0.00    +0.123 A 
ATOM     13  C   UNL     1       2.439  -0.127  -0.293  0.00  0.00    +0.038 A 
ATOM     14  C   UNL     1       1.236  -0.806  -0.280  0.00  0.00    +0.004 A 
ATOM     15  C   UNL     1       0.057  -0.120  -0.058  0.00  0.00    -0.064 A 
ATOM     16  F   UNL     1       3.639   1.907  -0.095  0.00  0.00    -0.205 F 
ENDBRANCH   9  15
ENDBRANCH   1   9
BRANCH   1  17
ATOM     17  C   UNL     1      -3.026  -1.717  -1.418  0.00  0.00    +0.020 C 
BRANCH  17  18
ATOM     18  C   UNL     1      -3.317  -2.137  -2.836  0.00  0.00    +0.204 C 
ATOM     19  O   UNL     1      -2.525  -1.882  -3.718  0.00  0.00    -0.277 OA
ATOM     20  N   UNL     1      -4.457  -2.795  -3.124  0.00  0.00    -0.242 N 
ATOM     21  C   UNL     1      -4.717  -3.171  -4.392  0.00  0.00    +0.306 C 
ATOM     22  O   UNL     1      -3.924  -2.915  -5.276  0.00  0.00    -0.252 OA
ATOM     23  N   UNL     1      -5.857  -3.829  -4.679  0.00  0.00    -0.291 N 
ATOM     24  H   UNL     1      -5.090  -2.999  -2.418  0.00  0.00    +0.159 HD
ATOM     25  H   UNL     1      -6.491  -4.033  -3.974  0.00  0.00    +0.151 HD
BRANCH  23  26
ATOM     26  C   UNL     1      -6.140  -4.237  -6.058  0.00  0.00    +0.219 C 
BRANCH  26  27
ATOM     27  C   UNL     1      -7.487  -4.961  -6.109  0.00  0.00    +0.405 C 
ATOM     28  F   UNL     1      -8.496  -4.102  -5.661  0.00  0.00    -0.169 F 
ATOM     29  F   UNL     1      -7.757  -5.350  -7.426  0.00  0.00    -0.169 F 
ATOM     30  F   UNL     1      -7.439  -6.093  -5.289  0.00  0.00    -0.169 F 
ENDBRANCH  26  27
ENDBRANCH  23  26
ENDBRANCH  17  18
ENDBRANCH   1  17
TORSDOF 7
