REMARK  Name = ZINC20755156
REMARK  5 active torsions:
REMARK  status: ('A' for Active; 'I' for Inactive)
REMARK    1  A    between atoms: C_1  and  C_2
REMARK    2  A    between atoms: C_3  and  N_26
REMARK    3  A    between atoms: C_9  and  C_18
REMARK    4  A    between atoms: C_22  and  O_24
REMARK    5  A    between atoms: O_24  and  C_25
REMARK                            x       y       z     vdW  Elec       q    Type
REMARK                         _______ _______ _______ _____ _____    ______ ____
ROOT
ATOM      1  C   UNL     1       3.533  -3.762   2.826  0.00  0.00    +0.048 C 
ATOM      2  C   UNL     1       2.944  -3.986   1.457  0.00  0.00    +0.001 A 
ATOM      3  C   UNL     1       2.288  -5.166   1.184  0.00  0.00    +0.131 A 
ATOM      4  C   UNL     1       1.745  -5.386  -0.069  0.00  0.00    +0.033 A 
ATOM      5  C   UNL     1       1.855  -4.412  -1.043  0.00  0.00    +0.008 A 
ATOM      6  C   UNL     1       2.501  -3.224  -0.774  0.00  0.00    -0.019 A 
ATOM      7  C   UNL     1       3.071  -2.996   0.482  0.00  0.00    +0.036 A 
ATOM      8  N   UNL     1       3.764  -1.837   0.825  0.00  0.00    -0.336 N 
ATOM      9  C   UNL     1       3.791  -0.760  -0.177  0.00  0.00    +0.105 C 
ATOM     10  C   UNL     1       3.954  -1.416  -1.532  0.00  0.00    +0.029 C 
ATOM     11  C   UNL     1       2.597  -2.146  -1.782  0.00  0.00    +0.049 C 
ATOM     12  C   UNL     1       2.642  -2.411  -3.240  0.00  0.00    -0.023 C 
ATOM     13  C   UNL     1       3.375  -1.466  -3.819  0.00  0.00    -0.030 C 
ATOM     14  C   UNL     1       3.914  -0.502  -2.759  0.00  0.00    +0.033 C 
ATOM     15  H   UNL     1       4.276  -1.704   1.790  0.00  0.00    +0.147 HD
ENDROOT
BRANCH   9  16
ATOM     16  C   UNL     1       2.500   0.016  -0.133  0.00  0.00    -0.024 A 
ATOM     17  C   UNL     1       2.466   1.326  -0.574  0.00  0.00    +0.006 A 
ATOM     18  C   UNL     1       1.282   2.040  -0.535  0.00  0.00    +0.004 A 
ATOM     19  C   UNL     1       0.131   1.446  -0.054  0.00  0.00    +0.045 A 
ATOM     20  C   UNL     1       0.163   0.132   0.389  0.00  0.00    +0.120 A 
ATOM     21  C   UNL     1       1.352  -0.583   0.348  0.00  0.00    +0.051 A 
BRANCH  20  22
ATOM     22  O   UNL     1      -0.968  -0.454   0.863  0.00  0.00    -0.495 OA
ATOM     23  C   UNL     1      -2.154   0.342   0.875  0.00  0.00    +0.277 C 
ENDBRANCH  20  22
ENDBRANCH   9  16
BRANCH   3  24
ATOM     24  N   UNL     1       2.163  -6.201   2.234  0.00  0.00    +0.057 N 
ATOM     25  O   UNL     1       2.240  -7.380   1.940  0.00  0.00    -0.126 OA
ATOM     26  O   UNL     1       1.984  -5.873   3.394  0.00  0.00    -0.126 OA
ENDBRANCH   3  24
TORSDOF 3
