REMARK  Name = ZINC66076316
REMARK  11 active torsions:
REMARK  status: ('A' for Active; 'I' for Inactive)
REMARK    1  A    between atoms: C_1  and  C_2
REMARK    2  A    between atoms: C_7  and  C_9
REMARK    3  A    between atoms: C_7  and  N_25
REMARK    4  A    between atoms: C_9  and  N_10
REMARK    5  A    between atoms: C_11  and  C_13
REMARK    6  A    between atoms: C_13  and  C_14
REMARK    7  A    between atoms: C_14  and  C_16
REMARK    8  A    between atoms: C_14  and  N_17
REMARK    9  A    between atoms: C_18  and  C_20
REMARK   10  A    between atoms: N_25  and  C_26
REMARK   11  A    between atoms: N_25  and  C_27
REMARK                            x       y       z     vdW  Elec       q    Type
REMARK                         _______ _______ _______ _____ _____    ______ ____
ROOT
ATOM      1  N   UNL     1       1.174  -3.642   1.823  0.00  0.00    -0.317 N 
ATOM      2  C   UNL     1       1.458  -4.336   2.943  0.00  0.00    +0.215 C 
ATOM      3  O   UNL     1       1.778  -3.749   3.954  0.00  0.00    -0.276 OA
ATOM      4  H   UNL     1       0.917  -4.112   1.013  0.00  0.00    +0.149 HD
ENDROOT
BRANCH   1   5
ATOM      5  C   UNL     1       1.252  -2.179   1.827  0.00  0.00    +0.092 C 
BRANCH   5  11
ATOM      6  C   UNL     1       0.738   1.931  -0.968  0.00  0.00    +0.007 C 
ATOM      7  C   UNL     1       0.792   0.402  -0.993  0.00  0.00    -0.015 C 
ATOM      8  C   UNL     1      -0.521  -0.145  -1.556  0.00  0.00    +0.003 C 
ATOM      9  C   UNL     1      -0.468  -1.674  -1.580  0.00  0.00    -0.001 C 
ATOM     10  C   UNL     1      -0.264  -2.201  -0.158  0.00  0.00    -0.010 C 
ATOM     11  C   UNL     1       1.049  -1.653   0.405  0.00  0.00    -0.050 C 
ATOM     12  C   UNL     1       0.995  -0.124   0.430  0.00  0.00    -0.007 C 
BRANCH  11  13
ATOM     13  N   UNL     1       2.166  -2.091  -0.443  0.00  0.00    +0.381 N 
ATOM     14  C   UNL     1       3.437  -1.690   0.175  0.00  0.00    -0.096 C 
ATOM     15  C   UNL     1       2.129  -3.552  -0.586  0.00  0.00    -0.096 C 
ATOM     16  H   UNL     1       2.085  -1.662  -1.353  0.00  0.00    -0.082 HD
ENDBRANCH  11  13
ENDBRANCH   5  11
ENDBRANCH   1   5
BRANCH   2  17
ATOM     17  C   UNL     1       1.377  -5.841   2.938  0.00  0.00    +0.117 C 
BRANCH  17  18
ATOM     18  C   UNL     1       1.744  -6.376   4.323  0.00  0.00    +0.079 C 
ATOM     19  C   UNL     1       1.542  -7.892   4.355  0.00  0.00    +0.028 C 
BRANCH  18  20
ATOM     20  N   UNL     1       3.147  -6.064   4.611  0.00  0.00    -0.312 N 
ATOM     21  C   UNL     1       3.567  -5.964   5.887  0.00  0.00    +0.216 C 
ATOM     22  O   UNL     1       2.784  -6.131   6.798  0.00  0.00    -0.276 OA
ATOM     23  H   UNL     1       3.773  -5.930   3.882  0.00  0.00    +0.149 HD
BRANCH  21  24
ATOM     24  C   UNL     1       5.010  -5.643   6.182  0.00  0.00    +0.075 C 
ATOM     25  C   UNL     1       5.921  -6.765   5.644  0.00  0.00    +0.013 C 
ATOM     26  C   UNL     1       7.042  -6.886   6.707  0.00  0.00    +0.001 C 
ATOM     27  C   UNL     1       6.277  -6.673   8.036  0.00  0.00    +0.001 C 
ATOM     28  C   UNL     1       5.236  -5.584   7.703  0.00  0.00    +0.013 C 
ENDBRANCH  21  24
ENDBRANCH  18  20
ENDBRANCH  17  18
ENDBRANCH   2  17
TORSDOF 7
