REMARK  Name = ZINC00627751
REMARK  7 active torsions:
REMARK  status: ('A' for Active; 'I' for Inactive)
REMARK    1  A    between atoms: C_1  and  C_2
REMARK    2  A    between atoms: C_5  and  N_9
REMARK    3  A    between atoms: N_9  and  C_10
REMARK    4  A    between atoms: C_10  and  N_12
REMARK    5  A    between atoms: C_13  and  C_15
REMARK    6  A    between atoms: C_15  and  O_16
REMARK    7  A    between atoms: O_16  and  C_17
REMARK                            x       y       z     vdW  Elec       q    Type
REMARK                         _______ _______ _______ _____ _____    ______ ____
ROOT
ATOM      1  N   UNL     1       3.325   6.426  -0.228  0.00  0.00    -0.265 N 
ATOM      2  C   UNL     1       2.304   5.580  -0.472  0.00  0.00    +0.256 C 
ATOM      3  O   UNL     1       1.196   6.016  -0.698  0.00  0.00    -0.272 OA
ATOM      4  H   UNL     1       4.211   6.077  -0.048  0.00  0.00    +0.157 HD
ENDROOT
BRANCH   1   5
ATOM      5  C   UNL     1       3.113   7.757  -0.236  0.00  0.00    +0.141 C 
ATOM      6  S   UNL     1       1.548   8.373  -0.555  0.00  0.00    -0.018 S 
BRANCH   5   7
ATOM      7  N   UNL     1       4.134   8.603   0.007  0.00  0.00    -0.296 N 
ATOM      8  H   UNL     1       5.006   8.254   0.249  0.00  0.00    +0.154 HD
BRANCH   7  13
ATOM      9  C   UNL     1       3.331  14.206  -0.382  0.00  0.00    +0.044 C 
ATOM     10  C   UNL     1       3.544  12.717  -0.280  0.00  0.00    -0.049 A 
ATOM     11  C   UNL     1       2.640  11.937   0.418  0.00  0.00    +0.005 A 
ATOM     12  C   UNL     1       2.833  10.573   0.515  0.00  0.00    +0.024 A 
ATOM     13  C   UNL     1       3.936   9.984  -0.090  0.00  0.00    +0.047 A 
ATOM     14  C   UNL     1       4.845  10.771  -0.786  0.00  0.00    +0.039 A 
ATOM     15  C   UNL     1       4.644  12.135  -0.883  0.00  0.00    +0.020 A 
ATOM     16 BR   UNL     1       6.353   9.976  -1.605  0.00  0.00    -0.048 Br
ENDBRANCH   7  13
ENDBRANCH   5   7
ENDBRANCH   1   5
BRANCH   2  17
ATOM     17  C   UNL     1       2.540   4.091  -0.463  0.00  0.00    +0.324 C 
BRANCH  17  18
ATOM     18  O   UNL     1       1.315   3.413  -0.746  0.00  0.00    -0.483 OA
BRANCH  18  19
ATOM     19  C   UNL     1       1.354   2.055  -0.775  0.00  0.00    +0.121 A 
ATOM     20  C   UNL     1       0.201   1.332  -1.044  0.00  0.00    +0.047 A 
ATOM     21  C   UNL     1       0.243  -0.049  -1.074  0.00  0.00    +0.023 A 
ATOM     22  C   UNL     1       1.435  -0.710  -0.837  0.00  0.00    +0.041 A 
ATOM     23  C   UNL     1       2.586   0.009  -0.569  0.00  0.00    +0.023 A 
ATOM     24  C   UNL     1       2.548   1.389  -0.537  0.00  0.00    +0.047 A 
ATOM     25 CL   UNL     1       1.486  -2.445  -0.876  0.00  0.00    -0.084 Cl
ENDBRANCH  18  19
ENDBRANCH  17  18
ENDBRANCH   2  17
TORSDOF 6
