REMARK  Name = ZINC13499611
REMARK  12 active torsions:
REMARK  status: ('A' for Active; 'I' for Inactive)
REMARK    1  A    between atoms: C_1  and  C_2
REMARK    2  A    between atoms: C_2  and  C_3
REMARK    3  A    between atoms: C_3  and  C_4
REMARK    4  A    between atoms: C_4  and  C_6
REMARK    5  A    between atoms: C_4  and  N_72
REMARK    6  A    between atoms: N_10  and  C_11
REMARK    7  A    between atoms: C_11  and  C_12
REMARK    8  A    between atoms: C_17  and  C_18
REMARK    9  A    between atoms: C_17  and  N_72
REMARK   10  A    between atoms: C_21  and  C_31
REMARK   11  A    between atoms: C_23  and  C_30
REMARK   12  A    between atoms: C_32  and  N_72
REMARK                            x       y       z     vdW  Elec       q    Type
REMARK                         _______ _______ _______ _____ _____    ______ ____
ROOT
ATOM      1  N   UNL     1      -3.369   0.702  -1.575  0.00  0.00    +0.391 N 
ATOM      2  H   UNL     1      -2.730   0.300  -2.271  0.00  0.00    -0.080 HD
ENDROOT
BRANCH   1   3
ATOM      3  C   UNL     1      -3.970   1.933  -2.131  0.00  0.00    -0.067 C 
ATOM      4  C   UNL     1      -5.179   1.564  -2.992  0.00  0.00    -0.015 C 
ATOM      5  C   UNL     1      -5.786   2.834  -3.590  0.00  0.00    -0.002 C 
ATOM      6  C   UNL     1      -4.741   3.541  -4.455  0.00  0.00    -0.000 C 
ATOM      7  C   UNL     1      -3.531   3.910  -3.594  0.00  0.00    -0.002 C 
ATOM      8  C   UNL     1      -2.924   2.640  -2.995  0.00  0.00    -0.015 C 
ENDBRANCH   1   3
BRANCH   1   9
ATOM      9  C   UNL     1      -4.428  -0.283  -1.270  0.00  0.00    +0.003 C 
BRANCH   9  10
ATOM     10  C   UNL     1      -3.810  -1.657  -1.229  0.00  0.00    +0.139 A 
ATOM     11  N   UNL     1      -2.702  -1.999  -0.617  0.00  0.00    -0.115 NA
ATOM     12  N   UNL     1      -2.510  -3.257  -0.814  0.00  0.00    -0.023 NA
ATOM     13  N   UNL     1      -3.467  -3.728  -1.536  0.00  0.00    -0.044 NA
ATOM     14  N   UNL     1      -4.291  -2.773  -1.808  0.00  0.00    -0.223 N 
BRANCH  14  15
ATOM     15  C   UNL     1      -5.518  -2.881  -2.601  0.00  0.00    +0.221 C 
BRANCH  15  16
ATOM     16  C   UNL     1      -5.203  -2.624  -4.052  0.00  0.00    +0.126 A 
ATOM     17  C   UNL     1      -4.843  -3.553  -4.956  0.00  0.00    +0.046 A 
ATOM     18  C   UNL     1      -4.648  -2.877  -6.182  0.00  0.00    +0.041 A 
ATOM     19  C   UNL     1      -4.892  -1.574  -5.953  0.00  0.00    +0.195 A 
ATOM     20  O   UNL     1      -5.228  -1.427  -4.660  0.00  0.00    -0.466 OA
ENDBRANCH  15  16
ENDBRANCH  14  15
ENDBRANCH   9  10
BRANCH   9  21
ATOM     21  C   UNL     1      -5.073   0.027   0.082  0.00  0.00    -0.008 C 
BRANCH  21  23
ATOM     22  C   UNL     1      -6.651   1.549   1.279  0.00  0.00    +0.004 C 
ATOM     23  C   UNL     1      -5.885   1.319  -0.025  0.00  0.00    -0.005 C 
ENDBRANCH  21  23
ENDBRANCH   9  21
ENDBRANCH   1   9
BRANCH   1  24
ATOM     24  C   UNL     1      -2.606   1.020  -0.350  0.00  0.00    -0.036 C 
BRANCH  24  25
ATOM     25  C   UNL     1      -1.321   1.701  -0.744  0.00  0.00    +0.001 A 
ATOM     26  C   UNL     1      -1.192   3.042  -0.591  0.00  0.00    +0.017 A 
ATOM     27  C   UNL     1       0.068   3.673  -0.989  0.00  0.00    +0.002 A 
ATOM     28  C   UNL     1       0.258   5.053  -0.861  0.00  0.00    -0.041 A 
ATOM     29  C   UNL     1       1.445   5.611  -1.241  0.00  0.00    +0.007 A 
ATOM     30  C   UNL     1       2.465   4.821  -1.753  0.00  0.00    -0.048 A 
ATOM     31  C   UNL     1       2.301   3.460  -1.888  0.00  0.00    +0.029 A 
ATOM     32  C   UNL     1       1.100   2.869  -1.508  0.00  0.00    +0.050 A 
ATOM     33  N   UNL     1       0.908   1.509  -1.632  0.00  0.00    -0.322 N 
ATOM     34  H   UNL     1       1.620   0.957  -1.989  0.00  0.00    +0.169 HD
ATOM     35  C   UNL     1      -0.253   0.939  -1.264  0.00  0.00    +0.251 A 
ATOM     36  O   UNL     1      -0.388  -0.266  -1.388  0.00  0.00    -0.268 OA
ATOM     37  C   UNL     1       3.767   5.459  -2.166  0.00  0.00    +0.044 C 
ATOM     38  C   UNL     1      -0.843   5.920  -0.307  0.00  0.00    +0.044 C 
ENDBRANCH  24  25
ENDBRANCH   1  24
TORSDOF 9
