REMARK  Name = ZINC10519042
REMARK  9 active torsions:
REMARK  status: ('A' for Active; 'I' for Inactive)
REMARK    1  A    between atoms: C_1  and  C_2
REMARK    2  A    between atoms: C_2  and  C_3
REMARK    3  A    between atoms: C_3  and  C_5
REMARK    4  A    between atoms: C_3  and  C_6
REMARK    5  A    between atoms: C_9  and  S_12
REMARK    6  A    between atoms: S_12  and  N_15
REMARK    7  A    between atoms: C_19  and  S_26
REMARK    8  A    between atoms: C_23  and  C_25
REMARK    9  A    between atoms: S_26  and  N_29
REMARK                            x       y       z     vdW  Elec       q    Type
REMARK                         _______ _______ _______ _____ _____    ______ ____
ROOT
ATOM      1  N   UNL     1       1.456  -2.067  -0.024  0.00  0.00    -0.200 N 
ATOM      2  C   UNL     1       1.218  -0.692  -0.014  0.00  0.00    +0.055 A 
ATOM      3  C   UNL     1       0.002  -0.004   0.002  0.00  0.00    +0.027 A 
ATOM      4  C   UNL     1      -0.017   1.374   0.010  0.00  0.00    +0.030 A 
ATOM      5  C   UNL     1       1.169   2.087   0.002  0.00  0.00    +0.105 A 
ATOM      6  C   UNL     1       2.376   1.413  -0.014  0.00  0.00    +0.034 A 
ATOM      7  C   UNL     1       2.400   0.032  -0.021  0.00  0.00    -0.021 A 
ATOM      8  C   UNL     1       3.558  -0.940  -0.038  0.00  0.00    +0.061 C 
ATOM      9  C   UNL     1       2.897  -2.328  -0.040  0.00  0.00    +0.099 C 
ATOM     10  C   UNL     1       3.284  -3.099  -1.304  0.00  0.00    +0.030 C 
ENDROOT
BRANCH   1  11
ATOM     11  S   UNL     1       0.280  -3.234  -0.019  0.00  0.00    +0.075 S 
ATOM     12  O   UNL     1       0.874  -4.407   0.520  0.00  0.00    -0.150 OA
ATOM     13  O   UNL     1      -0.880  -2.639   0.546  0.00  0.00    -0.150 OA
BRANCH  11  17
ATOM     14  C   UNL     1      -0.712  -4.154  -4.339  0.00  0.00    -0.044 A 
ATOM     15  C   UNL     1       0.283  -4.862  -3.692  0.00  0.00    +0.006 A 
ATOM     16  C   UNL     1       0.586  -4.582  -2.373  0.00  0.00    +0.029 A 
ATOM     17  C   UNL     1      -0.106  -3.591  -1.701  0.00  0.00    +0.109 A 
ATOM     18  C   UNL     1      -1.104  -2.886  -2.346  0.00  0.00    +0.029 A 
ATOM     19  C   UNL     1      -1.404  -3.164  -3.667  0.00  0.00    +0.006 A 
BRANCH  14  20
ATOM     20  C   UNL     1      -1.042  -4.460  -5.777  0.00  0.00    +0.016 C 
ATOM     21  C   UNL     1      -0.819  -3.208  -6.629  0.00  0.00    +0.012 C 
BRANCH  20  23
ATOM     22  C   UNL     1      -2.806  -5.324  -7.321  0.00  0.00    +0.004 C 
ATOM     23  C   UNL     1      -2.505  -4.895  -5.883  0.00  0.00    +0.004 C 
ENDBRANCH  20  23
ENDBRANCH  14  20
ENDBRANCH  11  17
ENDBRANCH   1  11
BRANCH   5  24
ATOM     24  S   UNL     1       1.140   3.848   0.011  0.00  0.00    +0.056 S 
ATOM     25  O   UNL     1       2.374   4.277  -0.549  0.00  0.00    -0.153 OA
ATOM     26  O   UNL     1      -0.117   4.237  -0.525  0.00  0.00    -0.153 OA
BRANCH  24  27
ATOM     27  N   UNL     1       1.147   4.330   1.596  0.00  0.00    -0.204 NA
ATOM     28  H   UNL     1       1.165   3.667   2.304  0.00  0.00    +0.144 HD
ATOM     29  H   UNL     1       1.134   5.274   1.816  0.00  0.00    +0.144 HD
ENDBRANCH  24  27
ENDBRANCH   5  24
TORSDOF 6
