REMARK  Name = ZINC64636631
REMARK  9 active torsions:
REMARK  status: ('A' for Active; 'I' for Inactive)
REMARK    1  A    between atoms: C_1  and  C_2
REMARK    2  A    between atoms: C_2  and  N_3
REMARK    3  A    between atoms: C_7  and  C_8
REMARK    4  A    between atoms: C_8  and  N_9
REMARK    5  A    between atoms: C_22  and  C_24
REMARK    6  A    between atoms: C_28  and  O_32
REMARK    7  A    between atoms: C_29  and  O_30
REMARK    8  A    between atoms: O_30  and  C_31
REMARK    9  A    between atoms: O_32  and  C_33
REMARK                            x       y       z     vdW  Elec       q    Type
REMARK                         _______ _______ _______ _____ _____    ______ ____
ROOT
ATOM      1  N   UNL     1      -2.127   0.938  -2.570  0.00  0.00    -0.286 NA
ATOM      2  C   UNL     1      -1.225   1.732  -1.731  0.00  0.00    +0.090 C 
ATOM      3  C   UNL     1      -1.707   3.193  -1.666  0.00  0.00    +0.049 C 
ATOM      4  C   UNL     1      -1.938   3.623  -3.094  0.00  0.00    -0.035 C 
ATOM      5  C   UNL     1      -1.547   4.687  -3.780  0.00  0.00    -0.001 A 
ATOM      6  C   UNL     1      -0.855   5.920  -3.371  0.00  0.00    +0.010 A 
ATOM      7  C   UNL     1      -0.580   6.810  -4.360  0.00  0.00    +0.001 A 
ATOM      8  C   UNL     1      -0.921   6.601  -5.700  0.00  0.00    +0.002 A 
ATOM      9  C   UNL     1      -1.569   5.503  -6.164  0.00  0.00    +0.026 A 
ATOM     10  C   UNL     1      -1.920   4.499  -5.216  0.00  0.00    +0.043 A 
ATOM     11  N   UNL     1      -2.559   3.377  -5.376  0.00  0.00    -0.376 N 
ATOM     12  C   UNL     1      -2.736   2.758  -4.065  0.00  0.00    +0.128 C 
ATOM     13  C   UNL     1      -2.130   1.355  -3.981  0.00  0.00    +0.117 C 
ATOM     14  H   UNL     1      -2.866   3.014  -6.222  0.00  0.00    +0.160 HD
ENDROOT
BRANCH  13  15
ATOM     15  C   UNL     1      -2.959   0.394  -4.793  0.00  0.00    +0.017 A 
ATOM     16  C   UNL     1      -4.098  -0.168  -4.248  0.00  0.00    +0.009 A 
ATOM     17  C   UNL     1      -4.861  -1.050  -4.991  0.00  0.00    +0.004 A 
ATOM     18  C   UNL     1      -4.487  -1.374  -6.282  0.00  0.00    +0.049 A 
ATOM     19  C   UNL     1      -3.346  -0.815  -6.834  0.00  0.00    +0.162 A 
ATOM     20  C   UNL     1      -2.582   0.078  -6.088  0.00  0.00    +0.166 A 
BRANCH  20  21
ATOM     21  O   UNL     1      -1.464   0.635  -6.628  0.00  0.00    -0.491 OA
ATOM     22  C   UNL     1      -0.235  -0.071  -6.446  0.00  0.00    +0.277 C 
ENDBRANCH  20  21
BRANCH  19  23
ATOM     23  O   UNL     1      -2.977  -1.133  -8.104  0.00  0.00    -0.491 OA
ATOM     24  C   UNL     1      -3.812  -2.051  -8.812  0.00  0.00    +0.277 C 
ENDBRANCH  19  23
ENDBRANCH  13  15
BRANCH   1  25
ATOM     25  C   UNL     1      -1.835  -0.496  -2.445  0.00  0.00    +0.157 C 
BRANCH  25  30
ATOM     26  N   UNL     1      -1.686  -2.025  -0.418  0.00  0.00    -0.335 N 
ATOM     27  C   UNL     1      -2.311  -2.113   0.796  0.00  0.00    +0.104 A 
ATOM     28  C   UNL     1      -3.212  -1.114   0.844  0.00  0.00    +0.101 A 
ATOM     29  N   UNL     1      -3.140  -0.434  -0.310  0.00  0.00    -0.349 N 
ATOM     30  C   UNL     1      -2.224  -0.971  -1.069  0.00  0.00    +0.101 A 
ATOM     31  H   UNL     1      -3.681   0.337  -0.543  0.00  0.00    +0.166 HD
BRANCH  26  33
ATOM     32  C   UNL     1       0.736  -2.250  -0.677  0.00  0.00    +0.027 C 
ATOM     33  C   UNL     1      -0.626  -2.905  -0.917  0.00  0.00    +0.119 C 
ENDBRANCH  26  33
ENDBRANCH  25  30
ENDBRANCH   1  25
TORSDOF 6
