REMARK  Name = ZINC06601783
REMARK  9 active torsions:
REMARK  status: ('A' for Active; 'I' for Inactive)
REMARK    1  A    between atoms: C_1  and  C_2
REMARK    2  A    between atoms: C_2  and  O_3
REMARK    3  A    between atoms: O_3  and  C_4
REMARK    4  A    between atoms: C_7  and  N_10
REMARK    5  A    between atoms: C_20  and  S_21
REMARK    6  A    between atoms: S_21  and  C_22
REMARK    7  A    between atoms: C_22  and  C_23
REMARK    8  A    between atoms: N_25  and  C_26
REMARK    9  A    between atoms: C_27  and  C_34
REMARK                            x       y       z     vdW  Elec       q    Type
REMARK                         _______ _______ _______ _____ _____    ______ ____
ROOT
ATOM      1  N   UNL     1      -2.891   5.810   0.047  0.00  0.00    -0.255 N 
ATOM      2  C   UNL     1      -4.078   6.223   0.549  0.00  0.00    +0.267 A 
ATOM      3  O   UNL     1      -4.216   7.343   1.004  0.00  0.00    -0.267 OA
ATOM      4  C   UNL     1      -5.194   5.267   0.525  0.00  0.00    +0.065 A 
ATOM      5  C   UNL     1      -6.456   5.596   1.018  0.00  0.00    +0.015 A 
ATOM      6  C   UNL     1      -7.460   4.669   0.970  0.00  0.00    +0.001 A 
ATOM      7  C   UNL     1      -7.236   3.406   0.438  0.00  0.00    +0.002 A 
ATOM      8  C   UNL     1      -6.009   3.057  -0.052  0.00  0.00    +0.028 A 
ATOM      9  C   UNL     1      -4.961   3.983  -0.018  0.00  0.00    +0.079 A 
ATOM     10  N   UNL     1      -3.737   3.682  -0.495  0.00  0.00    -0.223 NA
ATOM     11  C   UNL     1      -2.754   4.547  -0.459  0.00  0.00    +0.177 A 
ENDROOT
BRANCH   1  15
ATOM     12  C   UNL     1       0.373   8.408   0.046  0.00  0.00    +0.121 A 
ATOM     13  C   UNL     1      -0.491   8.379  -1.039  0.00  0.00    +0.047 A 
ATOM     14  C   UNL     1      -1.572   7.519  -1.039  0.00  0.00    +0.030 A 
ATOM     15  C   UNL     1      -1.794   6.683   0.047  0.00  0.00    +0.052 A 
ATOM     16  C   UNL     1      -0.932   6.716   1.135  0.00  0.00    +0.030 A 
ATOM     17  C   UNL     1       0.151   7.573   1.132  0.00  0.00    +0.047 A 
BRANCH  12  18
ATOM     18  O   UNL     1       1.436   9.254   0.046  0.00  0.00    -0.492 OA
BRANCH  18  20
ATOM     19  C   UNL     1       3.417  10.243   1.015  0.00  0.00    +0.048 C 
ATOM     20  C   UNL     1       2.284   9.231   1.196  0.00  0.00    +0.225 C 
ENDBRANCH  18  20
ENDBRANCH  12  18
ENDBRANCH   1  15
BRANCH  11  21
ATOM     21  S   UNL     1      -1.185   4.064  -1.099  0.00  0.00    -0.078 S 
BRANCH  21  22
ATOM     22  C   UNL     1      -1.563   2.370  -1.613  0.00  0.00    +0.173 C 
BRANCH  22  23
ATOM     23  C   UNL     1      -0.332   1.739  -2.209  0.00  0.00    +0.228 C 
ATOM     24  O   UNL     1       0.699   2.373  -2.283  0.00  0.00    -0.275 OA
ATOM     25  N   UNL     1      -0.377   0.471  -2.663  0.00  0.00    -0.279 N 
ATOM     26  H   UNL     1      -1.201  -0.037  -2.604  0.00  0.00    +0.155 HD
BRANCH  25  27
ATOM     27  C   UNL     1       0.755  -0.108  -3.216  0.00  0.00    +0.084 A 
ATOM     28  C   UNL     1       0.906  -1.386  -3.727  0.00  0.00    +0.068 A 
ATOM     29  C   UNL     1       2.217  -1.752  -4.261  0.00  0.00    -0.023 A 
ATOM     30  C   UNL     1       3.153  -0.788  -4.187  0.00  0.00    -0.004 A 
ATOM     31  S   UNL     1       2.325   0.589  -3.429  0.00  0.00    -0.077 S 
ATOM     32  C   UNL     1       4.473  -1.239  -4.752  0.00  0.00    +0.043 C 
ATOM     33  C   UNL     1       4.129  -2.487  -5.595  0.00  0.00    +0.010 C 
ATOM     34  C   UNL     1       2.845  -2.989  -4.905  0.00  0.00    +0.037 C 
BRANCH  28  35
ATOM     35  C   UNL     1      -0.210  -2.337  -3.736  0.00  0.00    +0.244 C 
ATOM     36  O   UNL     1      -0.961  -2.385  -4.693  0.00  0.00    -0.270 OA
ATOM     37  N   UNL     1      -0.405  -3.158  -2.685  0.00  0.00    -0.325 N 
ATOM     38  H   UNL     1       0.194  -3.120  -1.923  0.00  0.00    +0.145 HD
ATOM     39  H   UNL     1      -1.143  -3.787  -2.691  0.00  0.00    +0.145 HD
ENDBRANCH  28  35
ENDBRANCH  25  27
ENDBRANCH  22  23
ENDBRANCH  21  22
ENDBRANCH  11  21
TORSDOF 8
