REMARK  Name = ZINC38650973
REMARK  6 active torsions:
REMARK  status: ('A' for Active; 'I' for Inactive)
REMARK    1  A    between atoms: C_5  and  C_7
REMARK    2  A    between atoms: C_12  and  O_21
REMARK    3  A    between atoms: C_16  and  N_20
REMARK    4  A    between atoms: C_17  and  C_18
REMARK    5  A    between atoms: O_21  and  C_22
REMARK    6  A    between atoms: C_22  and  C_24
REMARK                            x       y       z     vdW  Elec       q    Type
REMARK                         _______ _______ _______ _____ _____    ______ ____
ROOT
ATOM      1  C   UNL     1       1.264  -2.145  -0.059  0.00  0.00    +0.099 C 
ATOM      2  C   UNL     1       0.546  -2.658  -1.279  0.00  0.00    +0.008 A 
ATOM      3  C   UNL     1       1.136  -2.525  -2.523  0.00  0.00    +0.012 A 
ATOM      4  C   UNL     1       0.492  -2.989  -3.652  0.00  0.00    +0.047 A 
ATOM      5  C   UNL     1      -0.752  -3.593  -3.542  0.00  0.00    +0.135 A 
ATOM      6  C   UNL     1      -1.346  -3.729  -2.298  0.00  0.00    +0.093 A 
ATOM      7  C   UNL     1      -0.697  -3.260  -1.163  0.00  0.00    +0.138 A 
ATOM      8  O   UNL     1      -1.292  -3.400   0.048  0.00  0.00    -0.441 OA
ATOM      9  C   UNL     1      -0.556  -3.323   1.169  0.00  0.00    +0.199 C 
ATOM     10  C   UNL     1       0.662  -2.740   1.183  0.00  0.00    +0.098 C 
ENDROOT
BRANCH   1  15
ATOM     11  C   UNL     1      -0.215   1.323   0.125  0.00  0.00    +0.000 A 
ATOM     12  C   UNL     1       0.922   2.111   0.099  0.00  0.00    +0.001 A 
ATOM     13  C   UNL     1       2.169   1.521   0.021  0.00  0.00    +0.020 A 
ATOM     14  C   UNL     1       2.281   0.143  -0.030  0.00  0.00    +0.045 A 
ATOM     15  C   UNL     1       1.143  -0.644  -0.003  0.00  0.00    -0.016 A 
ATOM     16  C   UNL     1      -0.104  -0.053   0.074  0.00  0.00    +0.006 A 
ATOM     17 CL   UNL     1       3.848  -0.598  -0.128  0.00  0.00    -0.083 Cl
ENDBRANCH   1  15
BRANCH   9  18
ATOM     18  N   UNL     1      -1.058  -3.850   2.333  0.00  0.00    -0.328 N 
ATOM     19  H   UNL     1      -1.932  -4.271   2.337  0.00  0.00    +0.145 HD
ATOM     20  H   UNL     1      -0.538  -3.802   3.150  0.00  0.00    +0.145 HD
ENDBRANCH   9  18
BRANCH  10  21
ATOM     21  C   UNL     1       1.396  -2.689   2.412  0.00  0.00    +0.101 C 
ATOM     22  N   UNL     1       1.978  -2.649   3.387  0.00  0.00    -0.191 NA
ENDBRANCH  10  21
BRANCH   5  23
ATOM     23  O   UNL     1      -1.388  -4.050  -4.653  0.00  0.00    -0.422 OA
BRANCH  23  24
ATOM     24  C   UNL     1      -0.870  -5.124  -5.281  0.00  0.00    +0.344 C 
ATOM     25  O   UNL     1       0.073  -5.716  -4.795  0.00  0.00    -0.245 OA
BRANCH  24  26
ATOM     26  C   UNL     1      -1.448  -5.581  -6.560  0.00  0.00    +0.060 A 
ATOM     27  C   UNL     1      -2.528  -4.898  -7.125  0.00  0.00    +0.018 A 
ATOM     28  C   UNL     1      -3.064  -5.329  -8.319  0.00  0.00    +0.039 A 
ATOM     29  C   UNL     1      -2.532  -6.438  -8.961  0.00  0.00    +0.123 A 
ATOM     30  C   UNL     1      -1.460  -7.119  -8.405  0.00  0.00    +0.039 A 
ATOM     31  C   UNL     1      -0.912  -6.693  -7.214  0.00  0.00    +0.018 A 
ATOM     32  F   UNL     1      -3.061  -6.856 -10.132  0.00  0.00    -0.205 F 
ENDBRANCH  24  26
ENDBRANCH  23  24
ENDBRANCH   5  23
TORSDOF 6
