REMARK  Name = ZINC63571867
REMARK  7 active torsions:
REMARK  status: ('A' for Active; 'I' for Inactive)
REMARK    1  A    between atoms: C_1  and  C_2
REMARK    2  A    between atoms: C_2  and  O_3
REMARK    3  A    between atoms: O_3  and  C_4
REMARK    4  A    between atoms: C_4  and  C_6
REMARK    5  A    between atoms: C_9  and  C_12
REMARK    6  A    between atoms: C_12  and  N_13
REMARK    7  A    between atoms: C_29  and  C_31
REMARK                            x       y       z     vdW  Elec       q    Type
REMARK                         _______ _______ _______ _____ _____    ______ ____
ROOT
ATOM      1  N   UNL     1      -6.355  -6.087  -1.285  0.00  0.00    -0.299 N 
ATOM      2  C   UNL     1      -7.453  -6.866  -1.327  0.00  0.00    +0.303 C 
ATOM      3  O   UNL     1      -8.554  -6.375  -1.170  0.00  0.00    -0.253 OA
ATOM      4  N   UNL     1      -7.332  -8.191  -1.542  0.00  0.00    -0.276 N 
ATOM      5  C   UNL     1      -5.997  -8.795  -1.612  0.00  0.00    +0.114 C 
ATOM      6  C   UNL     1      -5.825  -9.504  -2.968  0.00  0.00    +0.052 C 
ATOM      7  C   UNL     1      -7.087 -10.297  -3.204  0.00  0.00    -0.035 C 
ATOM      8  C   UNL     1      -7.277 -11.573  -3.514  0.00  0.00    -0.001 A 
ATOM      9  C   UNL     1      -6.331 -12.652  -3.846  0.00  0.00    +0.010 A 
ATOM     10  C   UNL     1      -6.877 -13.871  -4.098  0.00  0.00    +0.001 A 
ATOM     11  C   UNL     1      -8.252 -14.122  -4.053  0.00  0.00    +0.002 A 
ATOM     12  C   UNL     1      -9.194 -13.189  -3.765  0.00  0.00    +0.026 A 
ATOM     13  C   UNL     1      -8.742 -11.865  -3.490  0.00  0.00    +0.043 A 
ATOM     14  N   UNL     1      -9.415 -10.788  -3.212  0.00  0.00    -0.375 N 
ATOM     15  C   UNL     1      -8.473  -9.675  -3.087  0.00  0.00    +0.131 C 
ATOM     16  C   UNL     1      -8.539  -9.017  -1.700  0.00  0.00    +0.134 C 
ATOM     17  H   UNL     1      -5.473  -6.488  -1.337  0.00  0.00    +0.150 HD
ATOM     18  H   UNL     1     -10.378 -10.731  -3.105  0.00  0.00    +0.160 HD
ENDROOT
BRANCH  16  19
ATOM     19  C   UNL     1      -8.575 -10.078  -0.630  0.00  0.00    -0.025 A 
ATOM     20  C   UNL     1      -9.661 -10.163   0.222  0.00  0.00    +0.008 A 
ATOM     21  C   UNL     1      -9.696 -11.135   1.203  0.00  0.00    +0.038 A 
ATOM     22  C   UNL     1      -8.642 -12.024   1.333  0.00  0.00    +0.123 A 
ATOM     23  C   UNL     1      -7.555 -11.938   0.480  0.00  0.00    +0.038 A 
ATOM     24  C   UNL     1      -7.525 -10.968  -0.504  0.00  0.00    +0.008 A 
ATOM     25  F   UNL     1      -8.675 -12.975   2.293  0.00  0.00    -0.205 F 
ENDBRANCH  16  19
BRANCH   1  26
ATOM     26  C   UNL     1      -6.492  -4.633  -1.162  0.00  0.00    +0.109 C 
BRANCH  26  30
ATOM     27  C   UNL     1      -3.114  -2.268   0.149  0.00  0.00    +0.098 C 
ATOM     28  C   UNL     1      -3.860  -1.823  -1.111  0.00  0.00    +0.015 C 
ATOM     29  C   UNL     1      -5.248  -2.467  -1.135  0.00  0.00    +0.006 C 
ATOM     30  C   UNL     1      -5.104  -3.990  -1.138  0.00  0.00    +0.006 C 
ATOM     31  C   UNL     1      -4.358  -4.434   0.121  0.00  0.00    +0.006 C 
ATOM     32  C   UNL     1      -2.970  -3.791   0.145  0.00  0.00    +0.015 C 
BRANCH  27  33
ATOM     33  C   UNL     1      -1.747  -1.634   0.172  0.00  0.00    +0.310 C 
ATOM     34  O   UNL     1      -0.759  -2.330   0.185  0.00  0.00    -0.251 OA
BRANCH  33  35
ATOM     35  O   UNL     1      -1.627  -0.297   0.179  0.00  0.00    -0.465 OA
BRANCH  35  37
ATOM     36  C   UNL     1      -0.365   1.764   0.206  0.00  0.00    +0.048 C 
ATOM     37  C   UNL     1      -0.301   0.235   0.202  0.00  0.00    +0.229 C 
ENDBRANCH  35  37
ENDBRANCH  33  35
ENDBRANCH  27  33
ENDBRANCH  26  30
ENDBRANCH   1  26
TORSDOF 6
