REMARK  Name = ZINC14480196
REMARK  7 active torsions:
REMARK  status: ('A' for Active; 'I' for Inactive)
REMARK    1  A    between atoms: C_1  and  C_2
REMARK    2  A    between atoms: C_6  and  C_8
REMARK    3  A    between atoms: C_19  and  O_24
REMARK    4  A    between atoms: O_24  and  C_25
REMARK    5  A    between atoms: C_25  and  C_26
REMARK    6  A    between atoms: C_26  and  O_27
REMARK    7  A    between atoms: O_27  and  C_28
REMARK                            x       y       z     vdW  Elec       q    Type
REMARK                         _______ _______ _______ _____ _____    ______ ____
ROOT
ATOM      1  C   UNL     1      -3.737   1.686   0.019  0.00  0.00    +0.105 C 
ATOM      2  C   UNL     1      -3.693   2.969  -0.791  0.00  0.00    +0.029 C 
ATOM      3  C   UNL     1      -4.950   3.848  -0.781  0.00  0.00    +0.033 C 
ATOM      4  C   UNL     1      -4.354   5.242  -0.986  0.00  0.00    -0.030 C 
ATOM      5  C   UNL     1      -3.100   5.268  -0.549  0.00  0.00    -0.023 C 
ATOM      6  C   UNL     1      -2.764   3.932   0.007  0.00  0.00    +0.049 C 
ATOM      7  C   UNL     1      -1.390   3.387  -0.049  0.00  0.00    -0.016 A 
ATOM      8  C   UNL     1      -0.276   4.196  -0.105  0.00  0.00    +0.051 A 
ATOM      9  C   UNL     1       0.993   3.637  -0.137  0.00  0.00    +0.121 A 
ATOM     10  C   UNL     1       1.141   2.258  -0.109  0.00  0.00    +0.047 A 
ATOM     11  C   UNL     1       0.029   1.443  -0.057  0.00  0.00    +0.027 A 
ATOM     12  C   UNL     1      -1.246   1.995  -0.039  0.00  0.00    +0.032 A 
ATOM     13  N   UNL     1      -2.361   1.144  -0.016  0.00  0.00    -0.336 N 
ATOM     14  H   UNL     1      -2.228   0.183  -0.028  0.00  0.00    +0.147 HD
ENDROOT
BRANCH   1  20
ATOM     15  C   UNL     1      -2.503   2.799   4.739  0.00  0.00    +0.044 C 
ATOM     16  C   UNL     1      -3.554   2.513   3.698  0.00  0.00    -0.050 A 
ATOM     17  C   UNL     1      -4.892   2.521   4.046  0.00  0.00    +0.003 A 
ATOM     18  C   UNL     1      -5.856   2.258   3.091  0.00  0.00    +0.001 A 
ATOM     19  C   UNL     1      -5.482   1.987   1.788  0.00  0.00    +0.005 A 
ATOM     20  C   UNL     1      -4.145   1.980   1.439  0.00  0.00    -0.027 A 
ATOM     21  C   UNL     1      -3.180   2.239   2.396  0.00  0.00    +0.008 A 
ENDBRANCH   1  20
BRANCH   9  22
ATOM     22  O   UNL     1       2.090   4.439  -0.196  0.00  0.00    -0.489 OA
BRANCH  22  23
ATOM     23  C   UNL     1       3.365   3.793  -0.225  0.00  0.00    +0.270 C 
BRANCH  23  24
ATOM     24  C   UNL     1       4.470   4.849  -0.290  0.00  0.00    +0.270 C 
BRANCH  24  25
ATOM     25  O   UNL     1       4.464   5.620   0.914  0.00  0.00    -0.489 OA
BRANCH  25  26
ATOM     26  C   UNL     1       5.391   6.608   1.019  0.00  0.00    +0.121 A 
ATOM     27  C   UNL     1       6.291   6.828  -0.014  0.00  0.00    +0.045 A 
ATOM     28  C   UNL     1       7.228   7.838   0.093  0.00  0.00    +0.004 A 
ATOM     29  C   UNL     1       7.277   8.620   1.232  0.00  0.00    +0.000 A 
ATOM     30  C   UNL     1       6.385   8.399   2.264  0.00  0.00    +0.004 A 
ATOM     31  C   UNL     1       5.442   7.394   2.160  0.00  0.00    +0.045 A 
ENDBRANCH  25  26
ENDBRANCH  24  25
ENDBRANCH  23  24
ENDBRANCH  22  23
ENDBRANCH   9  22
TORSDOF 6
