REMARK  Name = ZINC08901723
REMARK  10 active torsions:
REMARK  status: ('A' for Active; 'I' for Inactive)
REMARK    1  A    between atoms: C_1  and  C_2
REMARK    2  A    between atoms: C_2  and  C_3
REMARK    3  A    between atoms: C_6  and  O_27
REMARK    4  A    between atoms: C_7  and  S_9
REMARK    5  A    between atoms: S_9  and  N_12
REMARK    6  A    between atoms: N_12  and  C_13
REMARK    7  A    between atoms: C_13  and  C_14
REMARK    8  A    between atoms: C_14  and  C_16
REMARK    9  A    between atoms: C_14  and  N_58
REMARK   10  A    between atoms: O_27  and  C_28
REMARK                            x       y       z     vdW  Elec       q    Type
REMARK                         _______ _______ _______ _____ _____    ______ ____
ROOT
ATOM      1  N   UNL     1      -0.758   2.002  -1.003  0.00  0.00    -0.191 NA
ATOM      2  H   UNL     1      -1.693   1.757  -0.923  0.00  0.00    +0.148 HD
ENDROOT
BRANCH   1   3
ATOM      3  S   UNL     1      -0.217   2.766  -2.369  0.00  0.00    +0.062 S 
ATOM      4  O   UNL     1      -1.338   2.895  -3.234  0.00  0.00    -0.153 OA
ATOM      5  O   UNL     1       0.542   3.886  -1.934  0.00  0.00    -0.153 OA
BRANCH   3  10
ATOM      6  C   UNL     1       1.493   0.295  -5.036  0.00  0.00    -0.046 A 
ATOM      7  C   UNL     1       2.683  -0.046  -4.419  0.00  0.00    +0.007 A 
ATOM      8  C   UNL     1       2.990   0.470  -3.175  0.00  0.00    +0.048 A 
ATOM      9  C   UNL     1       2.106   1.336  -2.548  0.00  0.00    +0.146 A 
ATOM     10  C   UNL     1       0.911   1.672  -3.166  0.00  0.00    +0.147 A 
ATOM     11  C   UNL     1       0.608   1.153  -4.410  0.00  0.00    +0.036 A 
BRANCH   6  13
ATOM     12  C   UNL     1       1.696   0.665  -7.480  0.00  0.00    +0.009 C 
ATOM     13  C   UNL     1       1.161  -0.270  -6.394  0.00  0.00    +0.032 C 
ENDBRANCH   6  13
BRANCH   9  14
ATOM     14  O   UNL     1       2.409   1.850  -1.327  0.00  0.00    -0.493 OA
ATOM     15  C   UNL     1       3.657   1.460  -0.750  0.00  0.00    +0.277 C 
ENDBRANCH   9  14
ENDBRANCH   3  10
ENDBRANCH   1   3
BRANCH   1  16
ATOM     16  C   UNL     1       0.175   1.697   0.084  0.00  0.00    +0.095 C 
BRANCH  16  17
ATOM     17  C   UNL     1      -0.598   1.564   1.397  0.00  0.00    -0.021 C 
BRANCH  17  24
ATOM     18  C   UNL     1      -1.094   3.079   3.232  0.00  0.00    -0.078 C 
ATOM     19  C   UNL     1      -1.895   4.268   3.688  0.00  0.00    -0.019 C 
ATOM     20  C   UNL     1      -3.300   3.783   4.102  0.00  0.00    -0.002 C 
ATOM     21  C   UNL     1      -4.162   3.543   2.950  0.00  0.00    -0.002 C 
ATOM     22  C   UNL     1      -3.598   2.450   2.018  0.00  0.00    -0.019 C 
ATOM     23  C   UNL     1      -2.505   3.055   1.179  0.00  0.00    -0.078 C 
ATOM     24  N   UNL     1      -1.120   2.897   1.741  0.00  0.00    +0.385 N 
ATOM     25  H   UNL     1      -0.515   3.609   1.316  0.00  0.00    -0.081 HD
ENDBRANCH  17  24
BRANCH  17  26
ATOM     26  C   UNL     1       0.334   1.092   2.483  0.00  0.00    -0.053 A 
ATOM     27  C   UNL     1       0.110  -0.111   3.126  0.00  0.00    +0.009 A 
ATOM     28  C   UNL     1       0.971  -0.509   4.095  0.00  0.00    +0.045 A 
ATOM     29  S   UNL     1       2.137   0.843   4.131  0.00  0.00    -0.105 S 
ATOM     30  C   UNL     1       1.402   1.843   2.848  0.00  0.00    +0.047 A 
ENDBRANCH  17  26
ENDBRANCH  16  17
ENDBRANCH   1  16
TORSDOF 8
