REMARK  Name = ZINC39694873
REMARK  6 active torsions:
REMARK  status: ('A' for Active; 'I' for Inactive)
REMARK    1  A    between atoms: C_1  and  C_2
REMARK    2  A    between atoms: C_4  and  C_34
REMARK    3  A    between atoms: C_6  and  C_8
REMARK    4  A    between atoms: C_8  and  N_9
REMARK    5  A    between atoms: C_10  and  C_12
REMARK    6  A    between atoms: C_23  and  C_25
REMARK                            x       y       z     vdW  Elec       q    Type
REMARK                         _______ _______ _______ _____ _____    ______ ____
ROOT
ATOM      1  C   UNL     1       3.139  -3.972   4.467  0.00  0.00    +0.100 C 
ATOM      2  C   UNL     1       3.885  -2.627   4.618  0.00  0.00    +0.121 C 
ATOM      3  N   UNL     1       3.765  -2.291   6.056  0.00  0.00    -0.296 N 
ATOM      4  C   UNL     1       3.930  -3.590   6.753  0.00  0.00    +0.115 C 
ATOM      5  C   UNL     1       3.174  -4.602   5.869  0.00  0.00    -0.004 C 
ATOM      6  C   UNL     1       3.921  -5.932   5.832  0.00  0.00    -0.010 C 
ATOM      7  C   UNL     1       3.892  -6.567   7.225  0.00  0.00    -0.082 C 
ATOM      8  N   UNL     1       2.500  -6.777   7.641  0.00  0.00    +0.379 N 
ATOM      9  C   UNL     1       1.815  -5.484   7.764  0.00  0.00    -0.082 C 
ATOM     10  C   UNL     1       1.756  -4.803   6.394  0.00  0.00    -0.010 C 
ATOM     11  C   UNL     1       3.553  -1.079   6.607  0.00  0.00    +0.248 C 
ATOM     12  O   UNL     1       3.341  -0.116   5.894  0.00  0.00    -0.270 OA
ATOM     13  H   UNL     1       2.026  -7.343   6.953  0.00  0.00    -0.086 HD
ATOM     14  H   UNL     1       2.484  -7.250   8.531  0.00  0.00    -0.086 HD
ENDROOT
BRANCH  11  15
ATOM     15  C   UNL     1       3.580  -0.922   8.066  0.00  0.00    +0.052 A 
ATOM     16  C   UNL     1       4.428  -1.654   8.835  0.00  0.00    +0.059 A 
ATOM     17  S   UNL     1       4.133  -1.167  10.412  0.00  0.00    -0.096 S 
ATOM     18  C   UNL     1       2.864   0.038  10.137  0.00  0.00    +0.020 A 
ATOM     19  C   UNL     1       2.697   0.034   8.739  0.00  0.00    +0.001 A 
ATOM     20  C   UNL     1       1.738   0.913   8.201  0.00  0.00    +0.010 A 
ATOM     21  C   UNL     1       1.010   1.736   9.025  0.00  0.00    +0.001 A 
ATOM     22  C   UNL     1       1.197   1.724  10.399  0.00  0.00    +0.001 A 
ATOM     23  C   UNL     1       2.124   0.864  10.956  0.00  0.00    +0.015 A 
ENDBRANCH  11  15
BRANCH   1  25
ATOM     24  N   UNL     1       1.081  -4.653   3.276  0.00  0.00    -0.311 N 
ATOM     25  C   UNL     1       1.715  -3.736   4.033  0.00  0.00    +0.218 C 
ATOM     26  O   UNL     1       1.140  -2.721   4.365  0.00  0.00    -0.275 OA
ATOM     27  H   UNL     1       1.540  -5.465   3.011  0.00  0.00    +0.149 HD
BRANCH  24  28
ATOM     28  C   UNL     1      -0.304  -4.425   2.855  0.00  0.00    +0.139 C 
BRANCH  28  34
ATOM     29  C   UNL     1      -0.844  -6.636  -1.602  0.00  0.00    +0.044 C 
ATOM     30  C   UNL     1      -1.034  -6.649  -0.107  0.00  0.00    -0.050 A 
ATOM     31  C   UNL     1      -1.642  -7.730   0.503  0.00  0.00    +0.006 A 
ATOM     32  C   UNL     1      -1.817  -7.741   1.874  0.00  0.00    -0.050 A 
ATOM     33  C   UNL     1      -1.384  -6.672   2.635  0.00  0.00    +0.008 A 
ATOM     34  C   UNL     1      -0.775  -5.591   2.025  0.00  0.00    -0.030 A 
ATOM     35  C   UNL     1      -0.597  -5.582   0.654  0.00  0.00    +0.008 A 
ATOM     36  C   UNL     1      -2.481  -8.920   2.540  0.00  0.00    +0.044 C 
ENDBRANCH  28  34
ENDBRANCH  24  28
ENDBRANCH   1  25
TORSDOF 4
