REMARK  Name = ZINC43548026
REMARK  15 active torsions:
REMARK  status: ('A' for Active; 'I' for Inactive)
REMARK    1  A    between atoms: C_1  and  C_2
REMARK    2  A    between atoms: C_2  and  O_38
REMARK    3  A    between atoms: C_5  and  C_26
REMARK    4  A    between atoms: C_9  and  C_24
REMARK    5  A    between atoms: C_9  and  C_25
REMARK    6  A    between atoms: C_11  and  N_13
REMARK    7  A    between atoms: N_13  and  C_14
REMARK    8  A    between atoms: C_14  and  C_15
REMARK    9  A    between atoms: C_18  and  N_21
REMARK   10  A    between atoms: N_21  and  C_22
REMARK   11  A    between atoms: N_21  and  C_23
REMARK   12  A    between atoms: C_26  and  C_27
REMARK   13  A    between atoms: C_27  and  C_28
REMARK   14  A    between atoms: N_30  and  C_31
REMARK   15  A    between atoms: C_31  and  C_32
REMARK                            x       y       z     vdW  Elec       q    Type
REMARK                         _______ _______ _______ _____ _____    ______ ____
ROOT
ATOM      1  C   UNL     1      -0.056   1.523   0.001  0.00  0.00    +0.041 C 
ATOM      2  C   UNL     1      -0.021  -0.007  -0.002  0.00  0.00    +0.064 C 
ATOM      3  C   UNL     1      -1.451  -0.538  -0.032  0.00  0.00    +0.035 C 
ATOM      4  C   UNL     1      -1.485  -2.071   0.081  0.00  0.00    +0.008 C 
ATOM      5  C   UNL     1      -0.783  -2.443   1.374  0.00  0.00    -0.038 C 
ATOM      6  C   UNL     1       0.701  -2.011   1.225  0.00  0.00    +0.002 C 
ATOM      7  C   UNL     1       0.735  -0.496   1.244  0.00  0.00    +0.039 C 
ATOM      8  C   UNL     1       1.391  -2.723   2.385  0.00  0.00    -0.033 C 
ATOM      9  C   UNL     1       0.560  -4.007   2.629  0.00  0.00    -0.009 C 
ATOM     10  C   UNL     1      -0.643  -3.944   1.648  0.00  0.00    -0.064 C 
ATOM     11  C   UNL     1       1.379  -1.838   3.633  0.00  0.00    +0.011 C 
ATOM     12  C   UNL     1       2.828  -3.085   2.005  0.00  0.00    +0.011 C 
ENDROOT
BRANCH  10  13
ATOM     13  N   UNL     1      -0.342  -4.674   0.409  0.00  0.00    +0.384 N 
ATOM     14  H   UNL     1      -1.047  -4.467  -0.282  0.00  0.00    -0.085 HD
ATOM     15  H   UNL     1       0.563  -4.390   0.063  0.00  0.00    -0.085 HD
BRANCH  13  16
ATOM     16  C   UNL     1      -0.332  -6.117   0.681  0.00  0.00    -0.046 C 
BRANCH  16  17
ATOM     17  C   UNL     1      -0.023  -6.866  -0.590  0.00  0.00    -0.064 A 
ATOM     18  C   UNL     1      -1.052  -7.259  -1.426  0.00  0.00    +0.003 A 
ATOM     19  C   UNL     1      -0.772  -7.945  -2.592  0.00  0.00    +0.023 A 
ATOM     20  C   UNL     1       0.544  -8.239  -2.924  0.00  0.00    +0.029 A 
ATOM     21  C   UNL     1       1.575  -7.843  -2.082  0.00  0.00    +0.023 A 
ATOM     22  C   UNL     1       1.289  -7.152  -0.920  0.00  0.00    +0.003 A 
BRANCH  20  23
ATOM     23  N   UNL     1       0.830  -8.933  -4.102  0.00  0.00    -0.336 N 
ATOM     24  C   UNL     1      -0.246  -9.255  -5.043  0.00  0.00    +0.129 C 
ATOM     25  C   UNL     1       2.206  -9.340  -4.397  0.00  0.00    +0.129 C 
ENDBRANCH  20  23
ENDBRANCH  16  17
ENDBRANCH  13  16
ENDBRANCH  10  13
BRANCH   2  26
ATOM     26  O   UNL     1       0.666  -0.456  -1.172  0.00  0.00    -0.389 OA
ATOM     27  H   UNL     1       0.257  -0.174  -2.001  0.00  0.00    +0.210 HD
ENDBRANCH   2  26
BRANCH   5  28
ATOM     28  C   UNL     1      -1.447  -1.743   2.561  0.00  0.00    +0.015 C 
BRANCH  28  29
ATOM     29  C   UNL     1      -2.947  -2.045   2.556  0.00  0.00    +0.096 C 
BRANCH  29  30
ATOM     30  C   UNL     1      -3.602  -1.355   3.726  0.00  0.00    +0.213 C 
ATOM     31  O   UNL     1      -2.934  -0.689   4.488  0.00  0.00    -0.276 OA
ATOM     32  N   UNL     1      -4.929  -1.480   3.925  0.00  0.00    -0.311 N 
ATOM     33  H   UNL     1      -5.463  -2.014   3.315  0.00  0.00    +0.149 HD
BRANCH  32  34
ATOM     34  C   UNL     1      -5.565  -0.810   5.062  0.00  0.00    +0.141 C 
BRANCH  34  35
ATOM     35  C   UNL     1      -7.043  -1.107   5.057  0.00  0.00    -0.012 A 
ATOM     36  C   UNL     1      -7.923  -0.282   4.373  0.00  0.00    +0.008 A 
ATOM     37  C   UNL     1      -9.273  -0.595   4.397  0.00  0.00    +0.020 A 
ATOM     38  C   UNL     1      -9.695  -1.710   5.096  0.00  0.00    +0.111 A 
ATOM     39  N   UNL     1      -8.829  -2.471   5.736  0.00  0.00    -0.263 NA
ATOM     40  C   UNL     1      -7.537  -2.208   5.730  0.00  0.00    +0.115 A 
ENDBRANCH  34  35
ENDBRANCH  32  34
ENDBRANCH  29  30
ENDBRANCH  28  29
ENDBRANCH   5  28
TORSDOF 10
