REMARK  Name = ZINC63490810
REMARK  8 active torsions:
REMARK  status: ('A' for Active; 'I' for Inactive)
REMARK    1  A    between atoms: C_1  and  C_2
REMARK    2  A    between atoms: C_7  and  O_32
REMARK    3  A    between atoms: C_13  and  C_15
REMARK    4  A    between atoms: C_15  and  C_16
REMARK    5  A    between atoms: C_16  and  C_17
REMARK    6  A    between atoms: N_19  and  C_20
REMARK    7  A    between atoms: C_20  and  C_21
REMARK    8  A    between atoms: C_21  and  C_22
REMARK                            x       y       z     vdW  Elec       q    Type
REMARK                         _______ _______ _______ _____ _____    ______ ____
ROOT
ATOM      1  C   UNL     1       3.949   0.670   2.970  0.00  0.00    +0.213 C 
ATOM      2  O   UNL     1       4.283   1.498   2.149  0.00  0.00    -0.276 OA
ATOM      3  N   UNL     1       4.706   0.463   4.065  0.00  0.00    -0.315 N 
ATOM      4  H   UNL     1       4.438  -0.199   4.721  0.00  0.00    +0.149 HD
ENDROOT
BRANCH   1   5
ATOM      5  C   UNL     1       2.687  -0.127   2.764  0.00  0.00    +0.096 C 
BRANCH   5   6
ATOM      6  C   UNL     1       2.021   0.300   1.454  0.00  0.00    +0.024 C 
BRANCH   6  18
ATOM      7  C   UNL     1      -0.019   1.526   0.010  0.00  0.00    +0.013 C 
ATOM      8  C   UNL     1       0.002  -0.004   0.002  0.00  0.00    +0.033 C 
ATOM      9  C   UNL     1       0.705  -0.489  -1.241  0.00  0.00    -0.001 A 
ATOM     10  C   UNL     1       0.474   0.181  -2.433  0.00  0.00    +0.011 A 
ATOM     11  C   UNL     1       1.090  -0.230  -3.597  0.00  0.00    +0.046 A 
ATOM     12  C   UNL     1       1.945  -1.323  -3.580  0.00  0.00    +0.120 A 
ATOM     13  C   UNL     1       2.180  -1.994  -2.391  0.00  0.00    +0.092 A 
ATOM     14  C   UNL     1       1.562  -1.575  -1.218  0.00  0.00    +0.139 A 
ATOM     15  O   UNL     1       1.836  -2.249  -0.069  0.00  0.00    -0.425 OA
ATOM     16  C   UNL     1       1.083  -1.967   1.014  0.00  0.00    +0.316 C 
ATOM     17  O   UNL     1       0.701  -2.835   1.762  0.00  0.00    -0.250 OA
ATOM     18  C   UNL     1       0.740  -0.510   1.245  0.00  0.00    +0.106 C 
BRANCH  12  19
ATOM     19  O   UNL     1       2.550  -1.734  -4.725  0.00  0.00    -0.507 OA
ATOM     20  H   UNL     1       3.407  -1.316  -4.889  0.00  0.00    +0.292 HD
ENDBRANCH  12  19
ENDBRANCH   6  18
ENDBRANCH   5   6
ENDBRANCH   1   5
BRANCH   3  21
ATOM     21  C   UNL     1       5.933   1.238   4.265  0.00  0.00    +0.108 C 
BRANCH  21  22
ATOM     22  C   UNL     1       6.598   0.811   5.575  0.00  0.00    +0.052 C 
BRANCH  22  23
ATOM     23  C   UNL     1       7.860   1.609   5.780  0.00  0.00    -0.040 C 
ATOM     24  C   UNL     1       7.997   2.741   6.506  0.00  0.00    +0.000 A 
ATOM     25  C   UNL     1       7.048   3.540   7.291  0.00  0.00    +0.030 A 
ATOM     26  C   UNL     1       7.491   4.652   7.922  0.00  0.00    +0.042 A 
ATOM     27  C   UNL     1       8.831   5.060   7.844  0.00  0.00    +0.022 A 
ATOM     28  C   UNL     1       9.761   4.378   7.143  0.00  0.00    +0.027 A 
ATOM     29  C   UNL     1       9.406   3.193   6.441  0.00  0.00    +0.043 A 
ATOM     30  N   UNL     1      10.112   2.371   5.703  0.00  0.00    -0.380 N 
ATOM     31  C   UNL     1       9.232   1.300   5.222  0.00  0.00    +0.144 C 
ATOM     32 CL   UNL     1       6.372   5.600   8.851  0.00  0.00    -0.084 Cl
ATOM     33  H   UNL     1      11.059   2.454   5.511  0.00  0.00    +0.160 HD
ENDBRANCH  22  23
ENDBRANCH  21  22
ENDBRANCH   3  21
TORSDOF 7
