REMARK  Name = ZINC48828271
REMARK  10 active torsions:
REMARK  status: ('A' for Active; 'I' for Inactive)
REMARK    1  A    between atoms: C_1  and  C_2
REMARK    2  A    between atoms: N_6  and  C_8
REMARK    3  A    between atoms: C_8  and  C_9
REMARK    4  A    between atoms: C_14  and  C_15
REMARK    5  A    between atoms: C_15  and  N_16
REMARK    6  A    between atoms: N_19  and  C_20
REMARK    7  A    between atoms: C_20  and  C_21
REMARK    8  A    between atoms: C_26  and  N_27
REMARK    9  A    between atoms: N_27  and  C_28
REMARK   10  A    between atoms: N_27  and  C_29
REMARK                            x       y       z     vdW  Elec       q    Type
REMARK                         _______ _______ _______ _____ _____    ______ ____
ROOT
ATOM      1  N   UNL     1       4.648  -2.759   0.848  0.00  0.00    -0.295 N 
ATOM      2  C   UNL     1       5.715  -2.046   0.435  0.00  0.00    +0.300 C 
ATOM      3  O   UNL     1       5.841  -1.767  -0.741  0.00  0.00    -0.253 OA
ATOM      4  N   UNL     1       6.643  -1.644   1.327  0.00  0.00    -0.295 N 
ATOM      5  H   UNL     1       4.548  -2.982   1.787  0.00  0.00    +0.151 HD
ATOM      6  H   UNL     1       6.542  -1.867   2.265  0.00  0.00    +0.151 HD
ENDROOT
BRANCH   1   7
ATOM      7  C   UNL     1       3.640  -3.196  -0.121  0.00  0.00    +0.141 C 
BRANCH   7  13
ATOM      8  C   UNL     1       1.564  -3.295   1.273  0.00  0.00    -0.059 A 
ATOM      9  C   UNL     1       0.570  -4.003   1.922  0.00  0.00    +0.002 A 
ATOM     10  C   UNL     1       0.576  -5.385   1.895  0.00  0.00    +0.000 A 
ATOM     11  C   UNL     1       1.575  -6.059   1.218  0.00  0.00    +0.000 A 
ATOM     12  C   UNL     1       2.569  -5.351   0.569  0.00  0.00    +0.005 A 
ATOM     13  C   UNL     1       2.560  -3.969   0.592  0.00  0.00    -0.029 A 
BRANCH   8  14
ATOM     14  C   UNL     1       1.557  -1.788   1.302  0.00  0.00    -0.043 C 
BRANCH  14  20
ATOM     15  C   UNL     1       0.711   2.244  -1.341  0.00  0.00    +0.005 C 
ATOM     16  C   UNL     1       0.595   0.719  -1.320  0.00  0.00    -0.031 C 
ATOM     17  C   UNL     1      -0.871   0.314  -1.498  0.00  0.00    -0.001 C 
ATOM     18  C   UNL     1      -0.986  -1.209  -1.397  0.00  0.00    -0.018 C 
ATOM     19  C   UNL     1      -0.417  -1.670  -0.053  0.00  0.00    -0.078 C 
ATOM     20  N   UNL     1       0.994  -1.277   0.045  0.00  0.00    +0.383 N 
ATOM     21  C   UNL     1       1.106   0.187   0.021  0.00  0.00    -0.075 C 
ATOM     22  H   UNL     1       1.506  -1.665  -0.733  0.00  0.00    -0.081 HD
ENDBRANCH  14  20
ENDBRANCH   8  14
ENDBRANCH   7  13
ENDBRANCH   1   7
BRANCH   4  23
ATOM     23  C   UNL     1       7.802  -0.869   0.878  0.00  0.00    +0.144 C 
BRANCH  23  24
ATOM     24  C   UNL     1       8.679  -0.547   2.061  0.00  0.00    +0.008 A 
ATOM     25  C   UNL     1       8.655   0.714   2.629  0.00  0.00    +0.010 A 
ATOM     26  C   UNL     1       9.480   0.966   3.717  0.00  0.00    +0.018 A 
ATOM     27  C   UNL     1      10.294  -0.040   4.196  0.00  0.00    +0.084 A 
ATOM     28  N   UNL     1      10.296  -1.234   3.634  0.00  0.00    -0.349 N 
ATOM     29  C   UNL     1       9.520  -1.516   2.599  0.00  0.00    +0.103 A 
ATOM     30  H   UNL     1      10.878  -1.923   3.991  0.00  0.00    +0.167 HD
BRANCH  29  31
ATOM     31  N   UNL     1       9.550  -2.789   2.042  0.00  0.00    -0.323 N 
ATOM     32  C   UNL     1      10.441  -3.074   0.914  0.00  0.00    +0.130 C 
ATOM     33  C   UNL     1       8.691  -3.846   2.582  0.00  0.00    +0.130 C 
ENDBRANCH  29  31
ENDBRANCH  23  24
ENDBRANCH   4  23
TORSDOF 7
