REMARK  Name = ZINC12568583
REMARK  10 active torsions:
REMARK  status: ('A' for Active; 'I' for Inactive)
REMARK    1  A    between atoms: C_1  and  C_2
REMARK    2  A    between atoms: C_2  and  C_4
REMARK    3  A    between atoms: C_2  and  S_21
REMARK    4  A    between atoms: C_10  and  C_15
REMARK    5  A    between atoms: S_21  and  C_22
REMARK    6  A    between atoms: C_22  and  C_23
REMARK    7  A    between atoms: N_25  and  C_26
REMARK    8  A    between atoms: C_29  and  C_32
REMARK    9  A    between atoms: C_32  and  C_33
REMARK   10  A    between atoms: C_32  and  C_34
REMARK                            x       y       z     vdW  Elec       q    Type
REMARK                         _______ _______ _______ _____ _____    ______ ____
ROOT
ATOM      1  C   UNL     1      -0.036   1.514   0.015  0.00  0.00    +0.027 C 
ATOM      2  C   UNL     1      -0.005  -0.015   0.003  0.00  0.00    +0.110 C 
ENDROOT
BRANCH   2   3
ATOM      3  C   UNL     1       0.726  -0.512   1.223  0.00  0.00    +0.124 A 
ATOM      4  N   UNL     1       2.050  -0.799   1.137  0.00  0.00    -0.309 N 
ATOM      5  H   UNL     1       2.509  -0.680   0.291  0.00  0.00    +0.170 HD
ATOM      6  C   UNL     1       2.740  -1.244   2.204  0.00  0.00    +0.260 A 
ATOM      7  O   UNL     1       3.929  -1.497   2.110  0.00  0.00    -0.267 OA
ATOM      8  C   UNL     1       2.056  -1.418   3.449  0.00  0.00    +0.080 A 
ATOM      9  C   UNL     1       2.575  -1.881   4.730  0.00  0.00    +0.004 A 
ATOM     10  C   UNL     1       1.729  -1.964   5.785  0.00  0.00    +0.056 A 
ATOM     11  S   UNL     1       0.172  -1.420   5.108  0.00  0.00    -0.076 S 
ATOM     12  C   UNL     1       0.689  -1.097   3.442  0.00  0.00    +0.116 A 
ATOM     13  N   UNL     1       0.076  -0.655   2.347  0.00  0.00    -0.225 NA
BRANCH   9  14
ATOM     14  C   UNL     1       4.003  -2.253   4.877  0.00  0.00    -0.017 A 
ATOM     15  C   UNL     1       4.596  -3.124   3.964  0.00  0.00    +0.008 A 
ATOM     16  C   UNL     1       5.925  -3.467   4.104  0.00  0.00    +0.001 A 
ATOM     17  C   UNL     1       6.669  -2.948   5.149  0.00  0.00    +0.000 A 
ATOM     18  C   UNL     1       6.086  -2.083   6.058  0.00  0.00    +0.001 A 
ATOM     19  C   UNL     1       4.759  -1.729   5.924  0.00  0.00    +0.008 A 
ENDBRANCH   9  14
ENDBRANCH   2   3
BRANCH   2  20
ATOM     20  S   UNL     1       0.850  -0.591  -1.490  0.00  0.00    -0.141 S 
BRANCH  20  21
ATOM     21  C   UNL     1      -0.224  -0.047  -2.848  0.00  0.00    +0.165 C 
BRANCH  21  22
ATOM     22  C   UNL     1       0.379  -0.467  -4.164  0.00  0.00    +0.227 C 
ATOM     23  O   UNL     1       1.429  -1.074  -4.184  0.00  0.00    -0.275 OA
ATOM     24  N   UNL     1      -0.249  -0.169  -5.318  0.00  0.00    -0.285 N 
ATOM     25  H   UNL     1      -1.121   0.257  -5.300  0.00  0.00    +0.155 HD
BRANCH  24  26
ATOM     26  C   UNL     1       0.356  -0.472  -6.543  0.00  0.00    +0.033 A 
ATOM     27  C   UNL     1       0.190   0.375  -7.630  0.00  0.00    +0.023 A 
ATOM     28  C   UNL     1       0.788   0.072  -8.838  0.00  0.00    +0.006 A 
ATOM     29  C   UNL     1       1.552  -1.073  -8.964  0.00  0.00    -0.045 A 
ATOM     30  C   UNL     1       1.720  -1.919  -7.883  0.00  0.00    +0.006 A 
ATOM     31  C   UNL     1       1.129  -1.619  -6.671  0.00  0.00    +0.023 A 
BRANCH  29  32
ATOM     32  C   UNL     1       2.204  -1.401 -10.283  0.00  0.00    +0.013 C 
ATOM     33  C   UNL     1       3.721  -1.470 -10.098  0.00  0.00    +0.012 C 
ATOM     34  C   UNL     1       1.689  -2.751 -10.785  0.00  0.00    +0.012 C 
ENDBRANCH  29  32
ENDBRANCH  24  26
ENDBRANCH  21  22
ENDBRANCH  20  21
ENDBRANCH   2  20
TORSDOF 7
