REMARK  Name = ZINC39727166
REMARK  12 active torsions:
REMARK  status: ('A' for Active; 'I' for Inactive)
REMARK    1  A    between atoms: C_1  and  C_2
REMARK    2  A    between atoms: C_3  and  C_35
REMARK    3  A    between atoms: C_4  and  C_34
REMARK    4  A    between atoms: C_7  and  C_8
REMARK    5  A    between atoms: C_8  and  C_10
REMARK    6  A    between atoms: C_10  and  S_11
REMARK    7  A    between atoms: S_11  and  C_12
REMARK    8  A    between atoms: C_15  and  C_25
REMARK    9  A    between atoms: N_17  and  C_18
REMARK   10  A    between atoms: C_25  and  C_27
REMARK   11  A    between atoms: C_25  and  N_28
REMARK   12  A    between atoms: C_35  and  C_37
REMARK                            x       y       z     vdW  Elec       q    Type
REMARK                         _______ _______ _______ _____ _____    ______ ____
ROOT
ATOM      1  C   UNL     1       0.033  -1.892   6.376  0.00  0.00    +0.180 C 
ATOM      2  N   UNL     1       0.100  -3.136   6.042  0.00  0.00    -0.162 NA
ATOM      3  N   UNL     1       0.149  -3.968   7.167  0.00  0.00    -0.248 N 
ATOM      4  C   UNL     1       0.103  -3.076   8.339  0.00  0.00    +0.168 C 
ATOM      5  N   UNL     1       0.033  -1.726   7.754  0.00  0.00    -0.260 N 
ATOM      6  H   UNL     1       0.202  -4.936   7.174  0.00  0.00    +0.170 HD
ENDROOT
BRANCH   5   7
ATOM      7  C   UNL     1      -0.024  -0.515   8.451  0.00  0.00    +0.038 A 
ATOM      8  C   UNL     1       1.015   0.400   8.342  0.00  0.00    +0.026 A 
ATOM      9  C   UNL     1       0.956   1.595   9.031  0.00  0.00    +0.040 A 
ATOM     10  C   UNL     1      -0.139   1.882   9.829  0.00  0.00    +0.124 A 
ATOM     11  C   UNL     1      -1.176   0.972   9.939  0.00  0.00    +0.040 A 
ATOM     12  C   UNL     1      -1.124  -0.223   9.248  0.00  0.00    +0.026 A 
ATOM     13  F   UNL     1      -0.194   3.052  10.503  0.00  0.00    -0.205 F 
ENDBRANCH   5   7
BRANCH   4  14
ATOM     14  C   UNL     1       1.372  -3.229   9.180  0.00  0.00    -0.031 C 
ATOM     15  C   UNL     1       2.579  -2.740   8.377  0.00  0.00    -0.010 C 
BRANCH  14  16
ATOM     16  N   UNL     1       1.244  -2.433  10.408  0.00  0.00    +0.384 N 
ATOM     17  C   UNL     1       2.508  -2.481  11.154  0.00  0.00    -0.078 C 
ATOM     18  C   UNL     1       2.408  -1.587  12.392  0.00  0.00    -0.019 C 
ATOM     19  C   UNL     1       1.267  -2.086  13.284  0.00  0.00    -0.004 C 
ATOM     20  C   UNL     1      -0.032  -2.102  12.473  0.00  0.00    -0.019 C 
ATOM     21  C   UNL     1       0.158  -2.977  11.232  0.00  0.00    -0.078 C 
ATOM     22  H   UNL     1       1.035  -1.476  10.166  0.00  0.00    -0.081 HD
ENDBRANCH  14  16
ENDBRANCH   4  14
BRANCH   1  23
ATOM     23  S   UNL     1      -0.044  -0.562   5.223  0.00  0.00    -0.081 S 
BRANCH  23  24
ATOM     24  C   UNL     1      -0.012  -1.382   3.605  0.00  0.00    +0.158 C 
BRANCH  24  25
ATOM     25  C   UNL     1      -0.073  -0.344   2.514  0.00  0.00    +0.190 C 
ATOM     26  O   UNL     1      -0.132   0.834   2.800  0.00  0.00    -0.290 OA
BRANCH  25  33
ATOM     27  C   UNL     1      -0.190   1.602   0.095  0.00  0.00    +0.047 C 
ATOM     28  C   UNL     1      -0.112   0.097   0.066  0.00  0.00    -0.012 A 
ATOM     29  C   UNL     1      -0.070  -0.723  -1.085  0.00  0.00    +0.041 A 
ATOM     30  C   UNL     1      -0.001  -2.037  -0.647  0.00  0.00    +0.024 A 
ATOM     31  N   UNL     1       0.000  -2.043   0.693  0.00  0.00    -0.355 N 
ATOM     32  H   UNL     1       0.042  -2.835   1.251  0.00  0.00    +0.166 HD
ATOM     33  C   UNL     1      -0.061  -0.743   1.156  0.00  0.00    +0.087 A 
ATOM     34  C   UNL     1       0.062  -3.256  -1.530  0.00  0.00    +0.064 C 
BRANCH  29  35
ATOM     35  C   UNL     1      -0.095  -0.270  -2.479  0.00  0.00    +0.162 C 
ATOM     36  O   UNL     1      -1.146  -0.222  -3.083  0.00  0.00    -0.292 OA
ATOM     37  C   UNL     1       1.185   0.137  -3.163  0.00  0.00    +0.091 C 
ENDBRANCH  29  35
ENDBRANCH  25  33
ENDBRANCH  24  25
ENDBRANCH  23  24
ENDBRANCH   1  23
TORSDOF 8
