REMARK  Name = ZINC05826151
REMARK  13 active torsions:
REMARK  status: ('A' for Active; 'I' for Inactive)
REMARK    1  A    between atoms: C_1  and  C_2
REMARK    2  A    between atoms: C_2  and  C_3
REMARK    3  A    between atoms: C_3  and  C_4
REMARK    4  A    between atoms: C_4  and  N_56
REMARK    5  A    between atoms: C_5  and  N_56
REMARK    6  A    between atoms: C_6  and  C_7
REMARK    7  A    between atoms: C_6  and  N_56
REMARK    8  A    between atoms: C_8  and  O_28
REMARK    9  A    between atoms: C_15  and  C_16
REMARK   10  A    between atoms: C_18  and  O_24
REMARK   11  A    between atoms: C_21  and  O_22
REMARK   12  A    between atoms: O_22  and  C_23
REMARK   13  A    between atoms: O_24  and  C_25
REMARK                            x       y       z     vdW  Elec       q    Type
REMARK                         _______ _______ _______ _____ _____    ______ ____
ROOT
ATOM      1  C   UNL     1       2.100   0.411   0.273  0.00  0.00    +0.020 A 
ATOM      2  C   UNL     1       2.997  -0.328  -0.482  0.00  0.00    +0.122 A 
ATOM      3  C   UNL     1       4.357  -0.033  -0.455  0.00  0.00    +0.046 A 
ATOM      4  C   UNL     1       4.822   0.986   0.328  0.00  0.00    +0.019 A 
ATOM      5  C   UNL     1       3.931   1.734   1.098  0.00  0.00    +0.068 A 
ATOM      6  C   UNL     1       2.557   1.449   1.074  0.00  0.00    +0.144 A 
ATOM      7  O   UNL     1       1.901   2.300   1.893  0.00  0.00    -0.451 OA
ATOM      8  C   UNL     1       2.746   3.171   2.494  0.00  0.00    +0.176 C 
ATOM      9  C   UNL     1       2.400   4.149   3.371  0.00  0.00    +0.062 C 
ATOM     10  C   UNL     1       4.105   2.868   2.025  0.00  0.00    +0.231 C 
ATOM     11  O   UNL     1       5.143   3.427   2.332  0.00  0.00    -0.283 OA
ENDROOT
BRANCH   9  12
ATOM     12  C   UNL     1       0.985   4.411   3.656  0.00  0.00    +0.024 A 
ATOM     13  C   UNL     1       0.012   3.458   3.330  0.00  0.00    +0.057 A 
ATOM     14  C   UNL     1      -1.318   3.711   3.606  0.00  0.00    +0.121 A 
ATOM     15  C   UNL     1      -1.693   4.912   4.198  0.00  0.00    +0.049 A 
ATOM     16  C   UNL     1      -0.742   5.860   4.519  0.00  0.00    +0.050 A 
ATOM     17  C   UNL     1       0.597   5.622   4.254  0.00  0.00    +0.128 A 
BRANCH  17  18
ATOM     18  O   UNL     1       1.531   6.555   4.570  0.00  0.00    -0.495 OA
ATOM     19  C   UNL     1       1.063   7.762   5.175  0.00  0.00    +0.277 C 
ENDBRANCH  17  18
BRANCH  14  20
ATOM     20  O   UNL     1      -2.263   2.785   3.294  0.00  0.00    -0.495 OA
ATOM     21  C   UNL     1      -3.620   3.113   3.602  0.00  0.00    +0.277 C 
ENDBRANCH  14  20
ENDBRANCH   9  12
BRANCH   2  22
ATOM     22  O   UNL     1       2.545  -1.346  -1.258  0.00  0.00    -0.506 OA
ATOM     23  H   UNL     1       2.309  -1.080  -2.157  0.00  0.00    +0.292 HD
ENDBRANCH   2  22
BRANCH   1  24
ATOM     24  C   UNL     1       0.629   0.084   0.229  0.00  0.00    -0.036 C 
BRANCH  24  26
ATOM     25  C   UNL     1       0.016   2.299  -0.532  0.00  0.00    -0.096 C 
ATOM     26  N   UNL     1       0.001   0.858  -0.862  0.00  0.00    +0.381 N 
ATOM     27  H   UNL     1       0.534   0.708  -1.727  0.00  0.00    -0.082 HD
BRANCH  26  28
ATOM     28  C   UNL     1      -1.389   0.401  -1.070  0.00  0.00    -0.079 C 
BRANCH  28  29
ATOM     29  C   UNL     1      -1.939   1.055  -2.340  0.00  0.00    -0.019 C 
BRANCH  29  31
ATOM     30  C   UNL     1      -3.921   1.229  -3.851  0.00  0.00    +0.004 C 
ATOM     31  C   UNL     1      -3.371   0.575  -2.582  0.00  0.00    -0.005 C 
ENDBRANCH  29  31
ENDBRANCH  28  29
ENDBRANCH  26  28
ENDBRANCH  24  26
ENDBRANCH   1  24
TORSDOF 9
