REMARK  Name = ZINC16667476
REMARK  7 active torsions:
REMARK  status: ('A' for Active; 'I' for Inactive)
REMARK    1  A    between atoms: C_1  and  C_2
REMARK    2  A    between atoms: C_7  and  N_8
REMARK    3  A    between atoms: N_8  and  C_9
REMARK    4  A    between atoms: C_9  and  C_10
REMARK    5  A    between atoms: N_12  and  N_13
REMARK    6  A    between atoms: C_14  and  C_15
REMARK    7  A    between atoms: C_20  and  O_21
REMARK                            x       y       z     vdW  Elec       q    Type
REMARK                         _______ _______ _______ _____ _____    ______ ____
ROOT
ATOM      1  C   UNL     1       1.903   3.859   1.052  0.00  0.00    +0.249 C 
ATOM      2  O   UNL     1       3.010   3.364   1.060  0.00  0.00    -0.272 OA
ATOM      3  N   UNL     1       0.831   3.107   0.731  0.00  0.00    -0.206 N 
ATOM      4  H   UNL     1      -0.055   3.503   0.725  0.00  0.00    +0.177 HD
ENDROOT
BRANCH   3   5
ATOM      5  N   UNL     1       0.996   1.755   0.407  0.00  0.00    -0.188 NA
ATOM      6  C   UNL     1      -0.017   1.060  -0.013  0.00  0.00    +0.142 C 
BRANCH   6   7
ATOM      7  C   UNL     1      -1.277   1.736  -0.369  0.00  0.00    +0.038 A 
ATOM      8  C   UNL     1      -1.265   3.067  -0.791  0.00  0.00    +0.028 A 
ATOM      9  C   UNL     1      -2.449   3.694  -1.123  0.00  0.00    +0.020 A 
ATOM     10  C   UNL     1      -3.650   3.009  -1.039  0.00  0.00    +0.033 A 
ATOM     11  C   UNL     1      -3.674   1.690  -0.622  0.00  0.00    +0.056 A 
ATOM     12  C   UNL     1      -2.494   1.044  -0.291  0.00  0.00    +0.139 A 
ATOM     13  I   UNL     1      -5.497   0.666  -0.500  0.00  0.00    -0.040 I 
ATOM     14 BR   UNL     1      -2.432   5.497  -1.694  0.00  0.00    -0.050 Br
BRANCH  12  15
ATOM     15  O   UNL     1      -2.516  -0.253   0.113  0.00  0.00    -0.505 OA
ATOM     16  H   UNL     1      -2.542  -0.365   1.073  0.00  0.00    +0.292 HD
ENDBRANCH  12  15
ENDBRANCH   6   7
ENDBRANCH   3   5
BRANCH   1  17
ATOM     17  C   UNL     1       1.725   5.314   1.401  0.00  0.00    +0.199 C 
BRANCH  17  18
ATOM     18  N   UNL     1       3.030   5.905   1.709  0.00  0.00    -0.335 N 
ATOM     19  H   UNL     1       3.831   5.360   1.668  0.00  0.00    +0.147 HD
BRANCH  18  26
ATOM     20  C   UNL     1       5.603   6.970   2.292  0.00  0.00    +0.045 C 
ATOM     21  C   UNL     1       4.356   7.815   2.356  0.00  0.00    -0.030 A 
ATOM     22  C   UNL     1       4.442   9.149   2.705  0.00  0.00    +0.005 A 
ATOM     23  C   UNL     1       3.299   9.924   2.763  0.00  0.00    +0.000 A 
ATOM     24  C   UNL     1       2.066   9.368   2.472  0.00  0.00    +0.002 A 
ATOM     25  C   UNL     1       1.974   8.037   2.118  0.00  0.00    +0.023 A 
ATOM     26  C   UNL     1       3.120   7.253   2.063  0.00  0.00    +0.030 A 
ENDBRANCH  18  26
ENDBRANCH  17  18
ENDBRANCH   1  17
TORSDOF 6
