REMARK  Name = ZINC03430243
REMARK  16 active torsions:
REMARK  status: ('A' for Active; 'I' for Inactive)
REMARK    1  A    between atoms: C_1  and  C_2
REMARK    2  A    between atoms: C_2  and  O_3
REMARK    3  A    between atoms: O_3  and  C_4
REMARK    4  A    between atoms: C_4  and  C_6
REMARK    5  A    between atoms: C_10  and  N_11
REMARK    6  A    between atoms: C_12  and  C_14
REMARK    7  A    between atoms: C_14  and  C_16
REMARK    8  A    between atoms: C_14  and  N_17
REMARK    9  A    between atoms: N_17  and  C_18
REMARK   10  A    between atoms: N_17  and  C_19
REMARK   11  A    between atoms: C_19  and  C_20
REMARK   12  A    between atoms: C_23  and  C_26
REMARK   13  A    between atoms: C_26  and  C_27
REMARK   14  A    between atoms: C_26  and  C_28
REMARK   15  A    between atoms: C_26  and  C_29
REMARK   16  A    between atoms: C_31  and  C_35
REMARK                            x       y       z     vdW  Elec       q    Type
REMARK                         _______ _______ _______ _____ _____    ______ ____
ROOT
ATOM      1  N   UNL     1      -3.583  -2.916   2.348  0.00  0.00    -0.281 N 
ATOM      2  C   UNL     1      -3.996  -3.396   3.538  0.00  0.00    +0.204 C 
ATOM      3  O   UNL     1      -4.848  -4.258   3.581  0.00  0.00    -0.277 OA
ATOM      4  H   UNL     1      -2.902  -2.226   2.314  0.00  0.00    +0.155 HD
ENDROOT
BRANCH   1   9
ATOM      5  C   UNL     1      -3.833  -3.035  -0.128  0.00  0.00    +0.091 A 
ATOM      6  C   UNL     1      -4.552  -3.712  -1.194  0.00  0.00    -0.021 A 
ATOM      7  C   UNL     1      -5.441  -4.632  -0.762  0.00  0.00    -0.004 A 
ATOM      8  S   UNL     1      -5.315  -4.587   1.002  0.00  0.00    -0.077 S 
ATOM      9  C   UNL     1      -4.133  -3.407   1.174  0.00  0.00    +0.086 A 
ATOM     10  C   UNL     1      -6.331  -5.490  -1.608  0.00  0.00    +0.046 C 
ATOM     11  C   UNL     1      -6.355  -4.905  -3.028  0.00  0.00    -0.009 C 
ATOM     12  C   UNL     1      -4.917  -4.621  -3.472  0.00  0.00    +0.008 C 
ATOM     13  C   UNL     1      -4.351  -3.442  -2.677  0.00  0.00    +0.037 C 
ATOM     14  C   UNL     1      -7.000  -5.910  -3.985  0.00  0.00    +0.008 C 
BRANCH   5  15
ATOM     15  C   UNL     1      -2.831  -2.007  -0.417  0.00  0.00    +0.342 C 
ATOM     16  O   UNL     1      -1.666  -2.321  -0.576  0.00  0.00    -0.245 OA
BRANCH  15  17
ATOM     17  O   UNL     1      -3.199  -0.713  -0.507  0.00  0.00    -0.461 OA
BRANCH  17  19
ATOM     18  C   UNL     1      -2.772   1.641  -0.854  0.00  0.00    +0.048 C 
ATOM     19  C   UNL     1      -2.169   0.236  -0.791  0.00  0.00    +0.229 C 
ENDBRANCH  17  19
ENDBRANCH  15  17
ENDBRANCH   5  15
ENDBRANCH   1   9
BRANCH   2  20
ATOM     20  C   UNL     1      -3.399  -2.862   4.814  0.00  0.00    +0.016 C 
ATOM     21  C   UNL     1      -2.134  -3.653   5.155  0.00  0.00    -0.004 C 
BRANCH  20  22
ATOM     22  N   UNL     1      -4.372  -3.002   5.906  0.00  0.00    +0.388 N 
ATOM     23  C   UNL     1      -5.573  -2.215   5.595  0.00  0.00    -0.095 C 
ATOM     24  H   UNL     1      -4.625  -3.973   6.010  0.00  0.00    -0.081 HD
BRANCH  22  25
ATOM     25  C   UNL     1      -3.778  -2.514   7.157  0.00  0.00    -0.042 C 
BRANCH  25  26
ATOM     26  C   UNL     1      -4.729  -2.769   8.298  0.00  0.00    -0.064 A 
ATOM     27  C   UNL     1      -5.671  -1.817   8.639  0.00  0.00    +0.002 A 
ATOM     28  C   UNL     1      -6.543  -2.051   9.685  0.00  0.00    +0.004 A 
ATOM     29  C   UNL     1      -6.473  -3.238  10.391  0.00  0.00    -0.042 A 
ATOM     30  C   UNL     1      -5.531  -4.190  10.050  0.00  0.00    +0.004 A 
ATOM     31  C   UNL     1      -4.662  -3.958   9.001  0.00  0.00    +0.002 A 
BRANCH  29  32
ATOM     32  C   UNL     1      -7.423  -3.493  11.533  0.00  0.00    -0.013 C 
ATOM     33  C   UNL     1      -8.863  -3.454  11.017  0.00  0.00    +0.015 C 
ATOM     34  C   UNL     1      -7.135  -4.868  12.139  0.00  0.00    +0.015 C 
ATOM     35  C   UNL     1      -7.236  -2.415  12.602  0.00  0.00    +0.015 C 
ENDBRANCH  29  32
ENDBRANCH  25  26
ENDBRANCH  22  25
ENDBRANCH  20  22
ENDBRANCH   2  20
TORSDOF 9
