REMARK  Name = ZINC13285552
REMARK  8 active torsions:
REMARK  status: ('A' for Active; 'I' for Inactive)
REMARK    1  A    between atoms: C_1  and  C_2
REMARK    2  A    between atoms: C_2  and  C_3
REMARK    3  A    between atoms: C_3  and  O_4
REMARK    4  A    between atoms: O_4  and  C_5
REMARK    5  A    between atoms: C_7  and  C_21
REMARK    6  A    between atoms: C_12  and  C_16
REMARK    7  A    between atoms: C_12  and  C_17
REMARK    8  A    between atoms: C_19  and  C_20
REMARK                            x       y       z     vdW  Elec       q    Type
REMARK                         _______ _______ _______ _____ _____    ______ ____
ROOT
ATOM      1  C   UNL     1       1.307  -2.525  -2.326  0.00  0.00    +0.338 C 
ATOM      2  C   UNL     1       1.375  -3.901  -2.390  0.00  0.00    +0.069 C 
ATOM      3  C   UNL     1       1.949  -4.552  -3.614  0.00  0.00    +0.093 C 
ATOM      4  C   UNL     1       1.931  -6.054  -3.487  0.00  0.00    +0.028 C 
ATOM      5  C   UNL     1       1.442  -6.669  -2.359  0.00  0.00    +0.049 C 
ATOM      6  C   UNL     1       1.440  -8.176  -2.246  0.00  0.00    +0.062 C 
ATOM      7  C   UNL     1       1.284  -8.794  -3.636  0.00  0.00    -0.023 C 
ATOM      8  C   UNL     1       2.438  -8.309  -4.518  0.00  0.00    +0.086 C 
ATOM      9  C   UNL     1       2.426  -6.805  -4.557  0.00  0.00    +0.162 C 
ATOM     10  O   UNL     1       2.856  -6.231  -5.540  0.00  0.00    -0.292 OA
ATOM     11  C   UNL     1       1.327 -10.320  -3.528  0.00  0.00    +0.011 C 
ATOM     12  C   UNL     1      -0.049  -8.356  -4.246  0.00  0.00    +0.011 C 
ATOM     13  N   UNL     1       0.959  -5.968  -1.336  0.00  0.00    -0.256 NA
ATOM     14  C   UNL     1       0.919  -4.654  -1.321  0.00  0.00    +0.049 C 
ATOM     15  C   UNL     1       0.357  -3.949  -0.114  0.00  0.00    +0.066 C 
ATOM     16  O   UNL     1       1.858  -1.777  -3.302  0.00  0.00    -0.245 OA
ENDROOT
BRANCH   3  17
ATOM     17  C   UNL     1       3.371  -4.090  -3.800  0.00  0.00    -0.034 A 
ATOM     18  C   UNL     1       4.312  -4.337  -2.817  0.00  0.00    +0.004 A 
ATOM     19  C   UNL     1       5.617  -3.913  -2.987  0.00  0.00    +0.002 A 
ATOM     20  C   UNL     1       5.981  -3.241  -4.139  0.00  0.00    +0.020 A 
ATOM     21  C   UNL     1       5.040  -2.994  -5.122  0.00  0.00    +0.041 A 
ATOM     22  C   UNL     1       3.735  -3.424  -4.954  0.00  0.00    +0.024 A 
ATOM     23 CL   UNL     1       5.496  -2.151  -6.570  0.00  0.00    -0.084 Cl
ENDBRANCH   3  17
BRANCH   1  24
ATOM     24  O   UNL     1       0.689  -1.929  -1.288  0.00  0.00    -0.461 OA
BRANCH  24  25
ATOM     25  C   UNL     1       0.656  -0.500  -1.286  0.00  0.00    +0.232 C 
BRANCH  25  27
ATOM     26  C   UNL     1      -0.117   1.521  -0.037  0.00  0.00    +0.007 C 
ATOM     27  C   UNL     1      -0.081  -0.009  -0.039  0.00  0.00    +0.038 C 
ENDBRANCH  25  27
ENDBRANCH  24  25
ENDBRANCH   1  24
TORSDOF 4
