REMARK  Name = ZINC19204335
REMARK  14 active torsions:
REMARK  status: ('A' for Active; 'I' for Inactive)
REMARK    1  A    between atoms: C_1  and  C_2
REMARK    2  A    between atoms: C_2  and  C_3
REMARK    3  A    between atoms: C_3  and  N_4
REMARK    4  A    between atoms: N_4  and  S_5
REMARK    5  A    between atoms: S_5  and  C_8
REMARK    6  A    between atoms: C_17  and  N_18
REMARK    7  A    between atoms: C_19  and  C_21
REMARK    8  A    between atoms: C_21  and  C_23
REMARK    9  A    between atoms: C_21  and  N_26
REMARK   10  A    between atoms: C_23  and  C_24
REMARK   11  A    between atoms: C_23  and  C_25
REMARK   12  A    between atoms: C_27  and  O_29
REMARK   13  A    between atoms: O_29  and  C_30
REMARK   14  A    between atoms: C_30  and  C_31
REMARK                            x       y       z     vdW  Elec       q    Type
REMARK                         _______ _______ _______ _____ _____    ______ ____
ROOT
ATOM      1  N   UNL     1      -0.675   1.347   7.397  0.00  0.00    -0.283 N 
ATOM      2  C   UNL     1      -0.963   1.660   6.118  0.00  0.00    +0.238 C 
ATOM      3  O   UNL     1      -2.115   1.835   5.781  0.00  0.00    -0.273 OA
ATOM      4  H   UNL     1       0.359   1.105   7.684  0.00  0.00    +0.155 HD
ENDROOT
BRANCH   1  14
ATOM      5  C   UNL     1      -2.192   2.091  11.965  0.00  0.00    +0.113 A 
ATOM      6  C   UNL     1      -0.935   2.487  12.307  0.00  0.00    +0.029 A 
ATOM      7  C   UNL     1       0.091   2.510  11.365  0.00  0.00    +0.003 A 
ATOM      8  C   UNL     1      -0.135   2.138  10.075  0.00  0.00    +0.010 A 
ATOM      9  C   UNL     1      -1.417   1.724   9.685  0.00  0.00    +0.005 A 
ATOM     10  C   UNL     1      -2.462   1.699  10.642  0.00  0.00    +0.010 A 
ATOM     11  C   UNL     1      -3.747   1.285  10.254  0.00  0.00    +0.010 A 
ATOM     12  C   UNL     1      -3.980   0.912   8.965  0.00  0.00    +0.002 A 
ATOM     13  C   UNL     1      -2.964   0.936   8.015  0.00  0.00    +0.024 A 
ATOM     14  C   UNL     1      -1.688   1.331   8.357  0.00  0.00    +0.041 A 
BRANCH   5  15
ATOM     15  S   UNL     1      -3.474   2.070  13.174  0.00  0.00    +0.059 S 
ATOM     16  O   UNL     1      -2.881   2.472  14.401  0.00  0.00    -0.153 OA
ATOM     17  O   UNL     1      -4.582   2.752  12.603  0.00  0.00    -0.153 OA
BRANCH  15  18
ATOM     18  N   UNL     1      -3.938   0.492  13.367  0.00  0.00    -0.190 NA
ATOM     19  H   UNL     1      -4.908   0.164  12.964  0.00  0.00    +0.148 HD
BRANCH  18  20
ATOM     20  C   UNL     1      -2.980  -0.497  13.868  0.00  0.00    +0.105 C 
BRANCH  20  22
ATOM     21  C   UNL     1      -2.735  -2.769  14.879  0.00  0.00    +0.005 C 
ATOM     22  C   UNL     1      -3.735  -1.736  14.355  0.00  0.00    +0.013 C 
ENDBRANCH  20  22
ENDBRANCH  18  20
ENDBRANCH  15  18
ENDBRANCH   5  15
ENDBRANCH   1  14
BRANCH   2  23
ATOM     23  C   UNL     1       0.145   1.791   5.106  0.00  0.00    +0.165 C 
BRANCH  23  24
ATOM     24  N   UNL     1      -0.423   2.134   3.800  0.00  0.00    -0.270 N 
ATOM     25  C   UNL     1       0.245   1.822   2.671  0.00  0.00    +0.401 C 
ATOM     26  O   UNL     1       1.318   1.257   2.737  0.00  0.00    -0.226 OA
ATOM     27  H   UNL     1      -1.395   2.646   3.740  0.00  0.00    +0.153 HD
BRANCH  25  28
ATOM     28  O   UNL     1      -0.278   2.137   1.471  0.00  0.00    -0.446 OA
BRANCH  28  29
ATOM     29  C   UNL     1       0.496   1.772   0.298  0.00  0.00    +0.269 C 
BRANCH  29  30
ATOM     30  C   UNL     1      -0.241   2.200  -0.944  0.00  0.00    -0.010 A 
ATOM     31  C   UNL     1      -1.130   1.335  -1.553  0.00  0.00    +0.007 A 
ATOM     32  C   UNL     1      -1.810   1.730  -2.690  0.00  0.00    +0.000 A 
ATOM     33  C   UNL     1      -1.593   2.987  -3.224  0.00  0.00    +0.000 A 
ATOM     34  C   UNL     1      -0.699   3.850  -2.618  0.00  0.00    +0.000 A 
ATOM     35  C   UNL     1      -0.024   3.457  -1.478  0.00  0.00    +0.007 A 
ENDBRANCH  29  30
ENDBRANCH  28  29
ENDBRANCH  25  28
ENDBRANCH  23  24
BRANCH  23  36
ATOM     36  C   UNL     1       1.111   2.893   5.547  0.00  0.00    +0.012 C 
ATOM     37  C   UNL     1       2.236   3.027   4.519  0.00  0.00    +0.009 C 
ATOM     38  C   UNL     1       0.356   4.220   5.652  0.00  0.00    +0.009 C 
ENDBRANCH  23  36
ENDBRANCH   2  23
TORSDOF 11
