REMARK  Name = ZINC48235854
REMARK  10 active torsions:
REMARK  status: ('A' for Active; 'I' for Inactive)
REMARK    1  A    between atoms: C_1  and  C_2
REMARK    2  A    between atoms: N_6  and  C_30
REMARK    3  A    between atoms: C_9  and  C_29
REMARK    4  A    between atoms: C_10  and  C_11
REMARK    5  A    between atoms: C_11  and  C_12
REMARK    6  A    between atoms: C_12  and  C_13
REMARK    7  A    between atoms: N_15  and  C_16
REMARK    8  A    between atoms: C_25  and  C_28
REMARK    9  A    between atoms: C_30  and  C_31
REMARK   10  A    between atoms: C_30  and  C_32
REMARK                            x       y       z     vdW  Elec       q    Type
REMARK                         _______ _______ _______ _____ _____    ______ ____
ROOT
ATOM      1  C   UNL     1      -1.412   0.952   4.282  0.00  0.00    +0.218 C 
ATOM      2  O   UNL     1      -0.360   1.248   4.809  0.00  0.00    -0.275 OA
ATOM      3  N   UNL     1      -2.577   1.260   4.885  0.00  0.00    -0.285 N 
ATOM      4  H   UNL     1      -3.418   1.083   4.434  0.00  0.00    +0.155 HD
ENDROOT
BRANCH   3   5
ATOM      5  C   UNL     1      -2.575   1.836   6.162  0.00  0.00    +0.035 A 
ATOM      6  C   UNL     1      -1.573   2.728   6.519  0.00  0.00    +0.027 A 
ATOM      7  C   UNL     1      -1.567   3.300   7.778  0.00  0.00    +0.049 A 
ATOM      8  C   UNL     1      -2.561   2.981   8.686  0.00  0.00    +0.143 A 
ATOM      9  C   UNL     1      -3.568   2.084   8.332  0.00  0.00    +0.077 A 
ATOM     10  C   UNL     1      -3.578   1.518   7.068  0.00  0.00    +0.050 A 
ATOM     11  N   UNL     1      -4.567   1.771   9.264  0.00  0.00    -0.279 N 
ATOM     12  C   UNL     1      -4.721   2.562  10.349  0.00  0.00    +0.258 C 
ATOM     13  O   UNL     1      -5.559   2.293  11.183  0.00  0.00    -0.271 OA
ATOM     14  C   UNL     1      -3.848   3.779  10.517  0.00  0.00    +0.256 C 
ATOM     15  O   UNL     1      -2.568   3.537   9.928  0.00  0.00    -0.478 OA
ATOM     16  C   UNL     1      -4.506   4.977   9.829  0.00  0.00    +0.062 C 
ATOM     17  H   UNL     1      -5.138   0.999   9.133  0.00  0.00    +0.155 HD
ENDBRANCH   3   5
BRANCH   1  18
ATOM     18  C   UNL     1      -1.415   0.238   2.955  0.00  0.00    +0.101 C 
BRANCH  18  19
ATOM     19  C   UNL     1       0.026   0.009   2.495  0.00  0.00    +0.046 C 
BRANCH  19  29
ATOM     20  C   UNL     1      -0.007   1.520   0.017  0.00  0.00    +0.045 C 
ATOM     21  C   UNL     1       0.007   0.013   0.000  0.00  0.00    -0.033 A 
ATOM     22  C   UNL     1       0.011  -0.693  -1.209  0.00  0.00    +0.042 A 
ATOM     23  C   UNL     1       0.003  -0.305  -2.615  0.00  0.00    +0.144 A 
ATOM     24  N   UNL     1       0.012  -1.396  -3.326  0.00  0.00    -0.177 NA
ATOM     25  N   UNL     1       0.025  -2.515  -2.488  0.00  0.00    -0.244 N 
ATOM     26  C   UNL     1       0.024  -2.102  -1.184  0.00  0.00    +0.159 A 
ATOM     27  N   UNL     1       0.032  -2.743  -0.021  0.00  0.00    -0.232 NA
ATOM     28  C   UNL     1       0.028  -2.092   1.121  0.00  0.00    +0.044 A 
ATOM     29  C   UNL     1       0.022  -0.704   1.168  0.00  0.00    -0.022 A 
ATOM     30  C   UNL     1       0.038  -2.870   2.412  0.00  0.00    +0.066 C 
BRANCH  25  31
ATOM     31  C   UNL     1       0.036  -3.910  -2.937  0.00  0.00    +0.103 C 
ATOM     32  C   UNL     1      -1.212  -4.187  -3.777  0.00  0.00    +0.032 C 
ATOM     33  C   UNL     1       1.286  -4.163  -3.782  0.00  0.00    +0.032 C 
ENDBRANCH  25  31
ENDBRANCH  19  29
ENDBRANCH  18  19
ENDBRANCH   1  18
TORSDOF 5
