REMARK  Name = ZINC21122945
REMARK  6 active torsions:
REMARK  status: ('A' for Active; 'I' for Inactive)
REMARK    1  A    between atoms: C_4  and  N_7
REMARK    2  A    between atoms: C_11  and  S_12
REMARK    3  A    between atoms: S_12  and  C_13
REMARK    4  A    between atoms: C_13  and  C_14
REMARK    5  A    between atoms: N_16  and  C_17
REMARK    6  A    between atoms: C_20  and  N_24
REMARK                            x       y       z     vdW  Elec       q    Type
REMARK                         _______ _______ _______ _____ _____    ______ ____
ROOT
ATOM      1  S   UNL     1      -0.847   1.691   1.497  0.00  0.00    -0.078 S 
ENDROOT
BRANCH   1   6
ATOM      2  N   UNL     1       0.026   1.121   4.085  0.00  0.00    -0.291 N 
ATOM      3  C   UNL     1       1.050   0.428   4.678  0.00  0.00    +0.047 A 
ATOM      4  C   UNL     1       1.804  -0.094   3.690  0.00  0.00    +0.064 A 
ATOM      5  N   UNL     1       1.262   0.257   2.517  0.00  0.00    -0.226 NA
ATOM      6  C   UNL     1       0.194   0.993   2.735  0.00  0.00    +0.174 A 
ATOM      7  C   UNL     1       3.038  -0.931   3.924  0.00  0.00    +0.057 C 
ATOM      8  C   UNL     1       3.498  -0.723   5.372  0.00  0.00    +0.007 C 
ATOM      9  C   UNL     1       2.309  -0.916   6.318  0.00  0.00    +0.007 C 
ATOM     10  C   UNL     1       1.327   0.250   6.148  0.00  0.00    +0.056 C 
BRANCH   2  14
ATOM     11  C   UNL     1      -3.014   3.211   6.026  0.00  0.00    +0.000 A 
ATOM     12  C   UNL     1      -3.319   2.098   5.265  0.00  0.00    +0.002 A 
ATOM     13  C   UNL     1      -2.314   1.403   4.621  0.00  0.00    +0.026 A 
ATOM     14  C   UNL     1      -0.996   1.824   4.738  0.00  0.00    +0.049 A 
ATOM     15  C   UNL     1      -0.692   2.938   5.508  0.00  0.00    +0.026 A 
ATOM     16  C   UNL     1      -1.702   3.632   6.145  0.00  0.00    +0.002 A 
ENDBRANCH   2  14
ENDBRANCH   1   6
BRANCH   1  17
ATOM     17  C   UNL     1      -0.003   1.101   0.008  0.00  0.00    +0.173 C 
BRANCH  17  18
ATOM     18  C   UNL     1      -0.738   1.591  -1.213  0.00  0.00    +0.228 C 
ATOM     19  O   UNL     1      -1.735   2.271  -1.089  0.00  0.00    -0.275 OA
ATOM     20  N   UNL     1      -0.288   1.272  -2.443  0.00  0.00    -0.284 N 
ATOM     21  H   UNL     1       0.655   0.718  -2.557  0.00  0.00    +0.155 HD
BRANCH  20  22
ATOM     22  C   UNL     1      -1.022   1.647  -3.575  0.00  0.00    +0.052 A 
ATOM     23  C   UNL     1      -1.723   2.845  -3.585  0.00  0.00    +0.027 A 
ATOM     24  C   UNL     1      -2.445   3.212  -4.704  0.00  0.00    +0.034 A 
ATOM     25  C   UNL     1      -2.472   2.387  -5.813  0.00  0.00    +0.128 A 
ATOM     26  C   UNL     1      -1.776   1.192  -5.807  0.00  0.00    +0.054 A 
ATOM     27  C   UNL     1      -1.046   0.822  -4.693  0.00  0.00    +0.064 A 
ATOM     28 CL   UNL     1      -0.165  -0.674  -4.689  0.00  0.00    -0.082 Cl
BRANCH  25  29
ATOM     29  N   UNL     1      -3.247   2.783  -7.010  0.00  0.00    +0.056 N 
ATOM     30  O   UNL     1      -3.861   3.835  -7.017  0.00  0.00    -0.126 OA
ATOM     31  O   UNL     1      -3.272   2.058  -7.988  0.00  0.00    -0.126 OA
ENDBRANCH  25  29
ENDBRANCH  20  22
ENDBRANCH  17  18
ENDBRANCH   1  17
TORSDOF 6
