REMARK  Name = ZINC20796104
REMARK  5 active torsions:
REMARK  status: ('A' for Active; 'I' for Inactive)
REMARK    1  A    between atoms: C_1  and  C_2
REMARK    2  A    between atoms: C_6  and  C_8
REMARK    3  A    between atoms: C_18  and  S_20
REMARK    4  A    between atoms: S_20  and  C_21
REMARK    5  A    between atoms: C_21  and  C_22
REMARK                            x       y       z     vdW  Elec       q    Type
REMARK                         _______ _______ _______ _____ _____    ______ ____
ROOT
ATOM      1  C   UNL     1       6.062   3.219  -0.567  0.00  0.00    +0.032 C 
ATOM      2  C   UNL     1       5.546   1.891  -0.022  0.00  0.00    +0.065 C 
ATOM      3  C   UNL     1       4.043   1.851  -0.020  0.00  0.00    +0.058 A 
ATOM      4  C   UNL     1       3.278   3.039  -0.016  0.00  0.00    +0.057 A 
ATOM      5  C   UNL     1       1.895   2.959  -0.004  0.00  0.00    +0.129 A 
ATOM      6  N   UNL     1       1.319   1.740  -0.001  0.00  0.00    -0.202 N 
ATOM      7  C   UNL     1       2.090   0.610  -0.012  0.00  0.00    +0.254 A 
ATOM      8  N   UNL     1       3.427   0.690  -0.021  0.00  0.00    -0.215 NA
ATOM      9  N   UNL     1       1.264  -0.430  -0.011  0.00  0.00    -0.183 NA
ATOM     10  C   UNL     1       0.002  -0.004   0.002  0.00  0.00    +0.211 A 
ATOM     11  N   UNL     1      -0.016   1.313   0.009  0.00  0.00    -0.137 NA
ATOM     12  C   UNL     1       3.946   4.349  -0.028  0.00  0.00    +0.167 C 
ATOM     13  O   UNL     1       3.325   5.370  -0.234  0.00  0.00    -0.292 OA
ATOM     14  C   UNL     1       5.440   4.376   0.225  0.00  0.00    +0.088 C 
ENDROOT
BRANCH   1  20
ATOM     15  C   UNL     1      10.591   3.614  -2.661  0.00  0.00    +0.044 C 
ATOM     16  C   UNL     1       9.729   3.458  -1.434  0.00  0.00    -0.050 A 
ATOM     17  C   UNL     1      10.315   3.360  -0.186  0.00  0.00    +0.003 A 
ATOM     18  C   UNL     1       9.524   3.217   0.939  0.00  0.00    +0.001 A 
ATOM     19  C   UNL     1       8.148   3.176   0.816  0.00  0.00    +0.004 A 
ATOM     20  C   UNL     1       7.563   3.269  -0.433  0.00  0.00    -0.043 A 
ATOM     21  C   UNL     1       8.353   3.413  -1.558  0.00  0.00    +0.007 A 
ENDBRANCH   1  20
BRANCH  10  22
ATOM     22  S   UNL     1      -1.422  -1.041   0.009  0.00  0.00    -0.080 S 
BRANCH  22  23
ATOM     23  C   UNL     1      -0.741  -2.722  -0.006  0.00  0.00    +0.112 C 
BRANCH  23  24
ATOM     24  C   UNL     1      -1.869  -3.722  -0.002  0.00  0.00    -0.037 A 
ATOM     25  C   UNL     1      -2.372  -4.191   1.198  0.00  0.00    +0.005 A 
ATOM     26  C   UNL     1      -3.410  -5.103   1.202  0.00  0.00    +0.015 A 
ATOM     27  C   UNL     1      -3.938  -5.556   0.007  0.00  0.00    +0.018 A 
ATOM     28  C   UNL     1      -3.431  -5.090  -1.193  0.00  0.00    +0.015 A 
ATOM     29  C   UNL     1      -2.397  -4.173  -1.197  0.00  0.00    +0.005 A 
ATOM     30 BR   UNL     1      -5.354  -6.809   0.013  0.00  0.00    -0.050 Br
ENDBRANCH  23  24
ENDBRANCH  22  23
ENDBRANCH  10  22
TORSDOF 4
