REMARK  Name = ZINC62071778
REMARK  8 active torsions:
REMARK  status: ('A' for Active; 'I' for Inactive)
REMARK    1  A    between atoms: C_1  and  C_2
REMARK    2  A    between atoms: C_2  and  C_4
REMARK    3  A    between atoms: C_2  and  C_17
REMARK    4  A    between atoms: C_4  and  N_5
REMARK    5  A    between atoms: N_5  and  C_6
REMARK    6  A    between atoms: C_6  and  C_7
REMARK    7  A    between atoms: C_10  and  N_14
REMARK    8  A    between atoms: C_17  and  N_18
REMARK                            x       y       z     vdW  Elec       q    Type
REMARK                         _______ _______ _______ _____ _____    ______ ____
ROOT
ATOM      1  N   UNL     1      -2.083  -0.161   1.276  0.00  0.00    +0.382 N 
ATOM      2  H   UNL     1      -1.571  -0.560   2.049  0.00  0.00    -0.085 HD
ATOM      3  H   UNL     1      -2.095   0.844   1.365  0.00  0.00    -0.085 HD
ENDROOT
BRANCH   1   4
ATOM      4  C   UNL     1      -1.433  -0.534   0.013  0.00  0.00    -0.081 C 
BRANCH   4   6
ATOM      5  C   UNL     1      -0.019   1.526   0.010  0.00  0.00    +0.004 C 
ATOM      6  C   UNL     1       0.002  -0.004   0.002  0.00  0.00    -0.048 C 
BRANCH   6   7
ATOM      7  C   UNL     1       0.718  -0.497  -1.257  0.00  0.00    -0.078 C 
BRANCH   7   8
ATOM      8  N   UNL     1       2.129  -0.090  -1.209  0.00  0.00    +0.380 N 
ATOM      9  C   UNL     1       2.841  -0.833  -0.138  0.00  0.00    -0.079 C 
ATOM     10  C   UNL     1       4.326  -0.741  -0.570  0.00  0.00    -0.020 C 
ATOM     11  C   UNL     1       4.247  -0.865  -2.109  0.00  0.00    -0.020 C 
ATOM     12  C   UNL     1       2.808  -0.454  -2.472  0.00  0.00    -0.079 C 
ATOM     13  H   UNL     1       2.199   0.904  -1.050  0.00  0.00    -0.082 HD
ENDBRANCH   7   8
ENDBRANCH   6   7
ENDBRANCH   4   6
ENDBRANCH   1   4
BRANCH   1  14
ATOM     14  C   UNL     1      -3.461  -0.669   1.287  0.00  0.00    -0.046 C 
BRANCH  14  15
ATOM     15  C   UNL     1      -4.128  -0.287   2.583  0.00  0.00    -0.050 A 
ATOM     16  C   UNL     1      -4.229  -1.210   3.607  0.00  0.00    +0.005 A 
ATOM     17  C   UNL     1      -4.840  -0.859   4.796  0.00  0.00    +0.033 A 
ATOM     18  C   UNL     1      -5.351   0.415   4.962  0.00  0.00    +0.127 A 
ATOM     19  C   UNL     1      -5.251   1.339   3.938  0.00  0.00    +0.048 A 
ATOM     20  C   UNL     1      -4.635   0.990   2.750  0.00  0.00    +0.021 A 
ATOM     21 BR   UNL     1      -4.491   2.255   1.352  0.00  0.00    -0.050 Br
BRANCH  18  22
ATOM     22  N   UNL     1      -6.006   0.790   6.235  0.00  0.00    +0.056 N 
ATOM     23  O   UNL     1      -6.093  -0.017   7.130  0.00  0.00    -0.126 OA
ATOM     24  O   UNL     1      -6.452   1.904   6.380  0.00  0.00    -0.126 OA
ENDBRANCH  18  22
ENDBRANCH  14  15
ENDBRANCH   1  14
TORSDOF 7
