REMARK  Name = ZINC19995453
REMARK  3 active torsions:
REMARK  status: ('A' for Active; 'I' for Inactive)
REMARK    1  A    between atoms: C_2  and  N_19
REMARK    2  A    between atoms: C_6  and  S_7
REMARK    3  A    between atoms: S_7  and  N_10
REMARK                            x       y       z     vdW  Elec       q    Type
REMARK                         _______ _______ _______ _____ _____    ______ ____
ROOT
ATOM      1  C   UNL     1      -0.909   7.646   0.907  0.00  0.00    +0.057 A 
ATOM      2  C   UNL     1      -0.390   8.726   1.607  0.00  0.00    +0.062 A 
ATOM      3  C   UNL     1       0.034   8.560   2.921  0.00  0.00    +0.147 A 
ATOM      4  C   UNL     1      -0.068   7.321   3.528  0.00  0.00    +0.080 A 
ATOM      5  C   UNL     1      -0.590   6.247   2.827  0.00  0.00    +0.152 A 
ATOM      6  C   UNL     1      -1.013   6.412   1.519  0.00  0.00    +0.142 A 
ATOM      7  F   UNL     1      -0.689   5.038   3.421  0.00  0.00    -0.203 F 
ATOM      8  F   UNL     1       0.544   9.608   3.605  0.00  0.00    -0.203 F 
ENDROOT
BRANCH   6   9
ATOM      9  S   UNL     1      -1.678   5.043   0.631  0.00  0.00    +0.064 S 
ATOM     10  O   UNL     1      -1.991   5.517  -0.672  0.00  0.00    -0.153 OA
ATOM     11  O   UNL     1      -2.649   4.443   1.477  0.00  0.00    -0.153 OA
BRANCH   9  12
ATOM     12  N   UNL     1      -0.458   3.936   0.451  0.00  0.00    -0.176 NA
ATOM     13  C   UNL     1      -0.319   2.792   1.413  0.00  0.00    +0.109 C 
ATOM     14  C   UNL     1      -0.680   1.569   0.701  0.00  0.00    +0.017 C 
ATOM     15  C   UNL     1       0.161   1.293  -0.541  0.00  0.00    +0.001 C 
ATOM     16  C   UNL     1      -0.549   1.983  -1.669  0.00  0.00    +0.001 C 
ATOM     17  C   UNL     1       0.086   3.366  -1.955  0.00  0.00    +0.017 C 
ATOM     18  C   UNL     1       0.482   4.056  -0.625  0.00  0.00    +0.109 C 
ENDBRANCH   9  12
ENDBRANCH   6   9
BRANCH   2  19
ATOM     19  N   UNL     1      -0.289   9.979   0.991  0.00  0.00    -0.356 N 
ATOM     20  H   UNL     1       0.122  10.834   1.547  0.00  0.00    +0.142 HD
ATOM     21  H   UNL     1      -0.621  10.108  -0.050  0.00  0.00    +0.142 HD
ENDBRANCH   2  19
TORSDOF 3
