REMARK  Name = ZINC36561970
REMARK  17 active torsions:
REMARK  status: ('A' for Active; 'I' for Inactive)
REMARK    1  A    between atoms: C_1  and  C_2
REMARK    2  A    between atoms: C_2  and  C_3
REMARK    3  A    between atoms: C_3  and  C_4
REMARK    4  A    between atoms: C_4  and  N_5
REMARK    5  A    between atoms: C_6  and  C_8
REMARK    6  A    between atoms: C_8  and  C_10
REMARK    7  A    between atoms: C_8  and  N_19
REMARK    8  A    between atoms: C_11  and  O_18
REMARK    9  A    between atoms: C_13  and  O_17
REMARK   10  A    between atoms: C_15  and  O_16
REMARK   11  A    between atoms: N_19  and  C_20
REMARK   12  A    between atoms: C_20  and  C_21
REMARK   13  A    between atoms: C_21  and  C_22
REMARK   14  A    between atoms: C_23  and  C_25
REMARK   15  A    between atoms: C_33  and  C_35
REMARK   16  A    between atoms: C_36  and  C_37
REMARK   17  A    between atoms: C_36  and  C_38
REMARK                            x       y       z     vdW  Elec       q    Type
REMARK                         _______ _______ _______ _____ _____    ______ ____
ROOT
ATOM      1  C   UNL     1       2.972  -4.105   4.562  0.00  0.00    +0.199 C 
ENDROOT
BRANCH   1   2
ATOM      2  C   UNL     1       4.330  -3.756   5.113  0.00  0.00    +0.065 A 
ATOM      3  C   UNL     1       5.124  -2.822   4.462  0.00  0.00    +0.129 A 
ATOM      4  C   UNL     1       6.374  -2.501   4.969  0.00  0.00    +0.091 A 
ATOM      5  C   UNL     1       6.830  -3.113   6.127  0.00  0.00    +0.124 A 
ATOM      6  C   UNL     1       6.037  -4.045   6.778  0.00  0.00    +0.091 A 
ATOM      7  C   UNL     1       4.785  -4.363   6.274  0.00  0.00    +0.129 A 
BRANCH   7   8
ATOM      8  O   UNL     1       4.005  -5.273   6.914  0.00  0.00    -0.506 OA
ATOM      9  H   UNL     1       4.200  -6.191   6.681  0.00  0.00    +0.292 HD
ENDBRANCH   7   8
BRANCH   5  10
ATOM     10  O   UNL     1       8.056  -2.799   6.624  0.00  0.00    -0.507 OA
ATOM     11  H   UNL     1       8.049  -2.062   7.251  0.00  0.00    +0.292 HD
ENDBRANCH   5  10
BRANCH   3  12
ATOM     12  O   UNL     1       4.676  -2.223   3.328  0.00  0.00    -0.506 OA
ATOM     13  H   UNL     1       4.113  -1.453   3.485  0.00  0.00    +0.292 HD
ENDBRANCH   3  12
ENDBRANCH   1   2
BRANCH   1  15
ATOM     14  N   UNL     1       2.378  -2.202   3.097  0.00  0.00    -0.313 N 
ATOM     15  C   UNL     1       2.805  -3.476   3.202  0.00  0.00    +0.238 C 
ATOM     16  O   UNL     1       3.054  -4.117   2.203  0.00  0.00    -0.273 OA
ATOM     17  H   UNL     1       2.117  -1.711   3.891  0.00  0.00    +0.149 HD
BRANCH  14  18
ATOM     18  C   UNL     1       2.308  -1.560   1.782  0.00  0.00    +0.104 C 
BRANCH  18  19
ATOM     19  C   UNL     1       1.796  -0.127   1.941  0.00  0.00    +0.018 C 
BRANCH  19  21
ATOM     20  C   UNL     1       1.211   1.977   0.728  0.00  0.00    +0.004 C 
ATOM     21  C   UNL     1       1.723   0.544   0.568  0.00  0.00    -0.002 C 
ENDBRANCH  19  21
ENDBRANCH  18  19
ENDBRANCH  14  18
ENDBRANCH   1  15
BRANCH   1  22
ATOM     22  N   UNL     1       2.852  -5.560   4.445  0.00  0.00    -0.285 N 
ATOM     23  C   UNL     1       1.873  -6.210   5.106  0.00  0.00    +0.220 C 
ATOM     24  O   UNL     1       1.036  -5.584   5.719  0.00  0.00    -0.275 OA
BRANCH  23  25
ATOM     25  C   UNL     1       1.821  -7.728   5.083  0.00  0.00    +0.079 C 
ATOM     26  C   UNL     1       1.095  -8.172   3.817  0.00  0.00    +0.017 C 
ATOM     27  C   UNL     1       0.221  -9.405   4.039  0.00  0.00    -0.004 C 
ATOM     28  C   UNL     1      -0.851  -9.141   5.120  0.00  0.00    +0.008 C 
ATOM     29  C   UNL     1       0.294  -9.469   6.112  0.00  0.00    -0.001 C 
ATOM     30  C   UNL     1       1.131  -8.214   6.351  0.00  0.00    +0.001 C 
ATOM     31  C   UNL     1       2.155  -8.449   7.466  0.00  0.00    +0.008 C 
ATOM     32  C   UNL     1       0.809 -10.419   5.028  0.00  0.00    -0.029 C 
ATOM     33  C   UNL     1       2.317 -10.625   4.945  0.00  0.00    +0.011 C 
ATOM     34  C   UNL     1       0.071 -11.773   5.011  0.00  0.00    +0.011 C 
ENDBRANCH  23  25
BRANCH  22  35
ATOM     35  C   UNL     1       3.794  -6.309   3.610  0.00  0.00    +0.108 C 
BRANCH  35  36
ATOM     36  C   UNL     1       4.938  -6.836   4.479  0.00  0.00    +0.016 C 
ATOM     37  C   UNL     1       5.963  -7.549   3.595  0.00  0.00    +0.005 C 
ENDBRANCH  35  36
ENDBRANCH  22  35
ENDBRANCH   1  22
TORSDOF 12
