REMARK  Name = ZINC18198674
REMARK  5 active torsions:
REMARK  status: ('A' for Active; 'I' for Inactive)
REMARK    1  A    between atoms: C_1  and  C_2
REMARK    2  A    between atoms: C_5  and  C_8
REMARK    3  A    between atoms: C_21  and  S_23
REMARK    4  A    between atoms: S_23  and  C_24
REMARK    5  A    between atoms: C_24  and  C_25
REMARK                            x       y       z     vdW  Elec       q    Type
REMARK                         _______ _______ _______ _____ _____    ______ ____
ROOT
ATOM      1  C   UNL     1      -0.018   1.453   0.010  0.00  0.00    +0.175 C 
ATOM      2  C   UNL     1       1.397   1.991  -0.001  0.00  0.00    +0.041 C 
ATOM      3  C   UNL     1       2.459   1.208  -0.285  0.00  0.00    +0.020 C 
ATOM      4  C   UNL     1       3.861   1.772  -0.282  0.00  0.00    +0.052 C 
ATOM      5  C   UNL     1       3.824   3.245  -0.692  0.00  0.00    +0.014 C 
ATOM      6  C   UNL     1       2.923   3.997   0.294  0.00  0.00    +0.080 C 
ATOM      7  C   UNL     1       1.564   3.355   0.300  0.00  0.00    +0.163 C 
ATOM      8  O   UNL     1       0.590   4.028   0.570  0.00  0.00    -0.292 OA
ATOM      9  N   UNL     1       2.317  -0.127  -0.581  0.00  0.00    -0.287 N 
ATOM     10  C   UNL     1       1.108  -0.734  -0.284  0.00  0.00    +0.219 A 
ATOM     11  N   UNL     1       0.002  -0.004   0.002  0.00  0.00    -0.220 N 
ATOM     12  N   UNL     1      -1.021  -0.915   0.261  0.00  0.00    -0.141 NA
ATOM     13  C   UNL     1      -0.503  -2.116   0.119  0.00  0.00    +0.211 A 
ATOM     14  N   UNL     1       0.791  -1.998  -0.213  0.00  0.00    -0.187 NA
ATOM     15  H   UNL     1       3.042  -0.628  -0.986  0.00  0.00    +0.155 HD
ENDROOT
BRANCH   1  20
ATOM     16  C   UNL     1      -2.828   3.359  -4.666  0.00  0.00    +0.044 C 
ATOM     17  C   UNL     1      -2.095   2.862  -3.447  0.00  0.00    -0.050 A 
ATOM     18  C   UNL     1      -2.556   3.184  -2.184  0.00  0.00    +0.004 A 
ATOM     19  C   UNL     1      -1.884   2.728  -1.065  0.00  0.00    +0.006 A 
ATOM     20  C   UNL     1      -0.751   1.950  -1.209  0.00  0.00    -0.018 A 
ATOM     21  C   UNL     1      -0.286   1.633  -2.472  0.00  0.00    +0.006 A 
ATOM     22  C   UNL     1      -0.961   2.084  -3.591  0.00  0.00    +0.004 A 
ENDBRANCH   1  20
BRANCH  13  23
ATOM     23  S   UNL     1      -1.369  -3.636   0.331  0.00  0.00    -0.078 S 
BRANCH  23  24
ATOM     24  C   UNL     1      -0.117  -4.905  -0.001  0.00  0.00    +0.132 C 
BRANCH  24  25
ATOM     25  C   UNL     1      -0.735  -6.272   0.148  0.00  0.00    +0.051 A 
ATOM     26  C   UNL     1      -1.315  -6.883  -0.948  0.00  0.00    +0.024 A 
ATOM     27  C   UNL     1      -1.880  -8.140  -0.800  0.00  0.00    +0.003 A 
ATOM     28  C   UNL     1      -1.841  -8.738   0.450  0.00  0.00    +0.020 A 
ATOM     29  C   UNL     1      -1.244  -8.066   1.500  0.00  0.00    +0.111 A 
ATOM     30  N   UNL     1      -0.711  -6.873   1.321  0.00  0.00    -0.259 NA
ENDBRANCH  24  25
ENDBRANCH  23  24
ENDBRANCH  13  23
TORSDOF 4
