REMARK  Name = ZINC13609501
REMARK  9 active torsions:
REMARK  status: ('A' for Active; 'I' for Inactive)
REMARK    1  A    between atoms: C_1  and  C_2
REMARK    2  A    between atoms: C_6  and  O_30
REMARK    3  A    between atoms: C_12  and  C_13
REMARK    4  A    between atoms: C_13  and  C_14
REMARK    5  A    between atoms: N_16  and  C_17
REMARK    6  A    between atoms: C_17  and  C_18
REMARK    7  A    between atoms: C_18  and  C_19
REMARK    8  A    between atoms: O_30  and  C_31
REMARK    9  A    between atoms: C_31  and  C_33
REMARK                            x       y       z     vdW  Elec       q    Type
REMARK                         _______ _______ _______ _____ _____    ______ ____
ROOT
ATOM      1  C   UNL     1      -6.477  -3.909   0.109  0.00  0.00    +0.138 C 
ENDROOT
BRANCH   1  13
ATOM      2  C   UNL     1      -6.994  -1.070  -0.001  0.00  0.00    +0.045 C 
ATOM      3  C   UNL     1      -5.582  -1.593   0.046  0.00  0.00    -0.029 A 
ATOM      4  C   UNL     1      -4.439  -0.676   0.038  0.00  0.00    +0.022 A 
ATOM      5  C   UNL     1      -4.628   0.709  -0.014  0.00  0.00    +0.035 A 
ATOM      6  C   UNL     1      -3.545   1.542  -0.020  0.00  0.00    +0.084 A 
ATOM      7  C   UNL     1      -2.253   1.019   0.025  0.00  0.00    +0.153 A 
ATOM      8  C   UNL     1      -2.049  -0.349   0.071  0.00  0.00    +0.094 A 
ATOM      9  C   UNL     1      -3.138  -1.209   0.084  0.00  0.00    +0.143 A 
ATOM     10  O   UNL     1      -2.960  -2.547   0.135  0.00  0.00    -0.422 OA
ATOM     11  C   UNL     1      -4.003  -3.392   0.143  0.00  0.00    +0.341 A 
ATOM     12  O   UNL     1      -3.794  -4.591   0.189  0.00  0.00    -0.245 OA
ATOM     13  C   UNL     1      -5.333  -2.927   0.099  0.00  0.00    +0.049 A 
ATOM     14 CL   UNL     1      -3.779   3.261  -0.085  0.00  0.00    -0.080 Cl
BRANCH   7  15
ATOM     15  O   UNL     1      -1.186   1.860   0.018  0.00  0.00    -0.424 OA
BRANCH  15  16
ATOM     16  C   UNL     1      -0.781   2.340   1.204  0.00  0.00    +0.309 C 
ATOM     17  O   UNL     1      -1.414   2.095   2.204  0.00  0.00    -0.251 OA
ATOM     18  C   UNL     1       0.467   3.181   1.290  0.00  0.00    +0.136 C 
ENDBRANCH  15  16
ENDBRANCH   7  15
ENDBRANCH   1  13
BRANCH   1  19
ATOM     19  C   UNL     1      -6.888  -4.186   1.532  0.00  0.00    +0.218 C 
ATOM     20  O   UNL     1      -6.309  -3.640   2.448  0.00  0.00    -0.275 OA
ATOM     21  N   UNL     1      -7.899  -5.040   1.787  0.00  0.00    -0.315 N 
ATOM     22  H   UNL     1      -8.362  -5.477   1.055  0.00  0.00    +0.149 HD
BRANCH  21  23
ATOM     23  C   UNL     1      -8.298  -5.310   3.171  0.00  0.00    +0.109 C 
BRANCH  23  24
ATOM     24  C   UNL     1      -9.459  -6.306   3.182  0.00  0.00    +0.056 C 
BRANCH  24  25
ATOM     25  C   UNL     1      -9.870  -6.583   4.605  0.00  0.00    -0.021 A 
ATOM     26  C   UNL     1      -9.455  -7.604   5.371  0.00  0.00    +0.087 A 
ATOM     27  N   UNL     1     -10.041  -7.529   6.605  0.00  0.00    -0.360 N 
ATOM     28  H   UNL     1      -9.895  -8.156   7.331  0.00  0.00    +0.165 HD
ATOM     29  C   UNL     1     -10.870  -6.430   6.664  0.00  0.00    +0.047 A 
ATOM     30  C   UNL     1     -10.794  -5.787   5.416  0.00  0.00    +0.004 A 
ATOM     31  C   UNL     1     -11.543  -4.632   5.180  0.00  0.00    +0.030 A 
ATOM     32  C   UNL     1     -12.345  -4.125   6.178  0.00  0.00    +0.042 A 
ATOM     33  C   UNL     1     -12.414  -4.757   7.413  0.00  0.00    +0.022 A 
ATOM     34  C   UNL     1     -11.685  -5.900   7.659  0.00  0.00    +0.027 A 
ATOM     35 CL   UNL     1     -13.273  -2.686   5.893  0.00  0.00    -0.084 Cl
ENDBRANCH  24  25
ENDBRANCH  23  24
ENDBRANCH  21  23
ENDBRANCH   1  19
TORSDOF 7
