REMARK  Name = ZINC49557462
REMARK  8 active torsions:
REMARK  status: ('A' for Active; 'I' for Inactive)
REMARK    1  A    between atoms: C_1  and  C_2
REMARK    2  A    between atoms: C_2  and  C_3
REMARK    3  A    between atoms: C_2  and  C_4
REMARK    4  A    between atoms: C_4  and  N_5
REMARK    5  A    between atoms: C_14  and  C_16
REMARK    6  A    between atoms: C_16  and  N_18
REMARK    7  A    between atoms: N_25  and  C_28
REMARK    8  A    between atoms: C_28  and  C_29
REMARK                            x       y       z     vdW  Elec       q    Type
REMARK                         _______ _______ _______ _____ _____    ______ ____
ROOT
ATOM      1  N   UNL     1      -1.626  -3.580  -3.997  0.00  0.00    -0.151 NA
ATOM      2  C   UNL     1      -1.661  -4.072  -5.234  0.00  0.00    +0.164 A 
ATOM      3  N   UNL     1      -1.568  -5.370  -5.631  0.00  0.00    -0.339 N 
ATOM      4  C   UNL     1      -1.626  -5.674  -6.963  0.00  0.00    +0.024 A 
ATOM      5  C   UNL     1      -1.774  -4.623  -7.786  0.00  0.00    -0.004 A 
ATOM      6  S   UNL     1      -1.838  -3.238  -6.686  0.00  0.00    -0.059 S 
ATOM      7  C   UNL     1      -1.862  -4.659  -9.276  0.00  0.00    -0.033 C 
ATOM      8  N   UNL     1      -1.390  -5.978  -9.738  0.00  0.00    +0.386 N 
ATOM      9  C   UNL     1      -2.072  -7.034  -8.978  0.00  0.00    -0.072 C 
ATOM     10  C   UNL     1      -1.540  -7.081  -7.542  0.00  0.00    +0.035 C 
ATOM     11  H   UNL     1      -1.461  -6.075  -4.974  0.00  0.00    +0.167 HD
ATOM     12  H   UNL     1      -0.394  -6.048  -9.593  0.00  0.00    -0.081 HD
ENDROOT
BRANCH   1  13
ATOM     13  C   UNL     1      -1.478  -4.403  -2.956  0.00  0.00    +0.290 C 
ATOM     14  O   UNL     1      -1.375  -5.605  -3.138  0.00  0.00    -0.266 OA
BRANCH  13  24
ATOM     15  N   UNL     1      -1.396  -1.993  -0.116  0.00  0.00    -0.228 N 
ATOM     16  C   UNL     1      -1.366  -2.748   1.001  0.00  0.00    +0.275 A 
ATOM     17  O   UNL     1      -1.335  -2.226   2.100  0.00  0.00    -0.266 OA
ATOM     18  C   UNL     1      -1.373  -4.211   0.870  0.00  0.00    +0.050 A 
ATOM     19  C   UNL     1      -1.344  -5.050   1.984  0.00  0.00    +0.014 A 
ATOM     20  C   UNL     1      -1.352  -6.416   1.805  0.00  0.00    +0.001 A 
ATOM     21  C   UNL     1      -1.388  -6.963   0.529  0.00  0.00    +0.001 A 
ATOM     22  C   UNL     1      -1.416  -6.153  -0.584  0.00  0.00    +0.011 A 
ATOM     23  C   UNL     1      -1.410  -4.768  -0.427  0.00  0.00    +0.020 A 
ATOM     24  C   UNL     1      -1.440  -3.857  -1.581  0.00  0.00    +0.156 A 
ATOM     25  N   UNL     1      -1.437  -2.562  -1.389  0.00  0.00    -0.163 NA
BRANCH  15  26
ATOM     26  C   UNL     1      -1.390  -0.533   0.011  0.00  0.00    +0.150 C 
BRANCH  26  28
ATOM     27  C   UNL     1       0.058   1.503   0.017  0.00  0.00    +0.009 C 
ATOM     28  C   UNL     1       0.054  -0.027   0.010  0.00  0.00    +0.004 C 
ATOM     29  C   UNL     1       0.778  -0.545   1.254  0.00  0.00    +0.009 C 
ENDBRANCH  26  28
ENDBRANCH  15  26
ENDBRANCH  13  24
ENDBRANCH   1  13
BRANCH   8  30
ATOM     30  C   UNL     1      -1.689  -6.132 -11.168  0.00  0.00    -0.043 C 
BRANCH  30  31
ATOM     31  C   UNL     1      -0.894  -5.125 -11.959  0.00  0.00    -0.064 A 
ATOM     32  C   UNL     1      -1.423  -3.874 -12.214  0.00  0.00    +0.002 A 
ATOM     33  C   UNL     1      -0.693  -2.950 -12.939  0.00  0.00    +0.000 A 
ATOM     34  C   UNL     1       0.565  -3.278 -13.409  0.00  0.00    +0.000 A 
ATOM     35  C   UNL     1       1.094  -4.529 -13.153  0.00  0.00    +0.000 A 
ATOM     36  C   UNL     1       0.366  -5.451 -12.424  0.00  0.00    +0.002 A 
ENDBRANCH  30  31
ENDBRANCH   8  30
TORSDOF 6
