REMARK  Name = ZINC54468394
REMARK  5 active torsions:
REMARK  status: ('A' for Active; 'I' for Inactive)
REMARK    1  A    between atoms: C_3  and  O_13
REMARK    2  A    between atoms: C_6  and  N_7
REMARK    3  A    between atoms: O_13  and  C_14
REMARK    4  A    between atoms: C_14  and  C_16
REMARK    5  A    between atoms: C_19  and  C_22
REMARK                            x       y       z     vdW  Elec       q    Type
REMARK                         _______ _______ _______ _____ _____    ______ ____
ROOT
ATOM      1  O   UNL     1       3.548   2.110  -0.021  0.00  0.00    -0.423 OA
ENDROOT
BRANCH   1   4
ATOM      2  C   UNL     1      -0.023   1.419  -0.103  0.00  0.00    +0.027 A 
ATOM      3  C   UNL     1       1.171   2.113  -0.104  0.00  0.00    +0.048 A 
ATOM      4  C   UNL     1       2.373   1.426  -0.020  0.00  0.00    +0.132 A 
ATOM      5  C   UNL     1       2.377   0.041   0.066  0.00  0.00    +0.048 A 
ATOM      6  C   UNL     1       1.183  -0.654   0.066  0.00  0.00    +0.027 A 
ATOM      7  C   UNL     1      -0.020   0.033  -0.018  0.00  0.00    +0.040 A 
BRANCH   7   8
ATOM      8  N   UNL     1      -1.231  -0.671  -0.017  0.00  0.00    -0.234 N 
ATOM      9  C   UNL     1      -1.385  -2.137   0.074  0.00  0.00    +0.158 C 
ATOM     10  C   UNL     1      -2.888  -2.287   0.411  0.00  0.00    +0.253 C 
ATOM     11  O   UNL     1      -3.436  -1.059  -0.106  0.00  0.00    -0.448 OA
ATOM     12  C   UNL     1      -2.463  -0.133  -0.092  0.00  0.00    +0.407 C 
ATOM     13  O   UNL     1      -2.672   1.063  -0.145  0.00  0.00    -0.226 OA
ENDBRANCH   7   8
ENDBRANCH   1   4
BRANCH   1  14
ATOM     14  C   UNL     1       3.844   2.857   1.054  0.00  0.00    +0.357 C 
ATOM     15  O   UNL     1       3.127   2.826   2.027  0.00  0.00    -0.246 OA
BRANCH  14  16
ATOM     16  C   UNL     1       5.069   3.734   1.048  0.00  0.00    +0.318 C 
ATOM     17  C   UNL     1       6.360   2.882   1.048  0.00  0.00    +0.119 C 
ATOM     18  C   UNL     1       7.285   3.682   1.946  0.00  0.00    +0.098 C 
ATOM     19  N   UNL     1       6.569   4.539   2.603  0.00  0.00    -0.088 NA
ATOM     20  O   UNL     1       5.192   4.457   2.290  0.00  0.00    -0.378 OA
BRANCH  18  21
ATOM     21  C   UNL     1       8.737   3.515   2.053  0.00  0.00    +0.038 A 
ATOM     22  C   UNL     1       9.639   4.200   2.849  0.00  0.00    +0.019 A 
ATOM     23  C   UNL     1      10.968   3.860   2.774  0.00  0.00    +0.028 A 
ATOM     24  C   UNL     1      11.354   2.867   1.926  0.00  0.00    +0.079 A 
ATOM     25  S   UNL     1       9.804   2.368   1.195  0.00  0.00    -0.075 S 
ATOM     26 CL   UNL     1      12.947   2.242   1.634  0.00  0.00    -0.076 Cl
ENDBRANCH  18  21
ENDBRANCH  14  16
ENDBRANCH   1  14
TORSDOF 5
