REMARK  Name = ZINC08923098
REMARK  13 active torsions:
REMARK  status: ('A' for Active; 'I' for Inactive)
REMARK    1  A    between atoms: C_1  and  C_2
REMARK    2  A    between atoms: C_2  and  O_3
REMARK    3  A    between atoms: O_3  and  C_4
REMARK    4  A    between atoms: C_4  and  C_6
REMARK    5  A    between atoms: C_7  and  C_36
REMARK    6  A    between atoms: C_8  and  C_13
REMARK    7  A    between atoms: C_9  and  C_12
REMARK    8  A    between atoms: C_13  and  C_15
REMARK    9  A    between atoms: C_15  and  C_16
REMARK   10  A    between atoms: C_16  and  O_35
REMARK   11  A    between atoms: N_23  and  C_26
REMARK   12  A    between atoms: C_26  and  C_27
REMARK   13  A    between atoms: C_27  and  C_28
REMARK                            x       y       z     vdW  Elec       q    Type
REMARK                         _______ _______ _______ _____ _____    ______ ____
ROOT
ATOM      1  C   UNL     1       3.794  -5.926  -6.939  0.00  0.00    +0.175 C 
ATOM      2  C   UNL     1       4.670  -5.740  -8.156  0.00  0.00    +0.016 A 
ATOM      3  C   UNL     1       4.508  -5.037  -9.328  0.00  0.00    +0.028 A 
ATOM      4  C   UNL     1       5.507  -5.052 -10.287  0.00  0.00    +0.041 A 
ATOM      5  C   UNL     1       6.666  -5.774 -10.061  0.00  0.00    +0.022 A 
ATOM      6  C   UNL     1       6.831  -6.479  -8.886  0.00  0.00    +0.025 A 
ATOM      7  C   UNL     1       5.829  -6.468  -7.918  0.00  0.00    +0.043 A 
ATOM      8  N   UNL     1       5.760  -7.091  -6.670  0.00  0.00    -0.268 N 
ATOM      9  C   UNL     1       4.606  -6.827  -6.034  0.00  0.00    +0.257 C 
ATOM     10  O   UNL     1       4.278  -7.233  -4.939  0.00  0.00    -0.272 OA
ATOM     11 CL   UNL     1       5.308  -4.167 -11.767  0.00  0.00    -0.084 Cl
ENDROOT
BRANCH   1  12
ATOM     12  O   UNL     1       2.562  -6.556  -7.298  0.00  0.00    -0.374 OA
ATOM     13  H   UNL     1       1.975  -6.726  -6.548  0.00  0.00    +0.211 HD
ENDBRANCH   1  12
BRANCH   1  14
ATOM     14  C   UNL     1       3.528  -4.581  -6.259  0.00  0.00    +0.129 C 
BRANCH  14  15
ATOM     15  C   UNL     1       2.841  -4.813  -4.938  0.00  0.00    +0.169 C 
ATOM     16  O   UNL     1       2.478  -5.929  -4.631  0.00  0.00    -0.292 OA
BRANCH  15  19
ATOM     17  C   UNL     1       1.661  -1.966  -2.970  0.00  0.00    +0.128 A 
ATOM     18  C   UNL     1       1.448  -2.887  -3.952  0.00  0.00    -0.008 A 
ATOM     19  C   UNL     1       2.611  -3.690  -4.024  0.00  0.00    +0.041 A 
ATOM     20  C   UNL     1       3.493  -3.213  -3.065  0.00  0.00    +0.024 A 
ATOM     21  N   UNL     1       2.917  -2.175  -2.441  0.00  0.00    -0.352 N 
ATOM     22  H   UNL     1       3.320  -1.655  -1.729  0.00  0.00    +0.166 HD
ATOM     23  C   UNL     1       4.866  -3.763  -2.778  0.00  0.00    +0.064 C 
ATOM     24  C   UNL     1       0.211  -3.023  -4.802  0.00  0.00    +0.047 C 
BRANCH  17  25
ATOM     25  C   UNL     1       0.716  -0.925  -2.551  0.00  0.00    +0.356 C 
ATOM     26  O   UNL     1      -0.367  -0.832  -3.096  0.00  0.00    -0.243 OA
BRANCH  25  27
ATOM     27  O   UNL     1       1.048  -0.072  -1.561  0.00  0.00    -0.460 OA
BRANCH  27  29
ATOM     28  C   UNL     1       0.616   1.802  -0.066  0.00  0.00    +0.048 C 
ATOM     29  C   UNL     1       0.064   0.933  -1.198  0.00  0.00    +0.229 C 
ENDBRANCH  27  29
ENDBRANCH  25  27
ENDBRANCH  17  25
ENDBRANCH  15  19
ENDBRANCH  14  15
ENDBRANCH   1  14
BRANCH   8  30
ATOM     30  C   UNL     1       6.822  -7.936  -6.119  0.00  0.00    +0.118 C 
BRANCH  30  31
ATOM     31  C   UNL     1       6.588  -9.388  -6.539  0.00  0.00    +0.054 C 
BRANCH  31  32
ATOM     32  C   UNL     1       7.681 -10.257  -5.972  0.00  0.00    -0.046 A 
ATOM     33  C   UNL     1       8.835 -10.480  -6.700  0.00  0.00    +0.004 A 
ATOM     34  C   UNL     1       9.839 -11.274  -6.178  0.00  0.00    +0.000 A 
ATOM     35  C   UNL     1       9.686 -11.852  -4.932  0.00  0.00    +0.000 A 
ATOM     36  C   UNL     1       8.530 -11.632  -4.205  0.00  0.00    +0.000 A 
ATOM     37  C   UNL     1       7.528 -10.835  -4.725  0.00  0.00    +0.004 A 
ENDBRANCH  31  32
ENDBRANCH  30  31
ENDBRANCH   8  30
TORSDOF 10
