REMARK  Name = ZINC33868882
REMARK  13 active torsions:
REMARK  status: ('A' for Active; 'I' for Inactive)
REMARK    1  A    between atoms: C_1  and  C_2
REMARK    2  A    between atoms: C_2  and  C_3
REMARK    3  A    between atoms: C_3  and  C_4
REMARK    4  A    between atoms: C_5  and  C_19
REMARK    5  A    between atoms: C_6  and  C_16
REMARK    6  A    between atoms: C_7  and  C_15
REMARK    7  A    between atoms: N_8  and  C_9
REMARK    8  A    between atoms: C_9  and  C_10
REMARK    9  A    between atoms: C_10  and  C_11
REMARK   10  A    between atoms: C_11  and  N_12
REMARK   11  A    between atoms: N_12  and  C_13
REMARK   12  A    between atoms: N_12  and  C_14
REMARK   13  A    between atoms: C_22  and  C_25
REMARK                            x       y       z     vdW  Elec       q    Type
REMARK                         _______ _______ _______ _____ _____    ______ ____
ROOT
ATOM      1  C   UNL     1       0.762  -2.018   1.233  0.00  0.00    +0.027 A 
ATOM      2  C   UNL     1      -0.179  -2.825   1.784  0.00  0.00    +0.015 A 
ATOM      3  C   UNL     1       0.267  -4.206   1.527  0.00  0.00    +0.065 A 
ATOM      4  C   UNL     1       1.444  -4.101   0.841  0.00  0.00    +0.029 A 
ATOM      5  N   UNL     1       1.726  -2.796   0.666  0.00  0.00    -0.347 N 
ATOM      6  C   UNL     1       2.283  -5.255   0.355  0.00  0.00    +0.064 C 
ENDROOT
BRANCH   2   7
ATOM      7  C   UNL     1      -1.408  -2.403   2.500  0.00  0.00    -0.015 A 
ATOM      8  C   UNL     1      -1.312  -1.709   3.705  0.00  0.00    +0.009 A 
ATOM      9  C   UNL     1      -2.458  -1.319   4.367  0.00  0.00    +0.013 A 
ATOM     10  C   UNL     1      -3.701  -1.616   3.837  0.00  0.00    +0.055 A 
ATOM     11  C   UNL     1      -3.802  -2.305   2.641  0.00  0.00    +0.013 A 
ATOM     12  C   UNL     1      -2.663  -2.694   1.968  0.00  0.00    +0.009 A 
BRANCH  10  13
ATOM     13  C   UNL     1      -4.949  -1.188   4.565  0.00  0.00    +0.417 C 
ATOM     14  F   UNL     1      -5.328   0.087   4.131  0.00  0.00    -0.166 F 
ATOM     15  F   UNL     1      -5.979  -2.096   4.298  0.00  0.00    -0.166 F 
ATOM     16  F   UNL     1      -4.699  -1.158   5.941  0.00  0.00    -0.166 F 
ENDBRANCH  10  13
ENDBRANCH   2   7
BRANCH   3  17
ATOM     17  C   UNL     1      -0.416  -5.446   1.929  0.00  0.00    +0.244 C 
ATOM     18  O   UNL     1      -1.229  -5.961   1.185  0.00  0.00    -0.270 OA
ATOM     19  N   UNL     1      -0.140  -6.011   3.121  0.00  0.00    -0.325 N 
ATOM     20  H   UNL     1       0.508  -5.600   3.714  0.00  0.00    +0.145 HD
ATOM     21  H   UNL     1      -0.590  -6.829   3.386  0.00  0.00    +0.145 HD
ENDBRANCH   3  17
BRANCH   1  22
ATOM     22  C   UNL     1       0.742  -0.511   1.242  0.00  0.00    +0.054 C 
BRANCH  22  24
ATOM     23  C   UNL     1      -0.019   1.526   0.010  0.00  0.00    +0.004 C 
ATOM     24  C   UNL     1       0.002  -0.004   0.002  0.00  0.00    +0.003 C 
ENDBRANCH  22  24
ENDBRANCH   1  22
BRANCH   5  25
ATOM     25  C   UNL     1       2.908  -2.284  -0.032  0.00  0.00    +0.120 C 
BRANCH  25  26
ATOM     26  C   UNL     1       4.053  -2.103   0.967  0.00  0.00    +0.003 C 
BRANCH  26  27
ATOM     27  C   UNL     1       5.287  -1.568   0.237  0.00  0.00    -0.078 C 
BRANCH  27  28
ATOM     28  N   UNL     1       6.385  -1.394   1.197  0.00  0.00    +0.376 N 
ATOM     29  C   UNL     1       6.785  -2.705   1.727  0.00  0.00    -0.097 C 
ATOM     30  C   UNL     1       7.531  -0.770   0.521  0.00  0.00    -0.097 C 
ATOM     31  H   UNL     1       6.079  -0.804   1.955  0.00  0.00    -0.083 HD
ENDBRANCH  27  28
ENDBRANCH  26  27
ENDBRANCH  25  26
ENDBRANCH   5  25
TORSDOF 9
