REMARK  Name = ZINC32512453
REMARK  5 active torsions:
REMARK  status: ('A' for Active; 'I' for Inactive)
REMARK    1  A    between atoms: C_1  and  C_2
REMARK    2  A    between atoms: C_2  and  C_4
REMARK    3  A    between atoms: C_2  and  N_17
REMARK    4  A    between atoms: N_6  and  C_7
REMARK    5  A    between atoms: N_17  and  C_18
REMARK                            x       y       z     vdW  Elec       q    Type
REMARK                         _______ _______ _______ _____ _____    ______ ____
ROOT
ATOM      1  C   UNL     1       0.708  -0.488  -1.238  0.00  0.00    +0.237 C 
ATOM      2  O   UNL     1       1.710  -1.166  -1.140  0.00  0.00    -0.273 OA
ATOM      3  N   UNL     1       0.231  -0.164  -2.456  0.00  0.00    -0.284 N 
ATOM      4  H   UNL     1      -0.606   0.320  -2.535  0.00  0.00    +0.155 HD
ENDROOT
BRANCH   3   5
ATOM      5  C   UNL     1       0.943  -0.526  -3.607  0.00  0.00    +0.037 A 
ATOM      6  C   UNL     1       0.954   0.316  -4.710  0.00  0.00    +0.027 A 
ATOM      7  C   UNL     1       1.655  -0.042  -5.846  0.00  0.00    +0.051 A 
ATOM      8  C   UNL     1       2.351  -1.241  -5.886  0.00  0.00    +0.162 A 
ATOM      9  C   UNL     1       2.344  -2.085  -4.782  0.00  0.00    +0.164 A 
ATOM     10  C   UNL     1       1.643  -1.724  -3.642  0.00  0.00    +0.072 A 
ATOM     11  O   UNL     1       3.027  -3.262  -4.801  0.00  0.00    -0.485 OA
ATOM     12  C   UNL     1       3.414  -3.762  -6.085  0.00  0.00    +0.270 C 
ATOM     13  C   UNL     1       4.024  -2.604  -6.887  0.00  0.00    +0.270 C 
ATOM     14  O   UNL     1       3.034  -1.578  -7.016  0.00  0.00    -0.485 OA
ENDBRANCH   3   5
BRANCH   1  16
ATOM     15  C   UNL     1      -0.034   1.520   0.013  0.00  0.00    +0.038 C 
ATOM     16  C   UNL     1      -0.002  -0.009   0.002  0.00  0.00    +0.154 C 
BRANCH  16  17
ATOM     17  N   UNL     1       0.709  -0.491   1.189  0.00  0.00    -0.333 N 
ATOM     18  H   UNL     1       1.654  -0.702   1.136  0.00  0.00    +0.147 HD
BRANCH  17  19
ATOM     19  C   UNL     1       0.025  -0.647   2.397  0.00  0.00    +0.028 A 
ATOM     20  C   UNL     1      -1.330  -0.351   2.473  0.00  0.00    +0.024 A 
ATOM     21  C   UNL     1      -2.003  -0.506   3.669  0.00  0.00    +0.017 A 
ATOM     22  C   UNL     1      -1.330  -0.956   4.791  0.00  0.00    +0.018 A 
ATOM     23  C   UNL     1       0.020  -1.252   4.718  0.00  0.00    +0.017 A 
ATOM     24  C   UNL     1       0.697  -1.104   3.523  0.00  0.00    +0.024 A 
ATOM     25 BR   UNL     1      -2.255  -1.166   6.426  0.00  0.00    -0.050 Br
ENDBRANCH  17  19
ENDBRANCH  16  17
ENDBRANCH   1  16
TORSDOF 4
