REMARK  Name = ZINC44872427
REMARK  7 active torsions:
REMARK  status: ('A' for Active; 'I' for Inactive)
REMARK    1  A    between atoms: N_7  and  S_28
REMARK    2  A    between atoms: C_9  and  C_12
REMARK    3  A    between atoms: N_14  and  C_15
REMARK    4  A    between atoms: C_15  and  C_16
REMARK    5  A    between atoms: C_19  and  C_22
REMARK    6  A    between atoms: C_22  and  N_23
REMARK    7  A    between atoms: S_28  and  C_31
REMARK                            x       y       z     vdW  Elec       q    Type
REMARK                         _______ _______ _______ _____ _____    ______ ____
ROOT
ATOM      1  C   UNL     1      -0.017   1.379   0.010  0.00  0.00    +0.002 A 
ATOM      2  C   UNL     1       1.170   2.087   0.002  0.00  0.00    +0.004 A 
ATOM      3  C   UNL     1       2.381   1.420  -0.015  0.00  0.00    +0.047 A 
ATOM      4  C   UNL     1       2.410   0.034  -0.023  0.00  0.00    +0.144 A 
ATOM      5  C   UNL     1       1.213  -0.678  -0.013  0.00  0.00    +0.093 A 
ATOM      6  C   UNL     1       0.002  -0.004   0.002  0.00  0.00    +0.028 A 
ATOM      7  N   UNL     1       1.237  -2.082  -0.014  0.00  0.00    -0.195 N 
ATOM      8  C   UNL     1       2.512  -2.744  -0.339  0.00  0.00    +0.186 C 
ATOM      9  C   UNL     1       3.630  -1.978   0.383  0.00  0.00    +0.277 C 
ATOM     10  O   UNL     1       3.604  -0.614  -0.044  0.00  0.00    -0.476 OA
ENDROOT
BRANCH   9  11
ATOM     11  C   UNL     1       4.963  -2.592   0.044  0.00  0.00    +0.256 C 
ATOM     12  O   UNL     1       5.783  -1.954  -0.582  0.00  0.00    -0.272 OA
ATOM     13  N   UNL     1       5.245  -3.851   0.435  0.00  0.00    -0.308 N 
ATOM     14  H   UNL     1       4.589  -4.362   0.935  0.00  0.00    +0.149 HD
BRANCH  13  15
ATOM     15  C   UNL     1       6.542  -4.448   0.105  0.00  0.00    +0.139 C 
BRANCH  15  16
ATOM     16  C   UNL     1       6.603  -5.850   0.653  0.00  0.00    -0.030 A 
ATOM     17  C   UNL     1       7.080  -6.073   1.931  0.00  0.00    +0.005 A 
ATOM     18  C   UNL     1       7.137  -7.359   2.433  0.00  0.00    +0.002 A 
ATOM     19  C   UNL     1       6.715  -8.423   1.658  0.00  0.00    -0.064 A 
ATOM     20  C   UNL     1       6.237  -8.201   0.380  0.00  0.00    +0.002 A 
ATOM     21  C   UNL     1       6.177  -6.914  -0.121  0.00  0.00    +0.005 A 
BRANCH  19  22
ATOM     22  C   UNL     1       6.778  -9.826   2.205  0.00  0.00    -0.043 C 
BRANCH  22  23
ATOM     23  N   UNL     1       5.516 -10.142   2.888  0.00  0.00    +0.382 N 
ATOM     24  C   UNL     1       4.411 -10.245   1.900  0.00  0.00    -0.078 C 
ATOM     25  C   UNL     1       3.352 -11.100   2.640  0.00  0.00    -0.020 C 
ATOM     26  C   UNL     1       4.214 -12.122   3.416  0.00  0.00    -0.020 C 
ATOM     27  C   UNL     1       5.604 -11.469   3.534  0.00  0.00    -0.078 C 
ATOM     28  H   UNL     1       5.305  -9.434   3.575  0.00  0.00    -0.081 HD
ENDBRANCH  22  23
ENDBRANCH  19  22
ENDBRANCH  15  16
ENDBRANCH  13  15
ENDBRANCH   9  11
BRANCH   7  29
ATOM     29  S   UNL     1      -0.120  -2.962   0.338  0.00  0.00    +0.075 S 
ATOM     30  O   UNL     1       0.326  -4.231   0.797  0.00  0.00    -0.150 OA
ATOM     31  O   UNL     1      -0.959  -2.121   1.119  0.00  0.00    -0.150 OA
BRANCH  29  32
ATOM     32  C   UNL     1      -0.967  -3.245  -1.181  0.00  0.00    +0.109 A 
ATOM     33  C   UNL     1      -1.912  -2.339  -1.625  0.00  0.00    +0.030 A 
ATOM     34  C   UNL     1      -2.576  -2.561  -2.816  0.00  0.00    +0.022 A 
ATOM     35  C   UNL     1      -2.294  -3.689  -3.565  0.00  0.00    +0.041 A 
ATOM     36  C   UNL     1      -1.348  -4.596  -3.121  0.00  0.00    +0.022 A 
ATOM     37  C   UNL     1      -0.681  -4.370  -1.932  0.00  0.00    +0.030 A 
ATOM     38 CL   UNL     1      -3.128  -3.969  -5.062  0.00  0.00    -0.084 Cl
ENDBRANCH  29  32
ENDBRANCH   7  29
TORSDOF 7
