REMARK  Name = ZINC50633656
REMARK  6 active torsions:
REMARK  status: ('A' for Active; 'I' for Inactive)
REMARK    1  A    between atoms: C_1  and  C_2
REMARK    2  A    between atoms: C_2  and  N_3
REMARK    3  A    between atoms: C_7  and  S_10
REMARK    4  A    between atoms: S_10  and  N_13
REMARK    5  A    between atoms: N_13  and  C_14
REMARK    6  A    between atoms: C_18  and  C_20
REMARK                            x       y       z     vdW  Elec       q    Type
REMARK                         _______ _______ _______ _____ _____    ______ ____
ROOT
ATOM      1  S   UNL     1       1.347  -6.216  -2.262  0.00  0.00    +0.093 S 
ATOM      2  O   UNL     1       2.473  -6.313  -3.122  0.00  0.00    -0.148 OA
ATOM      3  O   UNL     1       1.278  -6.900  -1.018  0.00  0.00    -0.148 OA
ENDROOT
BRANCH   1   8
ATOM      4  N   UNL     1       0.688  -0.476  -1.203  0.00  0.00    -0.331 N 
ATOM      5  C   UNL     1       0.831  -1.840  -1.432  0.00  0.00    +0.096 A 
ATOM      6  C   UNL     1       0.316  -2.751  -0.515  0.00  0.00    +0.043 A 
ATOM      7  C   UNL     1       0.466  -4.105  -0.755  0.00  0.00    +0.033 A 
ATOM      8  C   UNL     1       1.128  -4.504  -1.909  0.00  0.00    +0.126 A 
ATOM      9  C   UNL     1       1.614  -3.546  -2.775  0.00  0.00    +0.113 A 
ATOM     10  N   UNL     1       1.452  -2.261  -2.523  0.00  0.00    -0.348 N 
ATOM     11  H   UNL     1       1.042   0.162  -1.842  0.00  0.00    +0.147 HD
ATOM     12  H   UNL     1       1.800  -1.608  -3.151  0.00  0.00    +0.167 HD
BRANCH   4  14
ATOM     13  C   UNL     1      -0.019   1.526   0.010  0.00  0.00    +0.024 C 
ATOM     14  C   UNL     1       0.002  -0.004   0.002  0.00  0.00    +0.099 C 
ENDBRANCH   4  14
ENDBRANCH   1   8
BRANCH   1  15
ATOM     15  N   UNL     1       0.034  -6.706  -3.144  0.00  0.00    -0.098 NA
BRANCH  15  16
ATOM     16  C   UNL     1      -0.066  -8.032  -3.571  0.00  0.00    +0.075 A 
ATOM     17  C   UNL     1       0.932  -8.944  -3.251  0.00  0.00    +0.028 A 
ATOM     18  C   UNL     1       0.831 -10.254  -3.673  0.00  0.00    +0.017 A 
ATOM     19  C   UNL     1      -0.265 -10.660  -4.415  0.00  0.00    +0.021 A 
ATOM     20  C   UNL     1      -1.261  -9.755  -4.735  0.00  0.00    -0.035 A 
ATOM     21  C   UNL     1      -1.167  -8.444  -4.311  0.00  0.00    +0.031 A 
ATOM     22  C   UNL     1      -2.452 -10.202  -5.543  0.00  0.00    +0.045 C 
ATOM     23 BR   UNL     1      -0.400 -12.456  -4.992  0.00  0.00    -0.050 Br
ENDBRANCH  15  16
ENDBRANCH   1  15
TORSDOF 4
