REMARK  Name = ZINC15078676
REMARK  10 active torsions:
REMARK  status: ('A' for Active; 'I' for Inactive)
REMARK    1  A    between atoms: C_10  and  C_11
REMARK    2  A    between atoms: C_10  and  N_58
REMARK    3  A    between atoms: C_11  and  C_13
REMARK    4  A    between atoms: C_11  and  O_30
REMARK    5  A    between atoms: C_13  and  O_14
REMARK    6  A    between atoms: O_14  and  C_15
REMARK    7  A    between atoms: C_20  and  C_21
REMARK    8  A    between atoms: C_21  and  N_60
REMARK    9  A    between atoms: C_22  and  C_23
REMARK   10  A    between atoms: C_22  and  N_60
REMARK                            x       y       z     vdW  Elec       q    Type
REMARK                         _______ _______ _______ _____ _____    ______ ____
ROOT
ATOM      1  C   UNL     1      -2.848   1.353  -2.330  0.00  0.00    +0.122 A 
ATOM      2  C   UNL     1      -2.385   2.246  -3.286  0.00  0.00    +0.046 A 
ATOM      3  C   UNL     1      -3.191   2.594  -4.352  0.00  0.00    +0.004 A 
ATOM      4  C   UNL     1      -4.462   2.061  -4.462  0.00  0.00    +0.000 A 
ATOM      5  C   UNL     1      -4.928   1.176  -3.507  0.00  0.00    +0.005 A 
ATOM      6  C   UNL     1      -4.124   0.821  -2.442  0.00  0.00    -0.023 A 
ENDROOT
BRANCH   1   7
ATOM      7  O   UNL     1      -2.054   1.005  -1.282  0.00  0.00    -0.489 OA
BRANCH   7   8
ATOM      8  C   UNL     1      -0.753   1.593  -1.232  0.00  0.00    +0.258 C 
BRANCH   8   9
ATOM      9  C   UNL     1      -0.013   1.086   0.008  0.00  0.00    +0.135 C 
BRANCH   9  10
ATOM     10  O   UNL     1      -0.682   1.547   1.184  0.00  0.00    -0.390 OA
ATOM     11  H   UNL     1      -0.732   2.510   1.256  0.00  0.00    +0.210 HD
ENDBRANCH   9  10
BRANCH   9  12
ATOM     12  C   UNL     1       1.423   1.615  -0.003  0.00  0.00    -0.043 C 
BRANCH  12  22
ATOM     13  C   UNL     1       4.716  -2.115   4.065  0.00  0.00    +0.000 A 
ATOM     14  C   UNL     1       3.909  -2.917   3.279  0.00  0.00    +0.000 A 
ATOM     15  C   UNL     1       3.144  -2.352   2.280  0.00  0.00    +0.002 A 
ATOM     16  C   UNL     1       3.179  -0.983   2.058  0.00  0.00    -0.061 A 
ATOM     17  C   UNL     1       3.981  -0.184   2.843  0.00  0.00    -0.048 A 
ATOM     18  C   UNL     1       4.751  -0.753   3.847  0.00  0.00    +0.004 A 
ATOM     19  C   UNL     1       4.048   1.309   2.644  0.00  0.00    +0.017 C 
ATOM     20  C   UNL     1       3.482   1.678   1.273  0.00  0.00    -0.074 C 
ATOM     21  C   UNL     1       2.329  -0.414   0.952  0.00  0.00    -0.043 C 
ATOM     22  N   UNL     1       2.157   1.036   1.143  0.00  0.00    +0.384 N 
ATOM     23  H   UNL     1       1.619   1.200   2.002  0.00  0.00    -0.081 HD
ENDBRANCH  12  22
ENDBRANCH   9  12
ENDBRANCH   8   9
ENDBRANCH   7   8
ENDBRANCH   1   7
BRANCH   6  24
ATOM     24  C   UNL     1      -4.632  -0.144  -1.401  0.00  0.00    -0.043 C 
BRANCH  24  25
ATOM     25  N   UNL     1      -5.087   0.614  -0.221  0.00  0.00    +0.384 N 
ATOM     26  H   UNL     1      -5.839   1.255  -0.499  0.00  0.00    -0.085 HD
ATOM     27  H   UNL     1      -4.301   1.154   0.159  0.00  0.00    -0.085 HD
BRANCH  25  28
ATOM     28  C   UNL     1      -5.591  -0.307   0.816  0.00  0.00    -0.046 C 
BRANCH  28  29
ATOM     29  C   UNL     1      -6.048   0.494   2.008  0.00  0.00    -0.062 A 
ATOM     30  C   UNL     1      -5.160   0.784   3.027  0.00  0.00    +0.002 A 
ATOM     31  C   UNL     1      -5.577   1.522   4.119  0.00  0.00    +0.003 A 
ATOM     32  C   UNL     1      -6.885   1.963   4.197  0.00  0.00    +0.038 A 
ATOM     33  C   UNL     1      -7.776   1.669   3.180  0.00  0.00    +0.124 A 
ATOM     34  C   UNL     1      -7.356   0.933   2.084  0.00  0.00    +0.040 A 
ATOM     35  F   UNL     1      -9.054   2.099   3.256  0.00  0.00    -0.205 F 
ENDBRANCH  28  29
ENDBRANCH  25  28
ENDBRANCH  24  25
ENDBRANCH   6  24
TORSDOF 10
