REMARK  Name = ZINC20806700
REMARK  7 active torsions:
REMARK  status: ('A' for Active; 'I' for Inactive)
REMARK    1  A    between atoms: C_9  and  O_29
REMARK    2  A    between atoms: C_10  and  C_11
REMARK    3  A    between atoms: N_12  and  N_13
REMARK    4  A    between atoms: C_17  and  S_20
REMARK    5  A    between atoms: N_18  and  N_19
REMARK    6  A    between atoms: S_20  and  C_21
REMARK    7  A    between atoms: C_21  and  C_22
REMARK                            x       y       z     vdW  Elec       q    Type
REMARK                         _______ _______ _______ _____ _____    ______ ____
ROOT
ATOM      1  N   UNL     1      -6.225  -3.683  -2.687  0.00  0.00    -0.204 N 
ATOM      2  C   UNL     1      -5.192  -3.076  -1.988  0.00  0.00    +0.254 A 
ATOM      3  N   UNL     1      -5.073  -3.019  -0.684  0.00  0.00    -0.109 NA
ATOM      4  N   UNL     1      -3.895  -2.321  -0.387  0.00  0.00    -0.119 NA
ATOM      5  C   UNL     1      -3.333  -1.974  -1.520  0.00  0.00    +0.210 A 
ATOM      6  N   UNL     1      -4.122  -2.427  -2.539  0.00  0.00    -0.211 N 
ATOM      7  H   UNL     1      -6.227  -3.672  -3.787  0.00  0.00    +0.177 HD
ENDROOT
BRANCH   6   8
ATOM      8  N   UNL     1      -3.883  -2.263  -3.874  0.00  0.00    -0.294 N 
ATOM      9  H   UNL     1      -2.986  -1.722  -4.209  0.00  0.00    +0.163 HD
ATOM     10  H   UNL     1      -4.587  -2.673  -4.613  0.00  0.00    +0.163 HD
ENDBRANCH   6   8
BRANCH   1  12
ATOM     11  C   UNL     1      -8.236  -4.880  -2.646  0.00  0.00    +0.142 C 
ATOM     12  N   UNL     1      -7.267  -4.311  -1.991  0.00  0.00    -0.187 NA
BRANCH  11  22
ATOM     13  C   UNL     1     -12.540  -7.407  -3.943  0.00  0.00    +0.001 A 
ATOM     14  C   UNL     1     -11.522  -6.793  -4.669  0.00  0.00    +0.001 A 
ATOM     15  C   UNL     1     -10.479  -6.186  -4.036  0.00  0.00    +0.009 A 
ATOM     16  C   UNL     1     -10.428  -6.178  -2.637  0.00  0.00    -0.006 A 
ATOM     17  C   UNL     1     -11.459  -6.806  -1.895  0.00  0.00    -0.017 A 
ATOM     18  C   UNL     1     -12.516  -7.427  -2.582  0.00  0.00    +0.008 A 
ATOM     19  C   UNL     1     -11.409  -6.792  -0.491  0.00  0.00    +0.012 A 
ATOM     20  C   UNL     1     -10.381  -6.188   0.163  0.00  0.00    +0.046 A 
ATOM     21  C   UNL     1      -9.342  -5.562  -0.522  0.00  0.00    +0.126 A 
ATOM     22  C   UNL     1      -9.328  -5.539  -1.917  0.00  0.00    +0.044 A 
BRANCH  21  23
ATOM     23  O   UNL     1      -8.335  -4.971   0.172  0.00  0.00    -0.506 OA
ATOM     24  H   UNL     1      -7.513  -4.477  -0.365  0.00  0.00    +0.292 HD
ENDBRANCH  21  23
ENDBRANCH  11  22
ENDBRANCH   1  12
BRANCH   5  25
ATOM     25  S   UNL     1      -1.828  -1.076  -1.697  0.00  0.00    -0.080 S 
BRANCH  25  26
ATOM     26  C   UNL     1      -1.292  -0.775   0.010  0.00  0.00    +0.114 C 
BRANCH  26  27
ATOM     27  C   UNL     1       0.002  -0.004   0.002  0.00  0.00    -0.019 A 
ATOM     28  C   UNL     1       1.209  -0.679  -0.013  0.00  0.00    +0.006 A 
ATOM     29  C   UNL     1       2.396   0.029  -0.021  0.00  0.00    +0.000 A 
ATOM     30  C   UNL     1       2.378   1.411  -0.013  0.00  0.00    +0.001 A 
ATOM     31  C   UNL     1       1.173   2.087   0.002  0.00  0.00    +0.020 A 
ATOM     32  C   UNL     1      -0.017   1.379   0.010  0.00  0.00    +0.045 A 
ATOM     33 CL   UNL     1      -1.532   2.227   0.021  0.00  0.00    -0.083 Cl
ENDBRANCH  26  27
ENDBRANCH  25  26
ENDBRANCH   5  25
TORSDOF 7
