REMARK  Name = ZINC66505009
REMARK  7 active torsions:
REMARK  status: ('A' for Active; 'I' for Inactive)
REMARK    1  A    between atoms: C_1  and  C_2
REMARK    2  A    between atoms: N_4  and  C_5
REMARK    3  A    between atoms: C_7  and  C_12
REMARK    4  A    between atoms: C_12  and  O_14
REMARK    5  A    between atoms: O_14  and  C_15
REMARK    6  A    between atoms: C_22  and  C_24
REMARK    7  A    between atoms: C_22  and  C_25
REMARK                            x       y       z     vdW  Elec       q    Type
REMARK                         _______ _______ _______ _____ _____    ______ ____
ROOT
ATOM      1  C   UNL     1       0.767  -5.837   1.013  0.00  0.00    +0.345 C 
ATOM      2  O   UNL     1       1.300  -6.310   1.997  0.00  0.00    -0.245 OA
ENDROOT
BRANCH   1   5
ATOM      3  C   UNL     1      -2.392  -4.433   2.488  0.00  0.00    +0.070 A 
ATOM      4  C   UNL     1      -1.166  -5.067   2.380  0.00  0.00    +0.041 A 
ATOM      5  C   UNL     1      -0.540  -5.162   1.135  0.00  0.00    +0.061 A 
ATOM      6  C   UNL     1      -1.155  -4.617   0.006  0.00  0.00    +0.018 A 
ATOM      7  C   UNL     1      -2.377  -3.987   0.122  0.00  0.00    +0.041 A 
ATOM      8  C   UNL     1      -3.000  -3.897   1.356  0.00  0.00    +0.145 A 
ATOM      9  F   UNL     1      -4.198  -3.283   1.462  0.00  0.00    -0.204 F 
BRANCH   3  13
ATOM     10  C   UNL     1      -2.967  -3.976   6.181  0.00  0.00    +0.109 C 
ATOM     11  C   UNL     1      -2.286  -4.181   4.853  0.00  0.00    +0.214 C 
ATOM     12  O   UNL     1      -1.075  -4.207   4.789  0.00  0.00    -0.276 OA
ATOM     13  N   UNL     1      -3.023  -4.336   3.734  0.00  0.00    -0.283 N 
ATOM     14  H   UNL     1      -3.990  -4.380   3.793  0.00  0.00    +0.155 HD
ENDBRANCH   3  13
ENDBRANCH   1   5
BRANCH   1  15
ATOM     15  O   UNL     1       1.369  -5.927  -0.189  0.00  0.00    -0.419 OA
BRANCH  15  16
ATOM     16  C   UNL     1       2.519  -6.647  -0.274  0.00  0.00    +0.174 A 
ATOM     17  C   UNL     1       3.741  -5.997  -0.278  0.00  0.00    +0.050 A 
ATOM     18  C   UNL     1       4.915  -6.721  -0.365  0.00  0.00    +0.004 A 
ATOM     19  C   UNL     1       4.868  -8.101  -0.452  0.00  0.00    +0.007 A 
ATOM     20  C   UNL     1       3.653  -8.752  -0.452  0.00  0.00    +0.002 A 
ATOM     21  C   UNL     1       2.466  -8.041  -0.352  0.00  0.00    +0.167 A 
ATOM     22  O   UNL     1       1.389  -8.875  -0.341  0.00  0.00    -0.482 OA
ATOM     23  C   UNL     1       1.777 -10.155  -0.871  0.00  0.00    +0.109 C 
ATOM     24  C   UNL     1       3.285 -10.220  -0.546  0.00  0.00    +0.086 C 
ATOM     25  C   UNL     1       1.558 -10.204  -2.384  0.00  0.00    +0.056 C 
ATOM     26  C   UNL     1       1.015 -11.284  -0.174  0.00  0.00    +0.056 C 
ENDBRANCH  15  16
ENDBRANCH   1  15
TORSDOF 4
