REMARK  Name = ZINC30014413
REMARK  10 active torsions:
REMARK  status: ('A' for Active; 'I' for Inactive)
REMARK    1  A    between atoms: C_1  and  N_2
REMARK    2  A    between atoms: N_2  and  C_3
REMARK    3  A    between atoms: N_2  and  C_4
REMARK    4  A    between atoms: C_4  and  C_6
REMARK    5  A    between atoms: C_4  and  C_27
REMARK    6  A    between atoms: C_6  and  N_7
REMARK    7  A    between atoms: C_8  and  C_10
REMARK    8  A    between atoms: C_10  and  S_11
REMARK    9  A    between atoms: S_11  and  C_12
REMARK   10  A    between atoms: C_12  and  C_13
REMARK                            x       y       z     vdW  Elec       q    Type
REMARK                         _______ _______ _______ _____ _____    ______ ____
ROOT
ATOM      1  N   UNL     1       0.204  -2.151   0.754  0.00  0.00    -0.316 N 
ATOM      2  C   UNL     1       0.641  -3.421   0.865  0.00  0.00    +0.223 C 
ATOM      3  O   UNL     1       0.254  -4.266   0.086  0.00  0.00    -0.275 OA
ATOM      4  H   UNL     1       0.514  -1.476   1.377  0.00  0.00    +0.149 HD
ENDROOT
BRANCH   1   5
ATOM      5  C   UNL     1      -0.737  -1.790  -0.309  0.00  0.00    +0.093 C 
BRANCH   5   6
ATOM      6  C   UNL     1      -1.168  -0.333  -0.135  0.00  0.00    -0.021 C 
BRANCH   6   7
ATOM      7  C   UNL     1      -1.945  -0.188   1.148  0.00  0.00    -0.057 A 
ATOM      8  C   UNL     1      -3.277  -0.556   1.194  0.00  0.00    +0.002 A 
ATOM      9  C   UNL     1      -3.991  -0.424   2.371  0.00  0.00    +0.003 A 
ATOM     10  C   UNL     1      -3.375   0.077   3.501  0.00  0.00    +0.038 A 
ATOM     11  C   UNL     1      -2.041   0.447   3.456  0.00  0.00    +0.124 A 
ATOM     12  C   UNL     1      -1.325   0.308   2.279  0.00  0.00    +0.040 A 
ATOM     13  F   UNL     1      -1.438   0.938   4.560  0.00  0.00    -0.205 F 
ENDBRANCH   6   7
BRANCH   6  15
ATOM     14  C   UNL     1      -2.469   1.450  -1.076  0.00  0.00    -0.096 C 
ATOM     15  N   UNL     1      -2.014   0.066  -1.268  0.00  0.00    +0.382 N 
ATOM     16  C   UNL     1      -1.241  -0.027  -2.513  0.00  0.00    -0.096 C 
ATOM     17  H   UNL     1      -2.814  -0.546  -1.322  0.00  0.00    -0.082 HD
ENDBRANCH   6  15
ENDBRANCH   5   6
ENDBRANCH   1   5
BRANCH   2  18
ATOM     18  C   UNL     1       1.609  -3.792   1.958  0.00  0.00    +0.165 C 
BRANCH  18  19
ATOM     19  S   UNL     1       2.003  -5.559   1.844  0.00  0.00    -0.144 S 
BRANCH  19  20
ATOM     20  C   UNL     1       3.163  -5.840   3.210  0.00  0.00    +0.143 C 
BRANCH  20  21
ATOM     21  C   UNL     1       3.575  -7.290   3.229  0.00  0.00    +0.121 A 
ATOM     22  N   UNL     1       4.441  -7.723   4.180  0.00  0.00    -0.310 N 
ATOM     23  H   UNL     1       4.783  -7.094   4.835  0.00  0.00    +0.170 HD
ATOM     24  C   UNL     1       4.836  -9.010   4.233  0.00  0.00    +0.260 A 
ATOM     25  O   UNL     1       5.614  -9.386   5.093  0.00  0.00    -0.267 OA
ATOM     26  C   UNL     1       4.324  -9.929   3.261  0.00  0.00    +0.075 A 
ATOM     27  C   UNL     1       4.614 -11.365   3.129  0.00  0.00    -0.023 A 
ATOM     28  C   UNL     1       4.005 -12.017   2.124  0.00  0.00    -0.004 A 
ATOM     29  S   UNL     1       3.020 -10.784   1.305  0.00  0.00    -0.073 S 
ATOM     30  C   UNL     1       3.437  -9.391   2.320  0.00  0.00    +0.116 A 
ATOM     31  N   UNL     1       3.088  -8.106   2.333  0.00  0.00    -0.226 NA
ATOM     32  C   UNL     1       4.379 -13.475   2.084  0.00  0.00    +0.043 C 
ATOM     33  C   UNL     1       5.654 -13.571   2.950  0.00  0.00    +0.010 C 
ATOM     34  C   UNL     1       5.484 -12.366   3.895  0.00  0.00    +0.037 C 
ENDBRANCH  20  21
ENDBRANCH  19  20
ENDBRANCH  18  19
ENDBRANCH   2  18
TORSDOF 8
