REMARK  Name = ZINC12577550
REMARK  7 active torsions:
REMARK  status: ('A' for Active; 'I' for Inactive)
REMARK    1  A    between atoms: C_1  and  C_2
REMARK    2  A    between atoms: C_2  and  C_4
REMARK    3  A    between atoms: C_2  and  O_18
REMARK    4  A    between atoms: N_6  and  N_7
REMARK    5  A    between atoms: C_8  and  C_9
REMARK    6  A    between atoms: C_14  and  O_15
REMARK    7  A    between atoms: O_18  and  C_19
REMARK                            x       y       z     vdW  Elec       q    Type
REMARK                         _______ _______ _______ _____ _____    ______ ____
ROOT
ATOM      1  C   UNL     1      -2.425  -4.152  -0.241  0.00  0.00    +0.273 C 
ATOM      2  O   UNL     1      -1.392  -4.761  -0.422  0.00  0.00    -0.270 OA
ATOM      3  N   UNL     1      -2.427  -2.805  -0.272  0.00  0.00    -0.204 N 
ATOM      4  H   UNL     1      -3.253  -2.317  -0.128  0.00  0.00    +0.177 HD
ENDROOT
BRANCH   1   6
ATOM      5  C   UNL     1      -4.683  -4.656  -1.135  0.00  0.00    +0.062 C 
ATOM      6  C   UNL     1      -3.707  -4.902   0.018  0.00  0.00    +0.257 C 
BRANCH   6   7
ATOM      7  O   UNL     1      -3.429  -6.300   0.117  0.00  0.00    -0.478 OA
BRANCH   7   8
ATOM      8  C   UNL     1      -4.303  -7.053   0.835  0.00  0.00    +0.140 A 
ATOM      9  C   UNL     1      -5.464  -6.482   1.336  0.00  0.00    +0.048 A 
ATOM     10  C   UNL     1      -6.353  -7.250   2.062  0.00  0.00    +0.023 A 
ATOM     11  C   UNL     1      -6.083  -8.587   2.298  0.00  0.00    +0.043 A 
ATOM     12  C   UNL     1      -4.925  -9.158   1.804  0.00  0.00    +0.043 A 
ATOM     13  C   UNL     1      -4.034  -8.394   1.073  0.00  0.00    +0.084 A 
ATOM     14 CL   UNL     1      -2.579  -9.111   0.453  0.00  0.00    -0.080 Cl
ATOM     15 CL   UNL     1      -7.201  -9.548   3.215  0.00  0.00    -0.083 Cl
ENDBRANCH   7   8
ENDBRANCH   6   7
ENDBRANCH   1   6
BRANCH   3  16
ATOM     16  N   UNL     1      -1.236  -2.108  -0.513  0.00  0.00    -0.188 NA
ATOM     17  C   UNL     1      -1.238  -0.810  -0.543  0.00  0.00    +0.142 C 
BRANCH  17  18
ATOM     18  C   UNL     1       0.015  -0.077  -0.796  0.00  0.00    +0.039 A 
ATOM     19  C   UNL     1       0.018   1.320  -0.829  0.00  0.00    +0.033 A 
ATOM     20  C   UNL     1       1.194   2.000  -1.067  0.00  0.00    +0.043 A 
ATOM     21  C   UNL     1       2.374   1.304  -1.274  0.00  0.00    +0.043 A 
ATOM     22  C   UNL     1       2.384  -0.078  -1.244  0.00  0.00    +0.084 A 
ATOM     23  C   UNL     1       1.211  -0.777  -1.006  0.00  0.00    +0.144 A 
ATOM     24 CL   UNL     1       3.869  -0.940  -1.504  0.00  0.00    -0.080 Cl
ATOM     25 CL   UNL     1       1.196   3.736  -1.108  0.00  0.00    -0.083 Cl
BRANCH  23  26
ATOM     26  O   UNL     1       1.220  -2.135  -0.977  0.00  0.00    -0.505 OA
ATOM     27  H   UNL     1       1.059  -2.548  -1.836  0.00  0.00    +0.292 HD
ENDBRANCH  23  26
ENDBRANCH  17  18
ENDBRANCH   3  16
TORSDOF 6
