REMARK  Name = ZINC04290049
REMARK  9 active torsions:
REMARK  status: ('A' for Active; 'I' for Inactive)
REMARK    1  A    between atoms: C_1  and  C_2
REMARK    2  A    between atoms: C_6  and  C_9
REMARK    3  A    between atoms: C_10  and  C_11
REMARK    4  A    between atoms: C_10  and  N_64
REMARK    5  A    between atoms: C_12  and  O_39
REMARK    6  A    between atoms: C_18  and  C_35
REMARK    7  A    between atoms: C_19  and  O_22
REMARK    8  A    between atoms: O_22  and  C_23
REMARK    9  A    between atoms: C_26  and  C_29
REMARK                            x       y       z     vdW  Elec       q    Type
REMARK                         _______ _______ _______ _____ _____    ______ ____
ROOT
ATOM      1  C   UNL     1      -4.992   8.139   0.304  0.00  0.00    +0.020 A 
ATOM      2  C   UNL     1      -5.687   8.496  -0.839  0.00  0.00    +0.122 A 
ATOM      3  C   UNL     1      -5.162   8.226  -2.101  0.00  0.00    +0.046 A 
ATOM      4  C   UNL     1      -3.953   7.603  -2.227  0.00  0.00    +0.019 A 
ATOM      5  C   UNL     1      -3.241   7.236  -1.085  0.00  0.00    +0.068 A 
ATOM      6  C   UNL     1      -3.763   7.505   0.193  0.00  0.00    +0.144 A 
ATOM      7  O   UNL     1      -3.066   7.147   1.290  0.00  0.00    -0.447 OA
ATOM      8  C   UNL     1      -1.877   6.535   1.217  0.00  0.00    +0.254 A 
ATOM      9  C   UNL     1      -1.284   6.230   0.045  0.00  0.00    +0.222 A 
ATOM     10  C   UNL     1      -1.931   6.569  -1.177  0.00  0.00    +0.235 A 
ATOM     11  O   UNL     1      -1.423   6.313  -2.256  0.00  0.00    -0.283 OA
ENDROOT
BRANCH   8  12
ATOM     12  C   UNL     1      -1.171   6.172   2.499  0.00  0.00    +0.454 C 
ATOM     13  F   UNL     1      -0.349   7.233   2.895  0.00  0.00    -0.163 F 
ATOM     14  F   UNL     1      -2.118   5.918   3.497  0.00  0.00    -0.163 F 
ATOM     15  F   UNL     1      -0.391   5.029   2.294  0.00  0.00    -0.163 F 
ENDBRANCH   8  12
BRANCH   2  16
ATOM     16  O   UNL     1      -6.890   9.116  -0.730  0.00  0.00    -0.506 OA
ATOM     17  H   UNL     1      -6.834  10.081  -0.698  0.00  0.00    +0.292 HD
ENDBRANCH   2  16
BRANCH   1  18
ATOM     18  C   UNL     1      -5.570   8.437   1.664  0.00  0.00    -0.035 C 
BRANCH  18  26
ATOM     19  C   UNL     1      -6.089  12.021   4.998  0.00  0.00    +0.036 C 
ATOM     20  C   UNL     1      -5.396  11.602   3.700  0.00  0.00    +0.099 C 
ATOM     21  C   UNL     1      -5.848  10.192   3.310  0.00  0.00    -0.047 C 
ATOM     22  C   UNL     1      -3.671   9.783   2.337  0.00  0.00    -0.047 C 
ATOM     23  C   UNL     1      -3.241  11.197   2.736  0.00  0.00    +0.099 C 
ATOM     24  O   UNL     1      -3.979  11.607   3.891  0.00  0.00    -0.378 OA
ATOM     25  C   UNL     1      -3.520  12.162   1.582  0.00  0.00    +0.036 C 
ATOM     26  N   UNL     1      -5.128   9.784   2.086  0.00  0.00    +0.386 N 
ATOM     27  H   UNL     1      -5.337  10.454   1.337  0.00  0.00    -0.081 HD
ENDBRANCH  18  26
ENDBRANCH   1  18
BRANCH   9  28
ATOM     28  O   UNL     1      -0.074   5.607   0.031  0.00  0.00    -0.448 OA
BRANCH  28  29
ATOM     29  C   UNL     1      -0.056   4.249   0.024  0.00  0.00    +0.129 A 
ATOM     30  C   UNL     1       1.157   3.573   0.010  0.00  0.00    +0.047 A 
ATOM     31  C   UNL     1       1.179   2.194   0.003  0.00  0.00    +0.012 A 
ATOM     32  C   UNL     1      -0.018   1.479   0.010  0.00  0.00    -0.018 A 
ATOM     33  C   UNL     1      -1.234   2.161   0.020  0.00  0.00    +0.012 A 
ATOM     34  C   UNL     1      -1.250   3.540   0.032  0.00  0.00    +0.047 A 
BRANCH  32  35
ATOM     35  C   UNL     1       0.002  -0.004   0.002  0.00  0.00    -0.018 A 
ATOM     36  C   UNL     1       1.217  -0.687  -0.019  0.00  0.00    +0.008 A 
ATOM     37  C   UNL     1       1.230  -2.067  -0.022  0.00  0.00    +0.001 A 
ATOM     38  C   UNL     1       0.040  -2.772  -0.014  0.00  0.00    +0.000 A 
ATOM     39  C   UNL     1      -1.169  -2.100   0.002  0.00  0.00    +0.001 A 
ATOM     40  C   UNL     1      -1.194  -0.720   0.010  0.00  0.00    +0.008 A 
ENDBRANCH  32  35
ENDBRANCH  28  29
ENDBRANCH   9  28
TORSDOF 7
