REMARK  Name = ZINC11252397
REMARK  6 active torsions:
REMARK  status: ('A' for Active; 'I' for Inactive)
REMARK    1  A    between atoms: C_1  and  C_2
REMARK    2  A    between atoms: C_5  and  C_7
REMARK    3  A    between atoms: C_8  and  C_13
REMARK    4  A    between atoms: N_14  and  N_15
REMARK    5  A    between atoms: C_18  and  C_26
REMARK    6  A    between atoms: C_19  and  C_25
REMARK                            x       y       z     vdW  Elec       q    Type
REMARK                         _______ _______ _______ _____ _____    ______ ____
ROOT
ATOM      1  C   UNL     1       3.366  -2.195  -2.532  0.00  0.00    +0.142 C 
ATOM      2  N   UNL     1       2.922  -0.994  -2.318  0.00  0.00    -0.189 NA
ENDROOT
BRANCH   2   3
ATOM      3  N   UNL     1       3.618   0.111  -2.827  0.00  0.00    -0.220 N 
ATOM      4  C   UNL     1       3.089   1.381  -2.697  0.00  0.00    +0.150 A 
ATOM      5  C   UNL     1       3.946   2.510  -2.581  0.00  0.00    +0.052 A 
ATOM      6  C   UNL     1       5.397   2.578  -2.573  0.00  0.00    -0.028 A 
ATOM      7  C   UNL     1       5.996   3.772  -2.451  0.00  0.00    -0.008 A 
ATOM      8  S   UNL     1       4.631   4.913  -2.335  0.00  0.00    -0.074 S 
ATOM      9  C   UNL     1       3.293   3.756  -2.454  0.00  0.00    +0.114 A 
ATOM     10  N   UNL     1       1.977   3.844  -2.445  0.00  0.00    -0.228 NA
ATOM     11  C   UNL     1       1.235   2.759  -2.556  0.00  0.00    +0.224 A 
ATOM     12  N   UNL     1       1.778   1.562  -2.684  0.00  0.00    -0.219 NA
ATOM     13  C   UNL     1       7.471   4.077  -2.420  0.00  0.00    +0.052 C 
ATOM     14  C   UNL     1       6.220   1.322  -2.701  0.00  0.00    +0.045 C 
ATOM     15  H   UNL     1       4.472  -0.016  -3.270  0.00  0.00    +0.176 HD
ENDBRANCH   2   3
BRANCH   1  17
ATOM     16  C   UNL     1       1.323  -3.337  -1.336  0.00  0.00    +0.136 A 
ATOM     17  C   UNL     1       2.570  -3.361  -2.107  0.00  0.00    +0.043 A 
ATOM     18  C   UNL     1       2.851  -4.676  -2.355  0.00  0.00    +0.115 A 
ATOM     19  N   UNL     1       1.879  -5.423  -1.797  0.00  0.00    -0.283 N 
ATOM     20  H   UNL     1       1.833  -6.392  -1.824  0.00  0.00    +0.188 HD
ATOM     21  N   UNL     1       0.949  -4.589  -1.170  0.00  0.00    -0.170 NA
BRANCH  16  26
ATOM     22  C   UNL     1       0.503   1.160   0.736  0.00  0.00    +0.086 C 
ATOM     23  C   UNL     1       0.258  -0.170   0.071  0.00  0.00    +0.103 A 
ATOM     24  C   UNL     1      -0.944  -0.657  -0.293  0.00  0.00    +0.045 A 
ATOM     25  C   UNL     1      -0.719  -1.920  -0.876  0.00  0.00    +0.052 A 
ATOM     26  C   UNL     1       0.624  -2.137  -0.835  0.00  0.00    +0.156 A 
ATOM     27  O   UNL     1       1.204  -1.064  -0.263  0.00  0.00    -0.458 OA
ENDBRANCH  16  26
ENDBRANCH   1  17
TORSDOF 3
