REMARK  Name = ZINC32508482
REMARK  11 active torsions:
REMARK  status: ('A' for Active; 'I' for Inactive)
REMARK    1  A    between atoms: C_1  and  C_2
REMARK    2  A    between atoms: C_2  and  N_3
REMARK    3  A    between atoms: N_3  and  C_4
REMARK    4  A    between atoms: N_3  and  C_6
REMARK    5  A    between atoms: C_4  and  C_5
REMARK    6  A    between atoms: C_9  and  N_13
REMARK    7  A    between atoms: C_10  and  C_12
REMARK    8  A    between atoms: N_25  and  C_26
REMARK    9  A    between atoms: C_26  and  C_28
REMARK   10  A    between atoms: C_28  and  C_29
REMARK   11  A    between atoms: C_29  and  C_30
REMARK                            x       y       z     vdW  Elec       q    Type
REMARK                         _______ _______ _______ _____ _____    ______ ____
ROOT
ATOM      1  N   UNL     1      -0.101  -6.033  -1.707  0.00  0.00    -0.276 N 
ATOM      2  C   UNL     1       0.828  -6.944  -2.316  0.00  0.00    +0.116 C 
ATOM      3  C   UNL     1       2.182  -6.575  -2.881  0.00  0.00    +0.190 C 
ATOM      4  S   UNL     1       2.970  -8.251  -2.950  0.00  0.00    -0.028 S 
ATOM      5  O   UNL     1       4.161  -8.236  -2.175  0.00  0.00    -0.174 OA
ATOM      6  O   UNL     1       3.020  -8.685  -4.303  0.00  0.00    -0.174 OA
ATOM      7  C   UNL     1       1.671  -9.221  -2.048  0.00  0.00    +0.182 C 
ATOM      8  C   UNL     1       1.078  -8.054  -1.222  0.00  0.00    +0.097 C 
ATOM      9  S   UNL     1      -0.687  -8.254  -0.791  0.00  0.00    -0.086 S 
ATOM     10  C   UNL     1      -1.232  -6.726  -1.267  0.00  0.00    +0.154 C 
ATOM     11  N   UNL     1      -2.482  -6.277  -1.230  0.00  0.00    -0.159 NA
ENDROOT
BRANCH   1  15
ATOM     12  C   UNL     1       0.501  -1.932  -1.297  0.00  0.00    +0.014 A 
ATOM     13  C   UNL     1       0.925  -2.794  -0.302  0.00  0.00    +0.023 A 
ATOM     14  C   UNL     1       0.727  -4.154  -0.435  0.00  0.00    +0.025 A 
ATOM     15  C   UNL     1       0.101  -4.656  -1.569  0.00  0.00    +0.039 A 
ATOM     16  C   UNL     1      -0.324  -3.787  -2.566  0.00  0.00    -0.027 A 
ATOM     17  C   UNL     1      -0.128  -2.427  -2.424  0.00  0.00    +0.026 A 
ATOM     18  C   UNL     1      -1.004  -4.327  -3.798  0.00  0.00    +0.046 C 
BRANCH  12  19
ATOM     19  N   UNL     1       0.703  -0.555  -1.160  0.00  0.00    -0.394 NA
ATOM     20  H   UNL     1       0.332  -0.078  -1.968  0.00  0.00    +0.126 HD
BRANCH  19  22
ATOM     21  C   UNL     1      -1.495  -0.229  -0.130  0.00  0.00    +0.022 C 
ATOM     22  C   UNL     1       0.017  -0.078   0.048  0.00  0.00    +0.081 C 
ENDBRANCH  19  22
BRANCH  19  23
ATOM     23  C   UNL     1       2.142  -0.280  -1.047  0.00  0.00    +0.081 C 
ATOM     24  C   UNL     1       2.837  -0.660  -2.356  0.00  0.00    +0.022 C 
ENDBRANCH  19  23
ENDBRANCH  12  19
ENDBRANCH   1  15
BRANCH  11  25
ATOM     25  C   UNL     1      -3.458  -7.063  -0.781  0.00  0.00    +0.239 C 
ATOM     26  O   UNL     1      -3.205  -8.191  -0.405  0.00  0.00    -0.274 OA
BRANCH  25  27
ATOM     27  C   UNL     1      -4.875  -6.553  -0.738  0.00  0.00    +0.109 C 
BRANCH  27  28
ATOM     28  C   UNL     1      -5.793  -7.646  -0.185  0.00  0.00    +0.134 C 
BRANCH  28  29
ATOM     29  C   UNL     1      -7.211  -7.137  -0.143  0.00  0.00    +0.356 C 
ATOM     30  O   UNL     1      -7.464  -6.005  -0.520  0.00  0.00    -0.246 OA
ATOM     31  O   UNL     1      -8.105  -7.856   0.268  0.00  0.00    -0.246 OA
ENDBRANCH  28  29
ENDBRANCH  27  28
ENDBRANCH  25  27
ENDBRANCH  11  25
TORSDOF 8
