REMARK  Name = ZINC09912755
REMARK  12 active torsions:
REMARK  status: ('A' for Active; 'I' for Inactive)
REMARK    1  A    between atoms: C_1  and  C_2
REMARK    2  A    between atoms: C_5  and  C_8
REMARK    3  A    between atoms: N_15  and  C_18
REMARK    4  A    between atoms: C_18  and  C_19
REMARK    5  A    between atoms: C_19  and  C_20
REMARK    6  A    between atoms: N_22  and  C_23
REMARK    7  A    between atoms: C_23  and  C_24
REMARK    8  A    between atoms: C_24  and  C_26
REMARK    9  A    between atoms: C_24  and  N_64
REMARK   10  A    between atoms: C_26  and  C_27
REMARK   11  A    between atoms: C_33  and  N_64
REMARK   12  A    between atoms: C_34  and  N_64
REMARK                            x       y       z     vdW  Elec       q    Type
REMARK                         _______ _______ _______ _____ _____    ______ ____
ROOT
ATOM      1  C   UNL     1      -1.218  -0.636  -0.131  0.00  0.00    +0.135 C 
ENDROOT
BRANCH   1   9
ATOM      2  C   UNL     1       1.949   3.256  -0.553  0.00  0.00    +0.004 A 
ATOM      3  C   UNL     1       3.268   3.567  -0.550  0.00  0.00    +0.056 A 
ATOM      4  S   UNL     1       4.062   1.990  -0.309  0.00  0.00    -0.076 S 
ATOM      5  C   UNL     1       2.620   0.960  -0.218  0.00  0.00    +0.116 A 
ATOM      6  C   UNL     1       1.556   1.863  -0.377  0.00  0.00    +0.080 A 
ATOM      7  C   UNL     1       0.245   1.289  -0.343  0.00  0.00    +0.263 A 
ATOM      8  O   UNL     1      -0.742   1.992  -0.477  0.00  0.00    -0.267 OA
ATOM      9  N   UNL     1       0.119  -0.039  -0.167  0.00  0.00    -0.298 N 
ATOM     10  C   UNL     1       1.208  -0.838  -0.021  0.00  0.00    +0.203 A 
ATOM     11  N   UNL     1       2.416  -0.343  -0.048  0.00  0.00    -0.230 NA
BRANCH   2  16
ATOM     12  C   UNL     1      -2.030   7.361  -1.247  0.00  0.00    +0.044 C 
ATOM     13  C   UNL     1      -0.989   6.286  -1.065  0.00  0.00    -0.050 A 
ATOM     14  C   UNL     1       0.013   6.450  -0.125  0.00  0.00    +0.004 A 
ATOM     15  C   UNL     1       0.969   5.470   0.046  0.00  0.00    +0.009 A 
ATOM     16  C   UNL     1       0.924   4.313  -0.731  0.00  0.00    -0.017 A 
ATOM     17  C   UNL     1      -0.084   4.156  -1.681  0.00  0.00    +0.009 A 
ATOM     18  C   UNL     1      -1.038   5.141  -1.839  0.00  0.00    +0.004 A 
ENDBRANCH   2  16
ENDBRANCH   1   9
BRANCH   1  19
ATOM     19  C   UNL     1      -1.635  -1.038  -1.547  0.00  0.00    +0.117 C 
BRANCH  19  20
ATOM     20  C   UNL     1      -3.011  -1.651  -1.511  0.00  0.00    +0.215 C 
ATOM     21  O   UNL     1      -3.601  -1.756  -0.456  0.00  0.00    -0.276 OA
ATOM     22  N   UNL     1      -3.587  -2.082  -2.650  0.00  0.00    -0.317 N 
ATOM     23  H   UNL     1      -3.116  -1.998  -3.494  0.00  0.00    +0.149 HD
BRANCH  22  24
ATOM     24  C   UNL     1      -4.925  -2.679  -2.615  0.00  0.00    +0.089 C 
BRANCH  24  25
ATOM     25  C   UNL     1      -5.395  -2.961  -4.043  0.00  0.00    -0.048 C 
BRANCH  25  28
ATOM     26  C   UNL     1      -6.479  -5.062  -3.520  0.00  0.00    -0.096 C 
ATOM     27  C   UNL     1      -7.659  -2.974  -3.183  0.00  0.00    -0.096 C 
ATOM     28  N   UNL     1      -6.681  -3.690  -4.030  0.00  0.00    +0.379 N 
ATOM     29  H   UNL     1      -7.045  -3.740  -4.989  0.00  0.00    -0.082 HD
ENDBRANCH  25  28
BRANCH  25  30
ATOM     30  C   UNL     1      -5.585  -1.639  -4.789  0.00  0.00    +0.021 C 
BRANCH  30  31
ATOM     31  C   UNL     1      -5.928  -1.920  -6.229  0.00  0.00    -0.049 A 
ATOM     32  C   UNL     1      -4.922  -2.034  -7.170  0.00  0.00    +0.003 A 
ATOM     33  C   UNL     1      -5.237  -2.296  -8.491  0.00  0.00    +0.000 A 
ATOM     34  C   UNL     1      -6.559  -2.433  -8.872  0.00  0.00    +0.000 A 
ATOM     35  C   UNL     1      -7.566  -2.314  -7.931  0.00  0.00    +0.000 A 
ATOM     36  C   UNL     1      -7.250  -2.057  -6.610  0.00  0.00    +0.003 A 
ENDBRANCH  30  31
ENDBRANCH  25  30
ENDBRANCH  24  25
ENDBRANCH  22  24
ENDBRANCH  19  20
ENDBRANCH   1  19
TORSDOF 9
