REMARK  Name = ZINC08845438
REMARK  8 active torsions:
REMARK  status: ('A' for Active; 'I' for Inactive)
REMARK    1  A    between atoms: C_1  and  C_2
REMARK    2  A    between atoms: C_2  and  C_3
REMARK    3  A    between atoms: C_2  and  C_4
REMARK    4  A    between atoms: C_7  and  C_10
REMARK    5  A    between atoms: C_13  and  C_28
REMARK    6  A    between atoms: N_20  and  C_21
REMARK    7  A    between atoms: C_21  and  C_22
REMARK    8  A    between atoms: C_33  and  O_34
REMARK                            x       y       z     vdW  Elec       q    Type
REMARK                         _______ _______ _______ _____ _____    ______ ____
ROOT
ATOM      1  C   UNL     1      -5.057  -1.855  -0.275  0.00  0.00    +0.142 C 
ATOM      2  C   UNL     1      -6.152  -1.046  -0.913  0.00  0.00    +0.035 A 
ATOM      3  C   UNL     1      -6.848   0.167  -0.962  0.00  0.00    +0.102 A 
ATOM      4  N   UNL     1      -7.768   0.057  -1.900  0.00  0.00    -0.173 NA
ATOM      5  N   UNL     1      -7.723  -1.105  -2.447  0.00  0.00    -0.272 N 
ATOM      6  H   UNL     1      -8.307  -1.408  -3.160  0.00  0.00    +0.189 HD
ATOM      7  C   UNL     1      -6.731  -1.851  -1.876  0.00  0.00    +0.126 A 
ATOM      8  C   UNL     1      -6.043  -3.147  -1.876  0.00  0.00    +0.266 C 
ATOM      9  O   UNL     1      -6.316  -4.077  -2.610  0.00  0.00    -0.268 OA
ATOM     10  N   UNL     1      -5.068  -3.160  -0.948  0.00  0.00    -0.281 N 
ENDROOT
BRANCH   1  14
ATOM     11  C   UNL     1      -1.286   0.067  -0.855  0.00  0.00    -0.045 A 
ATOM     12  C   UNL     1      -1.949  -0.493  -1.931  0.00  0.00    +0.004 A 
ATOM     13  C   UNL     1      -3.169  -1.115  -1.743  0.00  0.00    +0.006 A 
ATOM     14  C   UNL     1      -3.726  -1.178  -0.479  0.00  0.00    -0.022 A 
ATOM     15  C   UNL     1      -3.062  -0.619   0.597  0.00  0.00    +0.006 A 
ATOM     16  C   UNL     1      -1.840  -0.000   0.410  0.00  0.00    +0.004 A 
BRANCH  11  18
ATOM     17  C   UNL     1       1.045  -0.258  -1.635  0.00  0.00    +0.012 C 
ATOM     18  C   UNL     1       0.044   0.745  -1.059  0.00  0.00    +0.013 C 
ATOM     19  C   UNL     1      -0.123   1.914  -2.032  0.00  0.00    +0.012 C 
ENDBRANCH  11  18
ENDBRANCH   1  14
BRANCH   3  20
ATOM     20  C   UNL     1      -6.595   1.359  -0.115  0.00  0.00    +0.044 A 
ATOM     21  C   UNL     1      -5.667   1.296   0.921  0.00  0.00    +0.014 A 
ATOM     22  C   UNL     1      -5.435   2.407   1.707  0.00  0.00    +0.001 A 
ATOM     23  C   UNL     1      -6.123   3.584   1.469  0.00  0.00    +0.004 A 
ATOM     24  C   UNL     1      -7.047   3.657   0.444  0.00  0.00    +0.046 A 
ATOM     25  C   UNL     1      -7.284   2.550  -0.356  0.00  0.00    +0.126 A 
BRANCH  25  26
ATOM     26  O   UNL     1      -8.188   2.623  -1.368  0.00  0.00    -0.506 OA
ATOM     27  H   UNL     1      -9.089   2.385  -1.109  0.00  0.00    +0.292 HD
ENDBRANCH  25  26
ENDBRANCH   3  20
BRANCH  10  28
ATOM     28  C   UNL     1      -4.171  -4.282  -0.659  0.00  0.00    +0.145 C 
BRANCH  28  29
ATOM     29  C   UNL     1      -4.786  -5.156   0.404  0.00  0.00    -0.012 A 
ATOM     30  C   UNL     1      -4.537  -4.910   1.745  0.00  0.00    +0.008 A 
ATOM     31  C   UNL     1      -5.124  -5.740   2.688  0.00  0.00    +0.020 A 
ATOM     32  C   UNL     1      -5.933  -6.777   2.263  0.00  0.00    +0.111 A 
ATOM     33  N   UNL     1      -6.147  -6.981   0.978  0.00  0.00    -0.263 NA
ATOM     34  C   UNL     1      -5.610  -6.209   0.053  0.00  0.00    +0.115 A 
ENDBRANCH  28  29
ENDBRANCH  10  28
TORSDOF 6
