REMARK  Name = ZINC22067410
REMARK  9 active torsions:
REMARK  status: ('A' for Active; 'I' for Inactive)
REMARK    1  A    between atoms: C_4  and  C_7
REMARK    2  A    between atoms: C_7  and  C_8
REMARK    3  A    between atoms: C_7  and  C_14
REMARK    4  A    between atoms: C_7  and  N_20
REMARK    5  A    between atoms: C_24  and  C_25
REMARK    6  A    between atoms: C_25  and  C_26
REMARK    7  A    between atoms: C_26  and  C_27
REMARK    8  A    between atoms: C_27  and  C_29
REMARK    9  A    between atoms: C_27  and  N_31
REMARK                            x       y       z     vdW  Elec       q    Type
REMARK                         _______ _______ _______ _____ _____    ______ ____
ROOT
ATOM      1  C   UNL     1       2.200   3.309  -0.086  0.00  0.00    +0.122 C 
ENDROOT
BRANCH   1   5
ATOM      2  C   UNL     1       6.404   4.022   0.161  0.00  0.00    +0.000 A 
ATOM      3  C   UNL     1       5.852   3.540  -1.012  0.00  0.00    +0.000 A 
ATOM      4  C   UNL     1       4.492   3.309  -1.091  0.00  0.00    +0.006 A 
ATOM      5  C   UNL     1       3.683   3.560   0.001  0.00  0.00    -0.013 A 
ATOM      6  C   UNL     1       4.234   4.047   1.172  0.00  0.00    +0.006 A 
ATOM      7  C   UNL     1       5.595   4.274   1.253  0.00  0.00    +0.000 A 
ENDBRANCH   1   5
BRANCH   1   8
ATOM      8  C   UNL     1       1.593   4.230  -1.113  0.00  0.00    -0.013 A 
ATOM      9  C   UNL     1       0.923   3.705  -2.202  0.00  0.00    +0.006 A 
ATOM     10  C   UNL     1       0.362   4.550  -3.141  0.00  0.00    +0.000 A 
ATOM     11  C   UNL     1       0.481   5.920  -2.997  0.00  0.00    +0.000 A 
ATOM     12  C   UNL     1       1.156   6.444  -1.911  0.00  0.00    +0.000 A 
ATOM     13  C   UNL     1       1.712   5.599  -0.968  0.00  0.00    +0.006 A 
ENDBRANCH   1   8
BRANCH   1  14
ATOM     14  C   UNL     1       1.567   3.567   1.257  0.00  0.00    -0.013 A 
ATOM     15  C   UNL     1       0.610   4.556   1.392  0.00  0.00    +0.006 A 
ATOM     16  C   UNL     1       0.026   4.790   2.623  0.00  0.00    +0.000 A 
ATOM     17  C   UNL     1       0.406   4.043   3.721  0.00  0.00    +0.000 A 
ATOM     18  C   UNL     1       1.366   3.057   3.588  0.00  0.00    +0.000 A 
ATOM     19  C   UNL     1       1.947   2.820   2.356  0.00  0.00    +0.006 A 
ENDBRANCH   1  14
BRANCH   1  20
ATOM     20  N   UNL     1       1.962   1.917  -0.477  0.00  0.00    -0.316 N 
ATOM     21  C   UNL     1       2.904   1.000  -0.788  0.00  0.00    +0.200 A 
ATOM     22  N   UNL     1       2.312  -0.124  -1.086  0.00  0.00    -0.244 NA
ATOM     23  C   UNL     1       0.984   0.034  -0.977  0.00  0.00    +0.133 A 
ATOM     24  C   UNL     1       0.745   1.303  -0.598  0.00  0.00    +0.040 A 
BRANCH  24  25
ATOM     25  C   UNL     1      -0.605   1.930  -0.358  0.00  0.00    +0.057 C 
BRANCH  25  26
ATOM     26  C   UNL     1      -1.091   1.571   1.048  0.00  0.00    +0.040 C 
BRANCH  26  27
ATOM     27  C   UNL     1      -2.523   2.075   1.236  0.00  0.00    +0.155 C 
BRANCH  27  28
ATOM     28  N   UNL     1      -2.537   3.543   1.183  0.00  0.00    -0.316 NA
ATOM     29  H   UNL     1      -3.567   3.905   1.318  0.00  0.00    +0.119 HD
ATOM     30  H   UNL     1      -1.899   3.944   1.984  0.00  0.00    +0.119 HD
ENDBRANCH  27  28
BRANCH  27  31
ATOM     31  C   UNL     1      -3.034   1.626   2.542  0.00  0.00    +0.081 C 
ATOM     32  N   UNL     1      -3.428   1.280   3.549  0.00  0.00    -0.195 NA
ENDBRANCH  27  31
ENDBRANCH  26  27
ENDBRANCH  25  26
ENDBRANCH  24  25
ENDBRANCH   1  20
TORSDOF 9
