REMARK  Name = ZINC37885368
REMARK  10 active torsions:
REMARK  status: ('A' for Active; 'I' for Inactive)
REMARK    1  A    between atoms: C_1  and  C_2
REMARK    2  A    between atoms: C_2  and  N_3
REMARK    3  A    between atoms: N_3  and  C_4
REMARK    4  A    between atoms: N_3  and  C_6
REMARK    5  A    between atoms: C_4  and  C_5
REMARK    6  A    between atoms: C_6  and  C_7
REMARK    7  A    between atoms: C_7  and  C_9
REMARK    8  A    between atoms: C_7  and  O_20
REMARK    9  A    between atoms: C_9  and  N_10
REMARK   10  A    between atoms: N_10  and  C_11
REMARK                            x       y       z     vdW  Elec       q    Type
REMARK                         _______ _______ _______ _____ _____    ______ ____
ROOT
ATOM      1  C   UNL     1       0.668  -3.163  -3.568  0.00  0.00    +0.131 C 
ENDROOT
BRANCH   1   2
ATOM      2  N   UNL     1       1.391  -3.657  -4.742  0.00  0.00    -0.339 N 
ATOM      3  H   UNL     1       2.108  -3.130  -5.128  0.00  0.00    +0.146 HD
BRANCH   2   4
ATOM      4  C   UNL     1       1.048  -4.890  -5.306  0.00  0.00    +0.064 A 
ATOM      5  C   UNL     1       1.459  -5.204  -6.596  0.00  0.00    +0.064 A 
ATOM      6  C   UNL     1       1.118  -6.423  -7.151  0.00  0.00    +0.037 A 
ATOM      7  C   UNL     1       0.369  -7.331  -6.423  0.00  0.00    +0.021 A 
ATOM      8  C   UNL     1      -0.042  -7.021  -5.139  0.00  0.00    +0.037 A 
ATOM      9  C   UNL     1       0.301  -5.806  -4.576  0.00  0.00    +0.064 A 
ATOM     10 CL   UNL     1      -0.208  -5.422  -2.962  0.00  0.00    -0.082 Cl
ATOM     11 BR   UNL     1      -0.094  -8.998  -7.187  0.00  0.00    -0.050 Br
ATOM     12 CL   UNL     1       2.398  -4.065  -7.510  0.00  0.00    -0.082 Cl
ENDBRANCH   2   4
ENDBRANCH   1   2
BRANCH   1  13
ATOM     13  C   UNL     1       1.082  -1.717  -3.285  0.00  0.00    +0.115 C 
BRANCH  13  14
ATOM     14  O   UNL     1       2.488  -1.665  -3.036  0.00  0.00    -0.392 OA
ATOM     15  H   UNL     1       2.785  -2.254  -2.329  0.00  0.00    +0.210 HD
ENDBRANCH  13  14
BRANCH  13  16
ATOM     16  C   UNL     1       0.327  -1.201  -2.059  0.00  0.00    -0.046 C 
BRANCH  16  17
ATOM     17  N   UNL     1       0.723   0.188  -1.789  0.00  0.00    +0.381 N 
ATOM     18  H   UNL     1       1.728   0.242  -1.711  0.00  0.00    -0.082 HD
BRANCH  17  20
ATOM     19  C   UNL     1       0.789   2.472  -2.671  0.00  0.00    -0.017 C 
ATOM     20  C   UNL     1       0.270   1.049  -2.890  0.00  0.00    -0.082 C 
ENDBRANCH  17  20
BRANCH  17  21
ATOM     21  C   UNL     1       0.110   0.637  -0.532  0.00  0.00    -0.082 C 
ATOM     22  C   UNL     1       0.703  -0.154   0.636  0.00  0.00    -0.017 C 
ENDBRANCH  17  21
ENDBRANCH  16  17
ENDBRANCH  13  16
ENDBRANCH   1  13
TORSDOF 8
