REMARK  Name = ZINC67517467
REMARK  2 active torsions:
REMARK  status: ('A' for Active; 'I' for Inactive)
REMARK    1  A    between atoms: C_1  and  C_2
REMARK    2  A    between atoms: C_15  and  C_17
REMARK                            x       y       z     vdW  Elec       q    Type
REMARK                         _______ _______ _______ _____ _____    ______ ____
ROOT
ATOM      1  C   UNL     1       0.255   1.826   0.873  0.00  0.00    +0.007 C 
ATOM      2  C   UNL     1       0.257   0.323   0.586  0.00  0.00    -0.014 C 
ATOM      3  C   UNL     1      -1.179  -0.156   0.357  0.00  0.00    +0.005 C 
ATOM      4  C   UNL     1      -1.167  -1.656   0.056  0.00  0.00    +0.023 C 
ATOM      5  C   UNL     1      -0.555  -2.416   1.228  0.00  0.00    +0.080 C 
ATOM      6  C   UNL     1       0.865  -1.917   1.504  0.00  0.00    +0.010 C 
ATOM      7  C   UNL     1       0.854  -0.423   1.780  0.00  0.00    +0.008 C 
ATOM      8  C   UNL     1       1.414  -2.648   2.735  0.00  0.00    +0.007 C 
ATOM      9  C   UNL     1       0.545  -2.313   3.950  0.00  0.00    +0.019 C 
ATOM     10  C   UNL     1      -0.888  -2.794   3.702  0.00  0.00    +0.108 C 
ATOM     11  N   UNL     1      -1.361  -2.213   2.438  0.00  0.00    -0.292 N 
ATOM     12  C   UNL     1      -2.516  -1.520   2.389  0.00  0.00    +0.282 C 
ATOM     13  O   UNL     1      -2.958  -1.150   1.317  0.00  0.00    -0.267 OA
ENDROOT
BRANCH  12  14
ATOM     14  C   UNL     1      -3.240  -1.214   3.625  0.00  0.00    +0.191 A 
ATOM     15  C   UNL     1      -4.480  -0.648   3.710  0.00  0.00    +0.056 A 
ATOM     16  C   UNL     1      -4.782  -0.538   5.075  0.00  0.00    +0.063 A 
ATOM     17  C   UNL     1      -3.724  -1.035   5.758  0.00  0.00    +0.195 A 
ATOM     18  O   UNL     1      -2.800  -1.446   4.880  0.00  0.00    -0.439 OA
ATOM     19 CL   UNL     1      -3.590  -1.131   7.486  0.00  0.00    -0.043 Cl
ENDBRANCH  12  14
TORSDOF 1
