REMARK  Name = ZINC05160380
REMARK  8 active torsions:
REMARK  status: ('A' for Active; 'I' for Inactive)
REMARK    1  A    between atoms: C_1  and  C_2
REMARK    2  A    between atoms: C_6  and  C_22
REMARK    3  A    between atoms: C_10  and  C_12
REMARK    4  A    between atoms: C_12  and  C_13
REMARK    5  A    between atoms: C_12  and  C_17
REMARK    6  A    between atoms: C_12  and  O_21
REMARK    7  A    between atoms: C_22  and  C_23
REMARK    8  A    between atoms: C_22  and  C_24
REMARK                            x       y       z     vdW  Elec       q    Type
REMARK                         _______ _______ _______ _____ _____    ______ ____
ROOT
ATOM      1  C   UNL     1      -0.797   1.137   1.210  0.00  0.00    +0.008 C 
ATOM      2  C   UNL     1      -0.147   0.813  -0.137  0.00  0.00    -0.000 C 
ATOM      3  C   UNL     1       1.375   0.846   0.010  0.00  0.00    +0.005 C 
ATOM      4  C   UNL     1       1.814   2.208   0.551  0.00  0.00    +0.011 C 
ATOM      5  C   UNL     1       1.454   3.299  -0.463  0.00  0.00    +0.058 C 
ATOM      6  C   UNL     1      -0.023   3.198  -0.773  0.00  0.00    +0.143 C 
ATOM      7  O   UNL     1      -0.738   4.169  -0.701  0.00  0.00    -0.297 OA
ATOM      8  C   UNL     1      -0.581   1.852  -1.177  0.00  0.00    +0.108 C 
ENDROOT
BRANCH   5   9
ATOM      9  C   UNL     1       1.767   4.674   0.130  0.00  0.00    -0.007 C 
ATOM     10  C   UNL     1       3.259   4.760   0.460  0.00  0.00    +0.008 C 
ATOM     11  C   UNL     1       1.407   5.761  -0.886  0.00  0.00    +0.008 C 
ENDBRANCH   5   9
BRANCH   8  12
ATOM     12  C   UNL     1      -2.108   1.923  -1.226  0.00  0.00    +0.266 C 
BRANCH  12  13
ATOM     13  C   UNL     1      -2.543   2.716  -2.460  0.00  0.00    +0.427 C 
ATOM     14  F   UNL     1      -1.955   2.161  -3.602  0.00  0.00    -0.167 F 
ATOM     15  F   UNL     1      -3.936   2.666  -2.581  0.00  0.00    -0.167 F 
ATOM     16  F   UNL     1      -2.134   4.048  -2.325  0.00  0.00    -0.167 F 
ENDBRANCH  12  13
BRANCH  12  17
ATOM     17  C   UNL     1      -2.683   0.506  -1.303  0.00  0.00    +0.427 C 
ATOM     18  F   UNL     1      -2.286  -0.219  -0.175  0.00  0.00    -0.167 F 
ATOM     19  F   UNL     1      -4.079   0.571  -1.348  0.00  0.00    -0.167 F 
ATOM     20  F   UNL     1      -2.208  -0.127  -2.456  0.00  0.00    -0.167 F 
ENDBRANCH  12  17
BRANCH  12  21
ATOM     21  O   UNL     1      -2.594   2.570  -0.048  0.00  0.00    -0.373 OA
ATOM     22  H   UNL     1      -2.249   2.199   0.775  0.00  0.00    +0.211 HD
ENDBRANCH  12  21
ENDBRANCH   8  12
TORSDOF 5
