REMARK  Name = ZINC09539720
REMARK  7 active torsions:
REMARK  status: ('A' for Active; 'I' for Inactive)
REMARK    1  A    between atoms: C_1  and  C_2
REMARK    2  A    between atoms: C_2  and  O_3
REMARK    3  A    between atoms: O_3  and  C_4
REMARK    4  A    between atoms: C_7  and  N_10
REMARK    5  A    between atoms: C_11  and  C_28
REMARK    6  A    between atoms: C_31  and  O_34
REMARK    7  A    between atoms: O_34  and  C_35
REMARK                            x       y       z     vdW  Elec       q    Type
REMARK                         _______ _______ _______ _____ _____    ______ ____
ROOT
ATOM      1  N   UNL     1       3.521  -0.848   0.401  0.00  0.00    -0.248 N 
ATOM      2  C   UNL     1       2.217  -0.229   0.202  0.00  0.00    +0.201 C 
ATOM      3  N   UNL     1       2.361   1.198  -0.123  0.00  0.00    -0.294 N 
ATOM      4  C   UNL     1       1.103   1.798  -0.236  0.00  0.00    +0.053 A 
ATOM      5  C   UNL     1      -0.015   1.016  -0.494  0.00  0.00    +0.025 A 
ATOM      6  C   UNL     1      -1.259   1.607  -0.605  0.00  0.00    +0.002 A 
ATOM      7  C   UNL     1      -1.400   2.974  -0.447  0.00  0.00    +0.002 A 
ATOM      8  C   UNL     1      -0.292   3.760  -0.190  0.00  0.00    +0.025 A 
ATOM      9  C   UNL     1       0.959   3.176  -0.086  0.00  0.00    +0.055 A 
ATOM     10  N   UNL     1       2.094   3.962   0.166  0.00  0.00    -0.282 N 
ATOM     11  C   UNL     1       3.196   3.357   0.657  0.00  0.00    +0.238 C 
ATOM     12  O   UNL     1       4.182   4.013   0.919  0.00  0.00    -0.273 OA
ATOM     13  C   UNL     1       3.203   1.867   0.879  0.00  0.00    +0.170 C 
ATOM     14  C   UNL     1       4.639   1.352   0.729  0.00  0.00    +0.128 C 
ATOM     15  C   UNL     1       4.631  -0.150   0.662  0.00  0.00    +0.224 C 
ATOM     16  O   UNL     1       5.668  -0.750   0.852  0.00  0.00    -0.275 OA
ATOM     17  H   UNL     1       2.086   4.916  -0.008  0.00  0.00    +0.155 HD
ENDROOT
BRANCH   1  21
ATOM     18  C   UNL     1       3.803  -5.000   0.144  0.00  0.00    +0.121 A 
ATOM     19  C   UNL     1       3.128  -4.416   1.205  0.00  0.00    +0.047 A 
ATOM     20  C   UNL     1       3.034  -3.041   1.291  0.00  0.00    +0.027 A 
ATOM     21  C   UNL     1       3.616  -2.243   0.315  0.00  0.00    +0.039 A 
ATOM     22  C   UNL     1       4.287  -2.829  -0.750  0.00  0.00    +0.027 A 
ATOM     23  C   UNL     1       4.385  -4.204  -0.832  0.00  0.00    +0.047 A 
BRANCH  18  24
ATOM     24  O   UNL     1       3.894  -6.354   0.060  0.00  0.00    -0.492 OA
BRANCH  24  26
ATOM     25  C   UNL     1       4.601  -8.416  -0.984  0.00  0.00    +0.048 C 
ATOM     26  C   UNL     1       4.604  -6.888  -1.060  0.00  0.00    +0.225 C 
ENDBRANCH  24  26
ENDBRANCH  18  24
ENDBRANCH   1  21
BRANCH   2  27
ATOM     27  C   UNL     1       1.504  -0.925  -0.929  0.00  0.00    -0.009 A 
ATOM     28  C   UNL     1       0.652  -1.981  -0.661  0.00  0.00    +0.010 A 
ATOM     29  C   UNL     1      -0.006  -2.618  -1.695  0.00  0.00    +0.046 A 
ATOM     30  C   UNL     1       0.197  -2.205  -3.004  0.00  0.00    +0.120 A 
ATOM     31  C   UNL     1       1.057  -1.149  -3.270  0.00  0.00    +0.046 A 
ATOM     32  C   UNL     1       1.708  -0.512  -2.232  0.00  0.00    +0.010 A 
BRANCH  30  33
ATOM     33  O   UNL     1      -0.445  -2.833  -4.024  0.00  0.00    -0.495 OA
ATOM     34  C   UNL     1      -1.315  -3.912  -3.675  0.00  0.00    +0.277 C 
ENDBRANCH  30  33
ENDBRANCH   2  27
TORSDOF 5
