REMARK  Name = ZINC10692027
REMARK  8 active torsions:
REMARK  status: ('A' for Active; 'I' for Inactive)
REMARK    1  A    between atoms: C_4  and  C_7
REMARK    2  A    between atoms: C_7  and  C_9
REMARK    3  A    between atoms: C_7  and  C_26
REMARK    4  A    between atoms: C_9  and  N_10
REMARK    5  A    between atoms: C_11  and  C_13
REMARK    6  A    between atoms: C_13  and  C_14
REMARK    7  A    between atoms: C_14  and  C_15
REMARK    8  A    between atoms: C_15  and  C_16
REMARK                            x       y       z     vdW  Elec       q    Type
REMARK                         _______ _______ _______ _____ _____    ______ ____
ROOT
ATOM      1  C   UNL     1       1.081   3.982  -1.237  0.00  0.00    +0.117 C 
ENDROOT
BRANCH   1   2
ATOM      2  N   UNL     1       1.577   5.360  -1.296  0.00  0.00    -0.314 N 
ATOM      3  C   UNL     1       1.207   6.166  -2.310  0.00  0.00    +0.213 C 
ATOM      4  O   UNL     1       0.462   5.752  -3.174  0.00  0.00    -0.276 OA
ATOM      5  H   UNL     1       2.173   5.691  -0.606  0.00  0.00    +0.149 HD
BRANCH   3   6
ATOM      6  C   UNL     1       1.717   7.583  -2.371  0.00  0.00    +0.096 C 
BRANCH   6   7
ATOM      7  C   UNL     1       1.149   8.276  -3.612  0.00  0.00    +0.014 C 
BRANCH   7   8
ATOM      8  C   UNL     1       1.667   9.715  -3.674  0.00  0.00    +0.038 C 
BRANCH   8   9
ATOM      9  C   UNL     1       1.108  10.398  -4.895  0.00  0.00    -0.022 A 
ATOM     10  C   UNL     1       1.708  10.513  -6.090  0.00  0.00    +0.087 A 
ATOM     11  N   UNL     1       0.897  11.194  -6.956  0.00  0.00    -0.360 N 
ATOM     12  H   UNL     1       1.114  11.400  -7.879  0.00  0.00    +0.165 HD
ATOM     13  C   UNL     1      -0.272  11.550  -6.321  0.00  0.00    +0.047 A 
ATOM     14  C   UNL     1      -0.191  11.067  -5.002  0.00  0.00    +0.003 A 
ATOM     15  C   UNL     1      -1.246  11.282  -4.115  0.00  0.00    +0.010 A 
ATOM     16  C   UNL     1      -2.355  11.963  -4.532  0.00  0.00    +0.001 A 
ATOM     17  C   UNL     1      -2.440  12.443  -5.832  0.00  0.00    +0.002 A 
ATOM     18  C   UNL     1      -1.409  12.241  -6.724  0.00  0.00    +0.026 A 
ENDBRANCH   8   9
ENDBRANCH   7   8
ENDBRANCH   6   7
ENDBRANCH   3   6
ENDBRANCH   1   2
BRANCH   1  19
ATOM     19  C   UNL     1       1.649   3.289   0.004  0.00  0.00    +0.068 C 
BRANCH  19  20
ATOM     20  C   UNL     1       1.239   1.839   0.000  0.00  0.00    -0.013 A 
ATOM     21  C   UNL     1      -0.017   1.364   0.009  0.00  0.00    +0.088 A 
ATOM     22  N   UNL     1       0.002  -0.004   0.002  0.00  0.00    -0.360 N 
ATOM     23  H   UNL     1      -0.784  -0.572   0.006  0.00  0.00    +0.165 HD
ATOM     24  C   UNL     1       1.303  -0.455  -0.013  0.00  0.00    +0.047 A 
ATOM     25  C   UNL     1       2.135   0.680  -0.015  0.00  0.00    +0.003 A 
ATOM     26  C   UNL     1       3.522   0.527  -0.029  0.00  0.00    +0.010 A 
ATOM     27  C   UNL     1       4.066  -0.727  -0.041  0.00  0.00    +0.001 A 
ATOM     28  C   UNL     1       3.250  -1.850  -0.038  0.00  0.00    +0.002 A 
ATOM     29  C   UNL     1       1.878  -1.721  -0.025  0.00  0.00    +0.026 A 
ENDBRANCH  19  20
BRANCH  19  33
ATOM     30  C   UNL     1       0.133   5.189   3.516  0.00  0.00    +0.000 A 
ATOM     31  C   UNL     1       1.495   5.152   3.284  0.00  0.00    +0.000 A 
ATOM     32  C   UNL     1       1.986   4.537   2.147  0.00  0.00    +0.004 A 
ATOM     33  C   UNL     1       1.114   3.959   1.243  0.00  0.00    -0.038 A 
ATOM     34  C   UNL     1      -0.248   4.002   1.472  0.00  0.00    +0.004 A 
ATOM     35  C   UNL     1      -0.739   4.613   2.611  0.00  0.00    +0.000 A 
ENDBRANCH  19  33
ENDBRANCH   1  19
TORSDOF 8
