REMARK  Name = ZINC65248295
REMARK  8 active torsions:
REMARK  status: ('A' for Active; 'I' for Inactive)
REMARK    1  A    between atoms: C_1  and  C_2
REMARK    2  A    between atoms: C_2  and  C_3
REMARK    3  A    between atoms: C_2  and  C_4
REMARK    4  A    between atoms: C_4  and  O_5
REMARK    5  A    between atoms: O_5  and  C_6
REMARK    6  A    between atoms: C_9  and  C_12
REMARK    7  A    between atoms: C_15  and  C_18
REMARK    8  A    between atoms: C_20  and  O_30
REMARK                            x       y       z     vdW  Elec       q    Type
REMARK                         _______ _______ _______ _____ _____    ______ ____
ROOT
ATOM      1  C   UNL     1       5.319  -1.594  -5.546  0.00  0.00    +0.168 C 
ATOM      2  N   UNL     1       4.901  -2.257  -6.574  0.00  0.00    -0.067 NA
ATOM      3  O   UNL     1       5.952  -2.479  -7.495  0.00  0.00    -0.368 OA
ATOM      4  C   UNL     1       7.124  -1.870  -6.931  0.00  0.00    +0.311 C 
ATOM      5  N   UNL     1       6.665  -1.296  -5.656  0.00  0.00    -0.289 N 
ATOM      6  H   UNL     1       7.204  -0.805  -5.016  0.00  0.00    +0.151 HD
ENDROOT
BRANCH   4   7
ATOM      7  C   UNL     1       7.648  -0.766  -7.853  0.00  0.00    +0.202 C 
ATOM      8  C   UNL     1       7.995  -1.399  -9.187  0.00  0.00    +0.120 C 
ATOM      9  C   UNL     1       7.347  -0.895 -10.316  0.00  0.00    +0.034 A 
ATOM     10  C   UNL     1       7.611  -1.427 -11.595  0.00  0.00    +0.013 A 
ATOM     11  C   UNL     1       6.966  -0.918 -12.680  0.00  0.00    +0.001 A 
ATOM     12  C   UNL     1       6.047   0.119 -12.553  0.00  0.00    +0.002 A 
ATOM     13  C   UNL     1       5.751   0.673 -11.344  0.00  0.00    +0.024 A 
ATOM     14  C   UNL     1       6.380   0.197 -10.181  0.00  0.00    +0.044 A 
ATOM     15  N   UNL     1       6.087   0.743  -8.994  0.00  0.00    -0.284 N 
ATOM     16  C   UNL     1       6.632   0.353  -7.860  0.00  0.00    +0.233 C 
ATOM     17  O   UNL     1       6.317   0.895  -6.817  0.00  0.00    -0.274 OA
ATOM     18  H   UNL     1       5.439   1.464  -8.968  0.00  0.00    +0.155 HD
BRANCH   8  19
ATOM     19  O   UNL     1       8.883  -2.396  -9.277  0.00  0.00    -0.509 OA
ATOM     20  H   UNL     1       9.022  -2.718 -10.178  0.00  0.00    +0.292 HD
ENDBRANCH   8  19
ENDBRANCH   4   7
BRANCH   1  24
ATOM     21  C   UNL     1       2.872  -0.463  -2.260  0.00  0.00    +0.121 A 
ATOM     22  C   UNL     1       2.326  -1.180  -3.317  0.00  0.00    +0.046 A 
ATOM     23  C   UNL     1       3.116  -1.549  -4.384  0.00  0.00    +0.015 A 
ATOM     24  C   UNL     1       4.467  -1.200  -4.402  0.00  0.00    +0.018 A 
ATOM     25  C   UNL     1       5.013  -0.478  -3.340  0.00  0.00    +0.015 A 
ATOM     26  C   UNL     1       4.215  -0.109  -2.278  0.00  0.00    +0.046 A 
BRANCH  21  27
ATOM     27  O   UNL     1       2.090  -0.101  -1.210  0.00  0.00    -0.492 OA
BRANCH  27  28
ATOM     28  C   UNL     1       0.718  -0.497  -1.257  0.00  0.00    +0.232 C 
BRANCH  28  30
ATOM     29  C   UNL     1      -0.019   1.526   0.010  0.00  0.00    +0.010 C 
ATOM     30  C   UNL     1       0.002  -0.004   0.002  0.00  0.00    +0.020 C 
ATOM     31  C   UNL     1      -1.433  -0.534   0.013  0.00  0.00    +0.010 C 
ENDBRANCH  28  30
ENDBRANCH  27  28
ENDBRANCH  21  27
ENDBRANCH   1  24
TORSDOF 6
