REMARK  Name = ZINC36718319
REMARK  14 active torsions:
REMARK  status: ('A' for Active; 'I' for Inactive)
REMARK    1  A    between atoms: C_1  and  N_2
REMARK    2  A    between atoms: N_2  and  C_3
REMARK    3  A    between atoms: N_2  and  C_4
REMARK    4  A    between atoms: C_4  and  C_5
REMARK    5  A    between atoms: C_5  and  C_6
REMARK    6  A    between atoms: C_6  and  N_7
REMARK    7  A    between atoms: C_13  and  N_17
REMARK    8  A    between atoms: C_20  and  C_22
REMARK    9  A    between atoms: C_22  and  C_23
REMARK   10  A    between atoms: C_23  and  C_24
REMARK   11  A    between atoms: C_24  and  S_25
REMARK   12  A    between atoms: S_25  and  C_28
REMARK   13  A    between atoms: C_31  and  O_34
REMARK   14  A    between atoms: O_34  and  C_35
REMARK                            x       y       z     vdW  Elec       q    Type
REMARK                         _______ _______ _______ _____ _____    ______ ____
ROOT
ATOM      1  N   UNL     1      -2.777  -4.025  -0.239  0.00  0.00    -0.250 N 
ATOM      2  C   UNL     1      -2.721  -4.820   0.894  0.00  0.00    +0.168 A 
ATOM      3  N   UNL     1      -2.684  -4.455   2.155  0.00  0.00    -0.224 NA
ATOM      4  C   UNL     1      -2.631  -5.346   3.168  0.00  0.00    +0.080 A 
ATOM      5  C   UNL     1      -2.586  -5.088   4.557  0.00  0.00    +0.031 A 
ATOM      6  C   UNL     1      -2.534  -6.118   5.460  0.00  0.00    +0.035 A 
ATOM      7  C   UNL     1      -2.522  -7.443   5.048  0.00  0.00    +0.127 A 
ATOM      8  C   UNL     1      -2.564  -7.732   3.697  0.00  0.00    +0.050 A 
ATOM      9  C   UNL     1      -2.618  -6.707   2.785  0.00  0.00    +0.043 A 
ATOM     10  S   UNL     1      -2.690  -6.603   1.013  0.00  0.00    -0.052 S 
ATOM     11  C   UNL     1      -2.815  -4.595  -1.460  0.00  0.00    +0.221 C 
ATOM     12  O   UNL     1      -2.801  -5.803  -1.566  0.00  0.00    -0.275 OA
ENDROOT
BRANCH   7  13
ATOM     13  N   UNL     1      -2.464  -8.535   6.045  0.00  0.00    +0.056 N 
ATOM     14  O   UNL     1      -2.427  -8.275   7.225  0.00  0.00    -0.126 OA
ATOM     15  O   UNL     1      -2.454  -9.687   5.680  0.00  0.00    -0.126 OA
ENDBRANCH   7  13
BRANCH   1  16
ATOM     16  C   UNL     1      -2.794  -2.566  -0.111  0.00  0.00    +0.114 C 
BRANCH  16  17
ATOM     17  C   UNL     1      -1.358  -2.037  -0.122  0.00  0.00    +0.001 C 
BRANCH  17  18
ATOM     18  C   UNL     1      -1.376  -0.512   0.012  0.00  0.00    -0.078 C 
BRANCH  18  20
ATOM     19  C   UNL     1      -0.018   1.465   0.010  0.00  0.00    -0.097 C 
ATOM     20  N   UNL     1       0.002  -0.004   0.002  0.00  0.00    +0.376 N 
ATOM     21  C   UNL     1       0.713  -0.491   1.192  0.00  0.00    -0.097 C 
ATOM     22  H   UNL     1       0.474  -0.330  -0.828  0.00  0.00    -0.083 HD
ENDBRANCH  18  20
ENDBRANCH  17  18
ENDBRANCH  16  17
ENDBRANCH   1  16
BRANCH  11  23
ATOM     23  C   UNL     1      -2.876  -3.731  -2.693  0.00  0.00    +0.098 C 
BRANCH  23  24
ATOM     24  C   UNL     1      -2.911  -4.620  -3.938  0.00  0.00    +0.032 C 
BRANCH  24  25
ATOM     25  C   UNL     1      -2.972  -3.742  -5.190  0.00  0.00    +0.172 C 
BRANCH  25  26
ATOM     26  S   UNL     1      -3.013  -4.796  -6.665  0.00  0.00    -0.003 S 
ATOM     27  O   UNL     1      -1.773  -5.473  -6.818  0.00  0.00    -0.169 OA
ATOM     28  O   UNL     1      -4.240  -5.510  -6.723  0.00  0.00    -0.169 OA
BRANCH  26  29
ATOM     29  C   UNL     1      -3.082  -3.674  -8.022  0.00  0.00    +0.088 A 
ATOM     30  C   UNL     1      -4.306  -3.248  -8.503  0.00  0.00    +0.030 A 
ATOM     31  C   UNL     1      -4.363  -2.368  -9.567  0.00  0.00    +0.047 A 
ATOM     32  C   UNL     1      -3.191  -1.912 -10.152  0.00  0.00    +0.120 A 
ATOM     33  C   UNL     1      -1.964  -2.341  -9.667  0.00  0.00    +0.047 A 
ATOM     34  C   UNL     1      -1.912  -3.216  -8.599  0.00  0.00    +0.030 A 
BRANCH  32  35
ATOM     35  O   UNL     1      -3.244  -1.047 -11.199  0.00  0.00    -0.495 OA
ATOM     36  C   UNL     1      -1.997  -0.619 -11.751  0.00  0.00    +0.277 C 
ENDBRANCH  32  35
ENDBRANCH  26  29
ENDBRANCH  25  26
ENDBRANCH  24  25
ENDBRANCH  23  24
ENDBRANCH  11  23
TORSDOF 11
