REMARK  Name = ZINC32916612
REMARK  9 active torsions:
REMARK  status: ('A' for Active; 'I' for Inactive)
REMARK    1  A    between atoms: C_1  and  C_2
REMARK    2  A    between atoms: C_6  and  N_9
REMARK    3  A    between atoms: C_7  and  C_8
REMARK    4  A    between atoms: C_10  and  C_12
REMARK    5  A    between atoms: C_12  and  N_13
REMARK    6  A    between atoms: N_13  and  C_14
REMARK    7  A    between atoms: N_13  and  S_21
REMARK    8  A    between atoms: C_14  and  C_15
REMARK    9  A    between atoms: S_21  and  C_24
REMARK                            x       y       z     vdW  Elec       q    Type
REMARK                         _______ _______ _______ _____ _____    ______ ____
ROOT
ATOM      1  N   UNL     1      -3.140   0.565   1.590  0.00  0.00    -0.165 NA
ENDROOT
BRANCH   1   2
ATOM      2  S   UNL     1      -2.740   0.822   0.004  0.00  0.00    +0.061 S 
ATOM      3  O   UNL     1      -3.743   1.673  -0.535  0.00  0.00    -0.153 OA
ATOM      4  O   UNL     1      -2.442  -0.451  -0.551  0.00  0.00    -0.153 OA
BRANCH   2   5
ATOM      5  C   UNL     1      -1.238   1.743  -0.012  0.00  0.00    +0.106 A 
ATOM      6  C   UNL     1      -1.267   3.126  -0.005  0.00  0.00    +0.030 A 
ATOM      7  C   UNL     1      -0.087   3.829  -0.017  0.00  0.00    +0.025 A 
ATOM      8  C   UNL     1       1.157   3.174  -0.030  0.00  0.00    +0.037 A 
ATOM      9  C   UNL     1       1.180   1.796  -0.043  0.00  0.00    -0.024 A 
ATOM     10  C   UNL     1      -0.025   1.092  -0.025  0.00  0.00    +0.034 A 
ATOM     11  C   UNL     1       2.415   0.956  -0.087  0.00  0.00    +0.037 C 
ATOM     12  C   UNL     1       3.546   1.504  -0.899  0.00  0.00    +0.014 C 
ATOM     13  C   UNL     1       4.311   2.604  -0.201  0.00  0.00    +0.096 C 
ATOM     14  C   UNL     1       3.538   3.873  -0.156  0.00  0.00    +0.217 C 
ATOM     15  O   UNL     1       4.179   4.898  -0.265  0.00  0.00    -0.275 OA
ATOM     16  N   UNL     1       2.251   4.008  -0.014  0.00  0.00    -0.285 N 
ATOM     17  H   UNL     1       2.117   5.087   0.155  0.00  0.00    +0.155 HD
ENDBRANCH   2   5
ENDBRANCH   1   2
BRANCH   1  18
ATOM     18  C   UNL     1      -3.980   1.533   2.300  0.00  0.00    +0.205 C 
BRANCH  18  20
ATOM     19  N   UNL     1      -6.378   1.831   2.828  0.00  0.00    -0.284 N 
ATOM     20  C   UNL     1      -5.419   1.090   2.239  0.00  0.00    +0.233 C 
ATOM     21  O   UNL     1      -5.714   0.066   1.659  0.00  0.00    -0.274 OA
ATOM     22  H   UNL     1      -6.102   2.709   3.430  0.00  0.00    +0.155 HD
BRANCH  19  28
ATOM     23  C   UNL     1     -10.997   1.941   4.510  0.00  0.00    +0.044 C 
ATOM     24  C   UNL     1      -9.985   1.523   3.475  0.00  0.00    -0.046 A 
ATOM     25  C   UNL     1     -10.387   0.794   2.370  0.00  0.00    +0.004 A 
ATOM     26  C   UNL     1      -9.462   0.410   1.418  0.00  0.00    +0.002 A 
ATOM     27  C   UNL     1      -8.132   0.752   1.567  0.00  0.00    +0.023 A 
ATOM     28  C   UNL     1      -7.725   1.483   2.674  0.00  0.00    +0.037 A 
ATOM     29  C   UNL     1      -8.656   1.863   3.632  0.00  0.00    -0.026 A 
ATOM     30  C   UNL     1      -8.217   2.651   4.840  0.00  0.00    +0.046 C 
ENDBRANCH  19  28
ENDBRANCH  18  20
ENDBRANCH   1  18
BRANCH   1  31
ATOM     31  C   UNL     1      -2.655  -0.630   2.283  0.00  0.00    +0.141 C 
BRANCH  31  32
ATOM     32  C   UNL     1      -1.370  -0.293   3.042  0.00  0.00    +0.134 C 
ATOM     33  C   UNL     1      -0.850  -1.545   3.776  0.00  0.00    +0.035 C 
ATOM     34  C   UNL     1       0.573  -1.756   3.204  0.00  0.00    +0.031 C 
ATOM     35  C   UNL     1       0.912  -0.350   2.648  0.00  0.00    +0.160 C 
ATOM     36  O   UNL     1      -0.348   0.114   2.117  0.00  0.00    -0.375 OA
ENDBRANCH  31  32
ENDBRANCH   1  31
TORSDOF 7
