REMARK  Name = ZINC44020723
REMARK  5 active torsions:
REMARK  status: ('A' for Active; 'I' for Inactive)
REMARK    1  A    between atoms: C_1  and  C_2
REMARK    2  A    between atoms: C_9  and  O_26
REMARK    3  A    between atoms: C_10  and  O_25
REMARK    4  A    between atoms: C_21  and  C_22
REMARK    5  A    between atoms: C_21  and  O_24
REMARK                            x       y       z     vdW  Elec       q    Type
REMARK                         _______ _______ _______ _____ _____    ______ ____
ROOT
ATOM      1  C   UNL     1      -0.019   1.526   0.010  0.00  0.00    +0.015 C 
ATOM      2  C   UNL     1       0.002  -0.004   0.002  0.00  0.00    +0.011 C 
ATOM      3  C   UNL     1       0.762  -0.501  -1.213  0.00  0.00    +0.011 C 
ATOM      4  C   UNL     1       2.143   0.173  -1.190  0.00  0.00    +0.009 C 
ATOM      5  C   UNL     1       2.890  -0.115   0.106  0.00  0.00    +0.023 C 
ATOM      6  C   UNL     1       3.333  -1.551   0.145  0.00  0.00    -0.037 A 
ATOM      7  C   UNL     1       3.769  -2.125  -1.044  0.00  0.00    +0.053 A 
ATOM      8  C   UNL     1       4.195  -3.439  -1.077  0.00  0.00    +0.158 A 
ATOM      9  C   UNL     1       4.188  -4.194   0.092  0.00  0.00    +0.158 A 
ATOM     10  C   UNL     1       3.752  -3.621   1.272  0.00  0.00    +0.053 A 
ATOM     11  C   UNL     1       3.322  -2.300   1.300  0.00  0.00    -0.040 A 
ATOM     12  C   UNL     1       2.850  -1.746   2.619  0.00  0.00    +0.036 C 
ATOM     13  C   UNL     1       2.840  -0.219   2.587  0.00  0.00    +0.009 C 
ATOM     14  C   UNL     1       2.054   0.216   1.346  0.00  0.00    +0.000 C 
ATOM     15  C   UNL     1       0.751  -0.527   1.257  0.00  0.00    +0.002 C 
ATOM     16  C   UNL     1      -0.262  -0.232   2.368  0.00  0.00    +0.008 C 
ATOM     17  C   UNL     1      -1.615  -0.638   1.722  0.00  0.00    +0.049 C 
ATOM     18  C   UNL     1      -1.413  -0.541   0.189  0.00  0.00    +0.132 C 
ENDROOT
BRANCH  18  19
ATOM     19  C   UNL     1      -1.539  -1.872  -0.427  0.00  0.00    -0.070 C 
ATOM     20  C   UNL     1      -1.640  -2.933  -0.919  0.00  0.00    +0.007 C 
ENDBRANCH  18  19
BRANCH  18  21
ATOM     21  O   UNL     1      -2.364   0.361  -0.379  0.00  0.00    -0.376 OA
ATOM     22  H   UNL     1      -3.283   0.072  -0.290  0.00  0.00    +0.211 HD
ENDBRANCH  18  21
BRANCH   9  23
ATOM     23  O   UNL     1       4.607  -5.488   0.074  0.00  0.00    -0.503 OA
ATOM     24  H   UNL     1       5.553  -5.598   0.244  0.00  0.00    +0.292 HD
ENDBRANCH   9  23
BRANCH   8  25
ATOM     25  O   UNL     1       4.619  -3.991  -2.245  0.00  0.00    -0.503 OA
ATOM     26  H   UNL     1       5.566  -3.888  -2.409  0.00  0.00    +0.292 HD
ENDBRANCH   8  25
TORSDOF 4
