REMARK  Name = ZINC48758897
REMARK  4 active torsions:
REMARK  status: ('A' for Active; 'I' for Inactive)
REMARK    1  A    between atoms: C_3  and  O_8
REMARK    2  A    between atoms: O_8  and  C_9
REMARK    3  A    between atoms: C_12  and  S_16
REMARK    4  A    between atoms: S_16  and  N_19
REMARK                            x       y       z     vdW  Elec       q    Type
REMARK                         _______ _______ _______ _____ _____    ______ ____
ROOT
ATOM      1  C   UNL     1       4.709   1.403   0.069  0.00  0.00    +0.147 A 
ATOM      2  C   UNL     1       4.685   0.016   0.055  0.00  0.00    +0.049 A 
ATOM      3  C   UNL     1       5.865  -0.696   0.145  0.00  0.00    +0.032 A 
ATOM      4  C   UNL     1       7.071  -0.027   0.251  0.00  0.00    +0.107 A 
ATOM      5  C   UNL     1       7.099   1.355   0.266  0.00  0.00    +0.052 A 
ATOM      6  C   UNL     1       5.921   2.072   0.169  0.00  0.00    +0.085 A 
ATOM      7 CL   UNL     1       5.956   3.808   0.180  0.00  0.00    -0.080 Cl
ENDROOT
BRANCH   4   8
ATOM      8  S   UNL     1       8.575  -0.938   0.367  0.00  0.00    +0.056 S 
ATOM      9  O   UNL     1       9.517  -0.086   1.004  0.00  0.00    -0.153 OA
ATOM     10  O   UNL     1       8.235  -2.218   0.880  0.00  0.00    -0.153 OA
BRANCH   8  11
ATOM     11  N   UNL     1       9.123  -1.177  -1.178  0.00  0.00    -0.204 NA
ATOM     12  H   UNL     1       8.619  -0.830  -1.930  0.00  0.00    +0.144 HD
ATOM     13  H   UNL     1       9.948  -1.664  -1.330  0.00  0.00    +0.144 HD
ENDBRANCH   8  11
ENDBRANCH   4   8
BRANCH   1  14
ATOM     14  O   UNL     1       3.548   2.105  -0.021  0.00  0.00    -0.455 OA
BRANCH  14  17
ATOM     15  C   UNL     1       0.797   0.056   1.192  0.00  0.00    +0.005 A 
ATOM     16  C   UNL     1       1.986   0.760   1.166  0.00  0.00    +0.046 A 
ATOM     17  C   UNL     1       2.380   1.412   0.007  0.00  0.00    +0.130 A 
ATOM     18  C   UNL     1       1.578   1.356  -1.125  0.00  0.00    +0.061 A 
ATOM     19  C   UNL     1       0.390   0.651  -1.094  0.00  0.00    +0.021 A 
ATOM     20  C   UNL     1      -0.000   0.001   0.064  0.00  0.00    +0.015 A 
ATOM     21 BR   UNL     1      -0.703   0.574  -2.635  0.00  0.00    -0.050 Br
ENDBRANCH  14  17
ENDBRANCH   1  14
TORSDOF 4
