REMARK  Name = ZINC05522541
REMARK  6 active torsions:
REMARK  status: ('A' for Active; 'I' for Inactive)
REMARK    1  A    between atoms: C_4  and  O_25
REMARK    2  A    between atoms: C_5  and  C_7
REMARK    3  A    between atoms: C_9  and  S_13
REMARK    4  A    between atoms: S_13  and  C_14
REMARK    5  A    between atoms: C_14  and  C_15
REMARK    6  A    between atoms: N_17  and  C_18
REMARK                            x       y       z     vdW  Elec       q    Type
REMARK                         _______ _______ _______ _____ _____    ______ ____
ROOT
ATOM      1  C   UNL     1       1.246  -2.168   0.029  0.00  0.00    +0.186 A 
ATOM      2  N   UNL     1       0.168  -2.966   0.019  0.00  0.00    -0.201 NA
ATOM      3  C   UNL     1       0.550  -4.225   0.006  0.00  0.00    +0.185 A 
ATOM      4  N   UNL     1       1.902  -4.252   0.007  0.00  0.00    -0.253 N 
ATOM      5  H   UNL     1       2.466  -5.041  -0.002  0.00  0.00    +0.191 HD
ATOM      6  N   UNL     1       2.328  -2.914   0.016  0.00  0.00    -0.151 NA
ENDROOT
BRANCH   1  11
ATOM      7  C   UNL     1      -0.014   1.374   0.072  0.00  0.00    +0.001 A 
ATOM      8  C   UNL     1       1.172   2.086   0.075  0.00  0.00    +0.004 A 
ATOM      9  C   UNL     1       2.384   1.423   0.063  0.00  0.00    +0.046 A 
ATOM     10  C   UNL     1       2.417   0.037   0.048  0.00  0.00    +0.128 A 
ATOM     11  C   UNL     1       1.220  -0.685   0.045  0.00  0.00    +0.062 A 
ATOM     12  C   UNL     1       0.004  -0.006   0.057  0.00  0.00    +0.015 A 
BRANCH  10  13
ATOM     13  O   UNL     1       3.608  -0.616   0.036  0.00  0.00    -0.506 OA
ATOM     14  H   UNL     1       3.957  -0.815   0.916  0.00  0.00    +0.292 HD
ENDBRANCH  10  13
ENDBRANCH   1  11
BRANCH   3  15
ATOM     15  S   UNL     1      -0.513  -5.629  -0.010  0.00  0.00    -0.077 S 
BRANCH  15  16
ATOM     16  C   UNL     1      -2.181  -4.917  -0.005  0.00  0.00    +0.173 C 
BRANCH  16  17
ATOM     17  C   UNL     1      -3.201  -6.026  -0.018  0.00  0.00    +0.228 C 
ATOM     18  O   UNL     1      -2.839  -7.183  -0.030  0.00  0.00    -0.275 OA
ATOM     19  N   UNL     1      -4.517  -5.732  -0.016  0.00  0.00    -0.284 N 
ATOM     20  H   UNL     1      -4.808  -4.810   0.059  0.00  0.00    +0.155 HD
BRANCH  19  21
ATOM     21  C   UNL     1      -5.463  -6.758  -0.123  0.00  0.00    +0.047 A 
ATOM     22  C   UNL     1      -5.219  -7.994   0.460  0.00  0.00    +0.024 A 
ATOM     23  C   UNL     1      -6.155  -9.004   0.353  0.00  0.00    +0.002 A 
ATOM     24  C   UNL     1      -7.335  -8.785  -0.334  0.00  0.00    +0.001 A 
ATOM     25  C   UNL     1      -7.582  -7.556  -0.917  0.00  0.00    +0.017 A 
ATOM     26  C   UNL     1      -6.652  -6.539  -0.808  0.00  0.00    +0.039 A 
ATOM     27 BR   UNL     1      -6.994  -4.856  -1.599  0.00  0.00    -0.048 Br
ENDBRANCH  19  21
ENDBRANCH  16  17
ENDBRANCH  15  16
ENDBRANCH   3  15
TORSDOF 6
