REMARK  Name = ZINC22277873
REMARK  4 active torsions:
REMARK  status: ('A' for Active; 'I' for Inactive)
REMARK    1  A    between atoms: C_4  and  C_7
REMARK    2  A    between atoms: N_14  and  C_17
REMARK    3  A    between atoms: C_17  and  C_18
REMARK    4  A    between atoms: C_31  and  C_33
REMARK                            x       y       z     vdW  Elec       q    Type
REMARK                         _______ _______ _______ _____ _____    ______ ____
ROOT
ATOM      1  C   UNL     1      -0.718   1.572   1.248  0.00  0.00    +0.240 C 
ATOM      2  O   UNL     1      -1.715   2.256   1.150  0.00  0.00    -0.273 OA
ATOM      3  N   UNL     1      -0.242   1.246   2.466  0.00  0.00    -0.256 N 
ATOM      4  C   UNL     1       0.905   0.451   2.595  0.00  0.00    +0.058 A 
ATOM      5  C   UNL     1       2.158   0.968   2.304  0.00  0.00    +0.025 A 
ATOM      6  C   UNL     1       3.282   0.179   2.468  0.00  0.00    +0.002 A 
ATOM      7  C   UNL     1       3.162  -1.121   2.923  0.00  0.00    +0.002 A 
ATOM      8  C   UNL     1       1.926  -1.641   3.203  0.00  0.00    +0.025 A 
ATOM      9  C   UNL     1       0.792  -0.866   3.028  0.00  0.00    +0.055 A 
ATOM     10  N   UNL     1      -0.483  -1.390   3.271  0.00  0.00    -0.284 N 
ATOM     11  C   UNL     1      -1.372  -0.711   4.030  0.00  0.00    +0.219 C 
ATOM     12  O   UNL     1      -2.498  -1.142   4.169  0.00  0.00    -0.275 OA
ATOM     13  C   UNL     1      -0.977   0.576   4.704  0.00  0.00    +0.128 C 
ATOM     14  C   UNL     1      -0.915   1.710   3.679  0.00  0.00    +0.194 C 
ATOM     15  H   UNL     1      -0.769  -2.363   2.844  0.00  0.00    +0.155 HD
ENDROOT
BRANCH  14  16
ATOM     16  C   UNL     1      -0.140   2.889   4.272  0.00  0.00    +0.409 C 
ATOM     17  F   UNL     1      -0.090   3.930   3.339  0.00  0.00    -0.169 F 
ATOM     18  F   UNL     1      -0.783   3.333   5.432  0.00  0.00    -0.169 F 
ATOM     19  F   UNL     1       1.161   2.481   4.586  0.00  0.00    -0.169 F 
ENDBRANCH  14  16
BRANCH   1  20
ATOM     20  C   UNL     1      -0.013   1.086   0.008  0.00  0.00    +0.222 C 
BRANCH  20  28
ATOM     21  C   UNL     1      -0.888   4.457  -3.628  0.00  0.00    +0.004 A 
ATOM     22  C   UNL     1      -1.676   4.688  -4.706  0.00  0.00    +0.056 A 
ATOM     23  S   UNL     1      -2.722   3.245  -4.767  0.00  0.00    -0.076 S 
ATOM     24  C   UNL     1      -2.083   2.376  -3.359  0.00  0.00    +0.116 A 
ATOM     25  C   UNL     1      -1.073   3.223  -2.874  0.00  0.00    +0.080 A 
ATOM     26  C   UNL     1      -0.376   2.757  -1.714  0.00  0.00    +0.263 A 
ATOM     27  O   UNL     1       0.517   3.423  -1.219  0.00  0.00    -0.267 OA
ATOM     28  N   UNL     1      -0.721   1.571  -1.179  0.00  0.00    -0.290 N 
ATOM     29  C   UNL     1      -1.709   0.814  -1.720  0.00  0.00    +0.203 A 
ATOM     30  N   UNL     1      -2.368   1.215  -2.774  0.00  0.00    -0.230 NA
BRANCH  21  34
ATOM     31  C   UNL     1       2.073   7.279  -2.469  0.00  0.00    +0.000 A 
ATOM     32  C   UNL     1       2.002   6.855  -3.784  0.00  0.00    +0.001 A 
ATOM     33  C   UNL     1       1.044   5.939  -4.166  0.00  0.00    +0.008 A 
ATOM     34  C   UNL     1       0.145   5.441  -3.224  0.00  0.00    -0.017 A 
ATOM     35  C   UNL     1       0.217   5.876  -1.901  0.00  0.00    +0.008 A 
ATOM     36  C   UNL     1       1.184   6.788  -1.530  0.00  0.00    +0.001 A 
ENDBRANCH  21  34
ENDBRANCH  20  28
ENDBRANCH   1  20
TORSDOF 4
