REMARK  Name = ZINC35369247
REMARK  12 active torsions:
REMARK  status: ('A' for Active; 'I' for Inactive)
REMARK    1  A    between atoms: C_1  and  C_2
REMARK    2  A    between atoms: C_2  and  O_3
REMARK    3  A    between atoms: O_3  and  C_4
REMARK    4  A    between atoms: C_4  and  C_6
REMARK    5  A    between atoms: C_7  and  N_17
REMARK    6  A    between atoms: C_18  and  C_20
REMARK    7  A    between atoms: C_20  and  C_22
REMARK    8  A    between atoms: C_20  and  N_23
REMARK    9  A    between atoms: N_26  and  C_31
REMARK   10  A    between atoms: C_27  and  C_30
REMARK   11  A    between atoms: C_35  and  O_37
REMARK   12  A    between atoms: O_37  and  C_38
REMARK                            x       y       z     vdW  Elec       q    Type
REMARK                         _______ _______ _______ _____ _____    ______ ____
ROOT
ATOM      1  N   UNL     1      -1.673  -6.335  -0.126  0.00  0.00    -0.284 N 
ATOM      2  C   UNL     1      -0.613  -5.529   0.085  0.00  0.00    +0.203 C 
ATOM      3  O   UNL     1      -0.784  -4.380   0.432  0.00  0.00    -0.277 OA
ATOM      4  H   UNL     1      -1.536  -7.269  -0.347  0.00  0.00    +0.155 HD
ENDROOT
BRANCH   1   6
ATOM      5  C   UNL     1      -4.091  -6.511   0.378  0.00  0.00    +0.147 A 
ATOM      6  C   UNL     1      -2.964  -5.826  -0.026  0.00  0.00    +0.073 A 
ATOM      7  C   UNL     1      -3.391  -4.458  -0.329  0.00  0.00    +0.024 A 
ATOM      8  C   UNL     1      -2.717  -3.316  -0.775  0.00  0.00    +0.050 A 
ATOM      9  C   UNL     1      -3.415  -2.146  -0.971  0.00  0.00    +0.124 A 
ATOM     10  C   UNL     1      -4.784  -2.095  -0.728  0.00  0.00    +0.040 A 
ATOM     11  C   UNL     1      -5.460  -3.210  -0.289  0.00  0.00    +0.029 A 
ATOM     12  C   UNL     1      -4.775  -4.405  -0.083  0.00  0.00    +0.049 A 
ATOM     13  N   UNL     1      -5.179  -5.653   0.336  0.00  0.00    -0.348 N 
ATOM     14  H   UNL     1      -6.089  -5.894   0.569  0.00  0.00    +0.166 HD
ATOM     15  F   UNL     1      -2.767  -1.041  -1.402  0.00  0.00    -0.205 F 
BRANCH   5  16
ATOM     16  C   UNL     1      -4.131  -7.875   0.767  0.00  0.00    +0.358 C 
ATOM     17  O   UNL     1      -3.131  -8.562   0.679  0.00  0.00    -0.243 OA
BRANCH  16  18
ATOM     18  O   UNL     1      -5.279  -8.409   1.235  0.00  0.00    -0.460 OA
BRANCH  18  20
ATOM     19  C   UNL     1      -6.628 -10.212   2.112  0.00  0.00    +0.048 C 
ATOM     20  C   UNL     1      -5.247  -9.788   1.609  0.00  0.00    +0.229 C 
ENDBRANCH  18  20
ENDBRANCH  16  18
ENDBRANCH   5  16
ENDBRANCH   1   6
BRANCH   2  21
ATOM     21  C   UNL     1       0.785  -6.057  -0.111  0.00  0.00    +0.017 C 
ATOM     22  C   UNL     1       1.200  -5.872  -1.572  0.00  0.00    -0.004 C 
BRANCH  21  23
ATOM     23  N   UNL     1       1.712  -5.322   0.759  0.00  0.00    +0.389 N 
ATOM     24  C   UNL     1       3.075  -5.834   0.563  0.00  0.00    -0.059 C 
ATOM     25  C   UNL     1       4.058  -4.992   1.383  0.00  0.00    +0.087 C 
ATOM     26  N   UNL     1       3.609  -4.982   2.784  0.00  0.00    -0.331 N 
ATOM     27  C   UNL     1       2.205  -4.638   3.059  0.00  0.00    +0.054 C 
ATOM     28  C   UNL     1       1.309  -5.496   2.160  0.00  0.00    -0.055 C 
ATOM     29  C   UNL     1       1.886  -4.918   4.529  0.00  0.00    +0.026 C 
ATOM     30  H   UNL     1       1.687  -4.341   0.522  0.00  0.00    -0.081 HD
BRANCH  26  31
ATOM     31  C   UNL     1       4.489  -5.292   3.823  0.00  0.00    +0.033 A 
ATOM     32  C   UNL     1       4.693  -6.616   4.191  0.00  0.00    +0.023 A 
ATOM     33  C   UNL     1       5.564  -6.922   5.218  0.00  0.00    +0.005 A 
ATOM     34  C   UNL     1       6.235  -5.912   5.882  0.00  0.00    +0.046 A 
ATOM     35  C   UNL     1       6.036  -4.588   5.519  0.00  0.00    +0.122 A 
ATOM     36  C   UNL     1       5.167  -4.277   4.485  0.00  0.00    +0.068 A 
BRANCH  35  37
ATOM     37  O   UNL     1       6.697  -3.597   6.173  0.00  0.00    -0.495 OA
ATOM     38  C   UNL     1       7.581  -3.990   7.224  0.00  0.00    +0.277 C 
ENDBRANCH  35  37
ENDBRANCH  26  31
ENDBRANCH  21  23
ENDBRANCH   2  21
TORSDOF 8
