REMARK  Name = ZINC37940583
REMARK  5 active torsions:
REMARK  status: ('A' for Active; 'I' for Inactive)
REMARK    1  A    between atoms: C_1  and  O_2
REMARK    2  A    between atoms: O_2  and  C_3
REMARK    3  A    between atoms: C_8  and  C_9
REMARK    4  A    between atoms: C_9  and  C_11
REMARK    5  A    between atoms: C_9  and  N_13
REMARK                            x       y       z     vdW  Elec       q    Type
REMARK                         _______ _______ _______ _____ _____    ______ ____
ROOT
ATOM      1  C   UNL     1       0.052  -2.828  -0.032  0.00  0.00    +0.194 C 
ENDROOT
BRANCH   1   2
ATOM      2  N   UNL     1      -0.197  -4.223  -0.418  0.00  0.00    -0.286 NA
ATOM      3  C   UNL     1       1.043  -4.942  -0.585  0.00  0.00    +0.084 C 
ATOM      4  C   UNL     1       0.999  -5.958  -1.744  0.00  0.00    -0.004 C 
ATOM      5  C   UNL     1      -0.334  -6.730  -1.788  0.00  0.00    -0.081 C 
ATOM      6  N   UNL     1      -0.784  -7.103  -0.469  0.00  0.00    +0.380 N 
ATOM      7  C   UNL     1      -1.728  -6.071   0.003  0.00  0.00    -0.067 C 
ATOM      8  C   UNL     1      -1.061  -4.905   0.577  0.00  0.00    +0.067 C 
ATOM      9  H   UNL     1      -1.249  -7.998  -0.508  0.00  0.00    -0.086 HD
ATOM     10  H   UNL     1       0.004  -7.156   0.159  0.00  0.00    -0.086 HD
ENDBRANCH   1   2
BRANCH   1  16
ATOM     11  C   UNL     1      -1.403  -0.974   0.826  0.00  0.00    +0.126 A 
ATOM     12  C   UNL     1      -2.603  -0.278   0.843  0.00  0.00    +0.047 A 
ATOM     13  C   UNL     1      -3.648  -0.685   0.037  0.00  0.00    +0.019 A 
ATOM     14  C   UNL     1      -3.498  -1.786  -0.788  0.00  0.00    +0.018 A 
ATOM     15  C   UNL     1      -2.303  -2.481  -0.806  0.00  0.00    +0.025 A 
ATOM     16  C   UNL     1      -1.253  -2.074  -0.006  0.00  0.00    +0.026 A 
ATOM     17 BR   UNL     1      -4.931  -2.340  -1.891  0.00  0.00    -0.050 Br
BRANCH  11  19
ATOM     18  C   UNL     1      -0.598   0.565   2.449  0.00  0.00    +0.277 C 
ATOM     19  O   UNL     1      -0.373  -0.576   1.618  0.00  0.00    -0.495 OA
ENDBRANCH  11  19
ENDBRANCH   1  16
BRANCH   1  20
ATOM     20  C   UNL     1       0.960  -2.203  -1.008  0.00  0.00    +0.086 C 
ATOM     21  N   UNL     1       1.661  -1.721  -1.760  0.00  0.00    -0.195 NA
ENDBRANCH   1  20
TORSDOF 4
