REMARK  Name = ZINC49717217
REMARK  8 active torsions:
REMARK  status: ('A' for Active; 'I' for Inactive)
REMARK    1  A    between atoms: C_1  and  C_2
REMARK    2  A    between atoms: C_2  and  C_4
REMARK    3  A    between atoms: C_2  and  N_9
REMARK    4  A    between atoms: N_9  and  C_10
REMARK    5  A    between atoms: N_9  and  S_11
REMARK    6  A    between atoms: S_11  and  C_14
REMARK    7  A    between atoms: C_19  and  N_20
REMARK    8  A    between atoms: N_20  and  N_21
REMARK                            x       y       z     vdW  Elec       q    Type
REMARK                         _______ _______ _______ _____ _____    ______ ____
ROOT
ATOM      1  S   UNL     1      -2.121  -1.394  -1.199  0.00  0.00    +0.064 S 
ATOM      2  O   UNL     1      -3.529  -1.218  -1.274  0.00  0.00    -0.153 OA
ATOM      3  O   UNL     1      -1.262  -1.137  -2.301  0.00  0.00    -0.153 OA
ENDROOT
BRANCH   1   4
ATOM      4  C   UNL     1      -1.848  -3.070  -0.728  0.00  0.00    +0.147 A 
ATOM      5  C   UNL     1      -2.917  -3.914  -0.486  0.00  0.00    +0.048 A 
ATOM      6  C   UNL     1      -2.655  -5.227  -0.116  0.00  0.00    +0.038 A 
ATOM      7  C   UNL     1      -1.344  -5.649  -0.003  0.00  0.00    +0.128 A 
ATOM      8  N   UNL     1      -0.344  -4.821  -0.240  0.00  0.00    -0.236 NA
ATOM      9  C   UNL     1      -0.554  -3.564  -0.600  0.00  0.00    +0.159 A 
ATOM     10 BR   UNL     1      -4.077  -6.425   0.228  0.00  0.00    -0.049 Br
BRANCH   9  11
ATOM     11  N   UNL     1       0.530  -2.728  -0.846  0.00  0.00    -0.266 N 
ATOM     12  H   UNL     1       0.384  -1.788  -1.036  0.00  0.00    +0.167 HD
BRANCH  11  13
ATOM     13  N   UNL     1       1.800  -3.231  -0.821  0.00  0.00    -0.255 NA
ATOM     14  H   UNL     1       1.896  -4.003  -1.463  0.00  0.00    +0.140 HD
ATOM     15  H   UNL     1       2.478  -2.510  -1.017  0.00  0.00    +0.140 HD
ENDBRANCH  11  13
ENDBRANCH   9  11
ENDBRANCH   1   4
BRANCH   1  16
ATOM     16  N   UNL     1      -1.590  -0.442   0.047  0.00  0.00    -0.172 NA
ATOM     17  C   UNL     1      -2.462  -0.186   1.196  0.00  0.00    +0.132 C 
BRANCH  16  19
ATOM     18  C   UNL     1      -0.348   1.660   0.181  0.00  0.00    +0.031 C 
ATOM     19  C   UNL     1      -0.249   0.144   0.001  0.00  0.00    +0.113 C 
BRANCH  19  20
ATOM     20  C   UNL     1       0.593  -0.439   1.106  0.00  0.00    +0.008 A 
ATOM     21  C   UNL     1       1.884  -0.851   1.070  0.00  0.00    +0.013 A 
ATOM     22  C   UNL     1       2.458  -1.358   2.220  0.00  0.00    +0.008 A 
ATOM     23  C   UNL     1       1.714  -1.429   3.351  0.00  0.00    +0.045 A 
ATOM     24  S   UNL     1       0.151  -0.760   2.806  0.00  0.00    -0.100 S 
ENDBRANCH  19  20
ENDBRANCH  16  19
ENDBRANCH   1  16
TORSDOF 6
