REMARK  Name = ZINC39914323
REMARK  10 active torsions:
REMARK  status: ('A' for Active; 'I' for Inactive)
REMARK    1  A    between atoms: C_1  and  C_2
REMARK    2  A    between atoms: C_2  and  C_3
REMARK    3  A    between atoms: C_3  and  C_4
REMARK    4  A    between atoms: C_4  and  N_5
REMARK    5  A    between atoms: C_6  and  C_25
REMARK    6  A    between atoms: C_9  and  C_16
REMARK    7  A    between atoms: C_19  and  C_23
REMARK    8  A    between atoms: C_21  and  O_22
REMARK    9  A    between atoms: C_29  and  O_31
REMARK   10  A    between atoms: O_31  and  C_32
REMARK                            x       y       z     vdW  Elec       q    Type
REMARK                         _______ _______ _______ _____ _____    ______ ____
ROOT
ATOM      1  N   UNL     1       1.468  -2.650  -2.611  0.00  0.00    -0.285 N 
ATOM      2  C   UNL     1       0.828  -2.869  -3.915  0.00  0.00    +0.141 C 
ATOM      3  C   UNL     1       1.930  -3.264  -4.859  0.00  0.00    +0.035 A 
ATOM      4  C   UNL     1       2.294  -3.633  -6.158  0.00  0.00    +0.102 A 
ATOM      5  N   UNL     1       3.598  -3.831  -6.161  0.00  0.00    -0.173 NA
ATOM      6  N   UNL     1       4.093  -3.623  -4.993  0.00  0.00    -0.272 N 
ATOM      7  H   UNL     1       5.031  -3.709  -4.762  0.00  0.00    +0.189 HD
ATOM      8  C   UNL     1       3.101  -3.263  -4.125  0.00  0.00    +0.126 A 
ATOM      9  C   UNL     1       2.787  -2.876  -2.745  0.00  0.00    +0.265 C 
ATOM     10  O   UNL     1       3.603  -2.776  -1.849  0.00  0.00    -0.268 OA
ENDROOT
BRANCH   4  11
ATOM     11  C   UNL     1       1.381  -3.777  -7.319  0.00  0.00    +0.045 A 
ATOM     12  C   UNL     1       0.019  -3.530  -7.172  0.00  0.00    +0.034 A 
ATOM     13  C   UNL     1      -0.827  -3.664  -8.256  0.00  0.00    +0.045 A 
ATOM     14  C   UNL     1      -0.324  -4.045  -9.489  0.00  0.00    -0.029 A 
ATOM     15  C   UNL     1       1.026  -4.292  -9.644  0.00  0.00    +0.050 A 
ATOM     16  C   UNL     1       1.886  -4.155  -8.566  0.00  0.00    +0.126 A 
ATOM     17  C   UNL     1      -1.254  -4.190 -10.665  0.00  0.00    +0.045 C 
ATOM     18 CL   UNL     1      -2.526  -3.356  -8.071  0.00  0.00    -0.083 Cl
BRANCH  16  19
ATOM     19  O   UNL     1       3.215  -4.393  -8.720  0.00  0.00    -0.506 OA
ATOM     20  H   UNL     1       3.471  -5.311  -8.559  0.00  0.00    +0.292 HD
ENDBRANCH  16  19
ENDBRANCH   4  11
BRANCH   2  21
ATOM     21  C   UNL     1       0.168  -1.599  -4.388  0.00  0.00    -0.019 A 
ATOM     22  C   UNL     1       0.798  -0.383  -4.203  0.00  0.00    +0.006 A 
ATOM     23  C   UNL     1       0.195   0.784  -4.636  0.00  0.00    +0.004 A 
ATOM     24  C   UNL     1      -1.039   0.736  -5.255  0.00  0.00    +0.046 A 
ATOM     25  C   UNL     1      -1.673  -0.483  -5.442  0.00  0.00    +0.129 A 
ATOM     26  C   UNL     1      -1.064  -1.653  -5.012  0.00  0.00    +0.052 A 
BRANCH  25  27
ATOM     27  O   UNL     1      -2.887  -0.533  -6.051  0.00  0.00    -0.456 OA
BRANCH  27  28
ATOM     28  C   UNL     1      -3.960  -0.905  -5.306  0.00  0.00    +0.128 A 
ATOM     29  C   UNL     1      -3.824  -1.094  -3.938  0.00  0.00    +0.046 A 
ATOM     30  C   UNL     1      -4.916  -1.473  -3.182  0.00  0.00    +0.004 A 
ATOM     31  C   UNL     1      -6.144  -1.665  -3.787  0.00  0.00    +0.000 A 
ATOM     32  C   UNL     1      -6.283  -1.479  -5.150  0.00  0.00    +0.004 A 
ATOM     33  C   UNL     1      -5.195  -1.093  -5.910  0.00  0.00    +0.046 A 
ENDBRANCH  27  28
ENDBRANCH  25  27
ENDBRANCH   2  21
BRANCH   1  34
ATOM     34  C   UNL     1       0.787  -2.249  -1.377  0.00  0.00    +0.109 C 
BRANCH  34  35
ATOM     35  C   UNL     1       0.753  -0.722  -1.287  0.00  0.00    +0.019 C 
BRANCH  35  37
ATOM     36  C   UNL     1       0.009   1.225   0.092  0.00  0.00    +0.004 C 
ATOM     37  C   UNL     1       0.043  -0.302   0.001  0.00  0.00    -0.002 C 
ENDBRANCH  35  37
ENDBRANCH  34  35
ENDBRANCH   1  34
TORSDOF 8
