REMARK  Name = ZINC08686118
REMARK  4 active torsions:
REMARK  status: ('A' for Active; 'I' for Inactive)
REMARK    1  A    between atoms: C_1  and  C_2
REMARK    2  A    between atoms: C_2  and  C_3
REMARK    3  A    between atoms: C_2  and  C_4
REMARK    4  A    between atoms: C_4  and  N_5
REMARK                            x       y       z     vdW  Elec       q    Type
REMARK                         _______ _______ _______ _____ _____    ______ ____
ROOT
ATOM      1  N   UNL     1      -2.105  -0.148  -1.230  0.00  0.00    -0.251 N 
ATOM      2  C   UNL     1      -2.717   1.033  -1.452  0.00  0.00    +0.275 A 
ATOM      3  O   UNL     1      -2.810   1.957  -0.667  0.00  0.00    -0.266 OA
ATOM      4  C   UNL     1      -3.253   0.991  -2.827  0.00  0.00    +0.066 A 
ATOM      5  C   UNL     1      -3.966   1.898  -3.602  0.00  0.00    +0.016 A 
ATOM      6  C   UNL     1      -4.340   1.569  -4.894  0.00  0.00    +0.013 A 
ATOM      7  C   UNL     1      -4.006   0.328  -5.428  0.00  0.00    +0.035 A 
ATOM      8  C   UNL     1      -3.284  -0.601  -4.657  0.00  0.00    +0.058 A 
ATOM      9  C   UNL     1      -2.905  -0.270  -3.350  0.00  0.00    +0.079 A 
ATOM     10  N   UNL     1      -2.207  -0.946  -2.374  0.00  0.00    -0.293 N 
ATOM     11  H   UNL     1      -1.843  -1.840  -2.466  0.00  0.00    +0.187 HD
ATOM     12  C   UNL     1      -2.931  -1.915  -5.220  0.00  0.00    +0.197 C 
ATOM     13  O   UNL     1      -2.308  -2.716  -4.551  0.00  0.00    -0.287 OA
ATOM     14  C   UNL     1      -3.334  -2.260  -6.600  0.00  0.00    +0.033 A 
ATOM     15  C   UNL     1      -3.005  -3.501  -7.138  0.00  0.00    +0.012 A 
ATOM     16  C   UNL     1      -3.388  -3.816  -8.430  0.00  0.00    +0.001 A 
ATOM     17  C   UNL     1      -4.097  -2.905  -9.192  0.00  0.00    +0.001 A 
ATOM     18  C   UNL     1      -4.433  -1.668  -8.673  0.00  0.00    +0.012 A 
ATOM     19  C   UNL     1      -4.056  -1.335  -7.375  0.00  0.00    +0.033 A 
ATOM     20  C   UNL     1      -4.410  -0.016  -6.810  0.00  0.00    +0.195 C 
ATOM     21  O   UNL     1      -5.034   0.784  -7.479  0.00  0.00    -0.287 OA
ENDROOT
BRANCH   1  22
ATOM     22  C   UNL     1      -1.433  -0.534   0.013  0.00  0.00    +0.148 C 
BRANCH  22  24
ATOM     23  C   UNL     1      -0.019   1.526   0.010  0.00  0.00    +0.009 C 
ATOM     24  C   UNL     1       0.002  -0.004   0.002  0.00  0.00    +0.004 C 
ATOM     25  C   UNL     1       0.742  -0.511   1.242  0.00  0.00    +0.009 C 
ENDBRANCH  22  24
ENDBRANCH   1  22
TORSDOF 2
