REMARK  Name = ZINC41584672
REMARK  5 active torsions:
REMARK  status: ('A' for Active; 'I' for Inactive)
REMARK    1  A    between atoms: C_3  and  C_7
REMARK    2  A    between atoms: N_13  and  C_14
REMARK    3  A    between atoms: C_14  and  C_15
REMARK    4  A    between atoms: C_16  and  O_33
REMARK    5  A    between atoms: C_24  and  C_26
REMARK                            x       y       z     vdW  Elec       q    Type
REMARK                         _______ _______ _______ _____ _____    ______ ____
ROOT
ATOM      1  C   UNL     1       4.965   0.412   3.077  0.00  0.00    +0.020 A 
ATOM      2  C   UNL     1       4.783  -0.960   3.154  0.00  0.00    +0.122 A 
ATOM      3  C   UNL     1       5.618  -1.740   3.952  0.00  0.00    +0.046 A 
ATOM      4  C   UNL     1       6.617  -1.163   4.680  0.00  0.00    +0.015 A 
ATOM      5  C   UNL     1       6.802   0.226   4.634  0.00  0.00    +0.019 A 
ATOM      6  C   UNL     1       5.984   1.012   3.800  0.00  0.00    +0.144 A 
ATOM      7  O   UNL     1       6.205   2.345   3.696  0.00  0.00    -0.421 OA
ATOM      8  C   UNL     1       6.789   2.950   4.757  0.00  0.00    +0.345 A 
ATOM      9  O   UNL     1       6.449   4.064   5.111  0.00  0.00    -0.245 OA
ATOM     10  C   UNL     1       7.847   2.215   5.468  0.00  0.00    +0.067 A 
ATOM     11  C   UNL     1       7.816   0.845   5.410  0.00  0.00    +0.027 A 
ENDROOT
BRANCH  10  12
ATOM     12  C   UNL     1       8.900   2.929   6.228  0.00  0.00    -0.011 A 
ATOM     13  C   UNL     1       8.984   2.783   7.613  0.00  0.00    +0.010 A 
ATOM     14  C   UNL     1       9.966   3.450   8.316  0.00  0.00    +0.020 A 
ATOM     15  C   UNL     1      10.867   4.263   7.649  0.00  0.00    +0.041 A 
ATOM     16  C   UNL     1      10.787   4.412   6.275  0.00  0.00    +0.020 A 
ATOM     17  C   UNL     1       9.813   3.745   5.561  0.00  0.00    +0.010 A 
ATOM     18 CL   UNL     1      12.100   5.100   8.540  0.00  0.00    -0.084 Cl
ENDBRANCH  10  12
BRANCH   2  19
ATOM     19  O   UNL     1       3.784  -1.548   2.447  0.00  0.00    -0.506 OA
ATOM     20  H   UNL     1       4.044  -1.830   1.560  0.00  0.00    +0.292 HD
ENDBRANCH   2  19
BRANCH   1  21
ATOM     21  C   UNL     1       4.063   1.247   2.206  0.00  0.00    -0.035 C 
BRANCH  21  27
ATOM     22  C   UNL     1       3.696   2.049  -0.023  0.00  0.00    -0.036 C 
ATOM     23  C   UNL     1       4.249   2.075  -1.449  0.00  0.00    -0.011 C 
ATOM     24  C   UNL     1       5.602   2.793  -1.454  0.00  0.00    -0.003 C 
ATOM     25  C   UNL     1       6.547   2.087  -0.478  0.00  0.00    -0.019 C 
ATOM     26  C   UNL     1       5.909   2.061   0.913  0.00  0.00    -0.078 C 
ATOM     27  N   UNL     1       4.633   1.337   0.855  0.00  0.00    +0.387 N 
ATOM     28  H   UNL     1       4.790   0.408   0.496  0.00  0.00    -0.080 HD
BRANCH  22  31
ATOM     29  C   UNL     1      -0.017   1.378   0.010  0.00  0.00    +0.020 A 
ATOM     30  C   UNL     1       1.185   2.070   0.002  0.00  0.00    +0.005 A 
ATOM     31  C   UNL     1       2.365   1.343  -0.013  0.00  0.00    -0.043 A 
ATOM     32  C   UNL     1       2.305  -0.038  -0.020  0.00  0.00    +0.112 A 
ATOM     33  N   UNL     1       1.144  -0.663  -0.013  0.00  0.00    -0.263 NA
ATOM     34  C   UNL     1       0.002  -0.004   0.002  0.00  0.00    +0.111 A 
ENDBRANCH  22  31
ENDBRANCH  21  27
ENDBRANCH   1  21
TORSDOF 5
