REMARK  Name = ZINC05271994
REMARK  5 active torsions:
REMARK  status: ('A' for Active; 'I' for Inactive)
REMARK    1  A    between atoms: C_1  and  C_2
REMARK    2  A    between atoms: N_11  and  N_12
REMARK    3  A    between atoms: C_13  and  C_15
REMARK    4  A    between atoms: C_15  and  S_16
REMARK    5  A    between atoms: S_16  and  C_17
REMARK                            x       y       z     vdW  Elec       q    Type
REMARK                         _______ _______ _______ _____ _____    ______ ____
ROOT
ATOM      1  C   UNL     1       6.689  12.550   0.004  0.00  0.00    +0.047 C 
ATOM      2  C   UNL     1       7.679  11.414  -0.010  0.00  0.00    -0.006 A 
ATOM      3  C   UNL     1       9.024  11.686  -0.021  0.00  0.00    +0.046 A 
ATOM      4  C   UNL     1       9.969  10.669  -0.035  0.00  0.00    +0.021 A 
ATOM      5  C   UNL     1       9.546   9.352  -0.038  0.00  0.00    +0.019 A 
ATOM      6  C   UNL     1       8.203   9.072  -0.028  0.00  0.00    +0.041 A 
ATOM      7  C   UNL     1       7.212  10.080  -0.014  0.00  0.00    +0.085 A 
ATOM      8  N   UNL     1       5.934   9.644  -0.004  0.00  0.00    -0.223 NA
ATOM      9  C   UNL     1       5.624   8.367  -0.008  0.00  0.00    +0.176 A 
ATOM     10  S   UNL     1       7.231   7.585  -0.019  0.00  0.00    -0.051 S 
ATOM     11  N   UNL     1       4.375   7.779   0.001  0.00  0.00    -0.243 N 
ATOM     12 CL   UNL     1       9.556  13.339  -0.017  0.00  0.00    -0.083 Cl
ATOM     13  H   UNL     1       3.579   8.333   0.011  0.00  0.00    +0.172 HD
ENDROOT
BRANCH  11  14
ATOM     14  N   UNL     1       4.258   6.383  -0.005  0.00  0.00    -0.234 N 
ATOM     15  C   UNL     1       3.038   5.810   0.003  0.00  0.00    +0.239 C 
ATOM     16  O   UNL     1       2.042   6.502   0.016  0.00  0.00    -0.273 OA
ATOM     17  H   UNL     1       5.054   5.830  -0.015  0.00  0.00    +0.173 HD
BRANCH  15  18
ATOM     18  C   UNL     1       2.912   4.308  -0.003  0.00  0.00    +0.171 C 
BRANCH  18  19
ATOM     19  S   UNL     1       1.157   3.849   0.011  0.00  0.00    -0.116 S 
BRANCH  19  20
ATOM     20  C   UNL     1       1.178   2.087   0.002  0.00  0.00    +0.009 A 
ATOM     21  C   UNL     1      -0.017   1.377   0.010  0.00  0.00    +0.017 A 
ATOM     22  C   UNL     1       0.002  -0.004   0.002  0.00  0.00    +0.039 A 
ATOM     23  C   UNL     1       1.210  -0.681  -0.013  0.00  0.00    +0.123 A 
ATOM     24  C   UNL     1       2.402   0.024  -0.021  0.00  0.00    +0.039 A 
ATOM     25  C   UNL     1       2.388   1.405  -0.013  0.00  0.00    +0.017 A 
ATOM     26  F   UNL     1       1.226  -2.032  -0.020  0.00  0.00    -0.205 F 
ENDBRANCH  19  20
ENDBRANCH  18  19
ENDBRANCH  15  18
ENDBRANCH  11  14
TORSDOF 4
