REMARK  Name = ZINC49507408
REMARK  8 active torsions:
REMARK  status: ('A' for Active; 'I' for Inactive)
REMARK    1  A    between atoms: C_1  and  C_2
REMARK    2  A    between atoms: C_2  and  C_3
REMARK    3  A    between atoms: C_3  and  N_4
REMARK    4  A    between atoms: C_8  and  N_18
REMARK    5  A    between atoms: C_13  and  C_16
REMARK    6  A    between atoms: C_13  and  C_17
REMARK    7  A    between atoms: C_19  and  C_21
REMARK    8  A    between atoms: C_21  and  C_22
REMARK                            x       y       z     vdW  Elec       q    Type
REMARK                         _______ _______ _______ _____ _____    ______ ____
ROOT
ATOM      1  N   UNL     1       0.495  -2.162  -1.251  0.00  0.00    -0.268 N 
ATOM      2  C   UNL     1       1.492  -2.957  -0.668  0.00  0.00    +0.078 A 
ATOM      3  C   UNL     1       2.105  -2.567   0.512  0.00  0.00    +0.029 A 
ATOM      4  C   UNL     1       3.089  -3.358   1.073  0.00  0.00    +0.025 A 
ATOM      5  C   UNL     1       3.465  -4.545   0.456  0.00  0.00    +0.037 A 
ATOM      6  C   UNL     1       2.852  -4.940  -0.726  0.00  0.00    +0.070 A 
ATOM      7  C   UNL     1       1.864  -4.149  -1.288  0.00  0.00    +0.144 A 
ATOM      8  O   UNL     1       1.248  -4.532  -2.437  0.00  0.00    -0.489 OA
ATOM      9  C   UNL     1      -0.075  -5.051  -2.325  0.00  0.00    +0.244 C 
ATOM     10  C   UNL     1      -0.903  -4.198  -1.367  0.00  0.00    +0.076 C 
ATOM     11  C   UNL     1      -0.668  -2.734  -1.635  0.00  0.00    +0.229 C 
ATOM     12  O   UNL     1      -1.517  -2.074  -2.195  0.00  0.00    -0.275 OA
ATOM     13  C   UNL     1      -0.501  -4.517   0.074  0.00  0.00    +0.024 C 
ATOM     14  C   UNL     1      -2.388  -4.516  -1.558  0.00  0.00    +0.024 C 
ENDROOT
BRANCH   5  15
ATOM     15  N   UNL     1       4.464  -5.343   1.026  0.00  0.00    -0.285 N 
ATOM     16  C   UNL     1       5.289  -6.057   0.235  0.00  0.00    +0.223 C 
ATOM     17  O   UNL     1       5.228  -5.937  -0.970  0.00  0.00    -0.275 OA
ATOM     18  H   UNL     1       4.562  -5.382   1.990  0.00  0.00    +0.155 HD
BRANCH  16  19
ATOM     19  C   UNL     1       6.288  -7.004   0.848  0.00  0.00    +0.155 C 
BRANCH  19  20
ATOM     20  C   UNL     1       7.082  -7.673  -0.244  0.00  0.00    +0.100 A 
ATOM     21  C   UNL     1       6.739  -8.926  -0.923  0.00  0.00    +0.045 A 
ATOM     22  C   UNL     1       5.679  -9.829  -0.806  0.00  0.00    +0.013 A 
ATOM     23  C   UNL     1       5.641 -10.937  -1.605  0.00  0.00    +0.001 A 
ATOM     24  C   UNL     1       6.646 -11.173  -2.532  0.00  0.00    +0.004 A 
ATOM     25  C   UNL     1       7.700 -10.295  -2.663  0.00  0.00    +0.049 A 
ATOM     26  C   UNL     1       7.758  -9.162  -1.860  0.00  0.00    +0.168 A 
ATOM     27  O   UNL     1       8.636  -8.144  -1.756  0.00  0.00    -0.354 OA
ATOM     28  N   UNL     1       8.192  -7.244  -0.760  0.00  0.00    -0.082 NA
ENDBRANCH  19  20
ENDBRANCH  16  19
ENDBRANCH   5  15
BRANCH   1  29
ATOM     29  C   UNL     1       0.709  -0.724  -1.437  0.00  0.00    +0.113 C 
BRANCH  29  31
ATOM     30  C   UNL     1       0.452   1.529  -0.388  0.00  0.00    +0.005 C 
ATOM     31  C   UNL     1       0.228   0.028  -0.194  0.00  0.00    +0.016 C 
ENDBRANCH  29  31
ENDBRANCH   1  29
TORSDOF 5
