REMARK  Name = ZINC52692350
REMARK  5 active torsions:
REMARK  status: ('A' for Active; 'I' for Inactive)
REMARK    1  A    between atoms: C_3  and  O_9
REMARK    2  A    between atoms: O_9  and  C_10
REMARK    3  A    between atoms: C_10  and  C_11
REMARK    4  A    between atoms: C_13  and  C_16
REMARK    5  A    between atoms: C_16  and  N_17
REMARK                            x       y       z     vdW  Elec       q    Type
REMARK                         _______ _______ _______ _____ _____    ______ ____
ROOT
ATOM      1  C   UNL     1       3.455   3.532  -0.013  0.00  0.00    +0.303 C 
ENDROOT
BRANCH   1   2
ATOM      2  C   UNL     1       4.840   4.127  -0.023  0.00  0.00    +0.142 A 
ATOM      3  C   UNL     1       5.550   4.447  -1.120  0.00  0.00    +0.050 A 
ATOM      4  C   UNL     1       6.784   4.971  -0.670  0.00  0.00    -0.027 A 
ATOM      5  C   UNL     1       6.754   4.938   0.674  0.00  0.00    +0.197 A 
ATOM      6  O   UNL     1       5.572   4.431   1.061  0.00  0.00    -0.464 OA
BRANCH   4   7
ATOM      7  C   UNL     1       7.916   5.468  -1.532  0.00  0.00    -0.047 C 
BRANCH   7   8
ATOM      8  N   UNL     1       7.737   6.903  -1.794  0.00  0.00    +0.381 N 
ATOM      9  H   UNL     1       8.495   7.236  -2.370  0.00  0.00    -0.090 HD
ATOM     10  H   UNL     1       6.861   7.051  -2.271  0.00  0.00    -0.090 HD
ATOM     11  H   UNL     1       7.734   7.406  -0.919  0.00  0.00    -0.090 HD
ENDBRANCH   7   8
ENDBRANCH   4   7
ENDBRANCH   1   2
BRANCH   1  12
ATOM     12  O   UNL     1       3.548   2.106  -0.021  0.00  0.00    -0.483 OA
BRANCH  12  15
ATOM     13  C   UNL     1      -0.017   1.379   0.010  0.00  0.00    +0.023 A 
ATOM     14  C   UNL     1       1.170   2.087   0.002  0.00  0.00    +0.048 A 
ATOM     15  C   UNL     1       2.380   1.411  -0.013  0.00  0.00    +0.135 A 
ATOM     16  C   UNL     1       2.397   0.023  -0.021  0.00  0.00    +0.061 A 
ATOM     17  C   UNL     1       1.209  -0.681  -0.013  0.00  0.00    +0.039 A 
ATOM     18  C   UNL     1       0.002  -0.004   0.002  0.00  0.00    +0.042 A 
ATOM     19 CL   UNL     1      -1.490  -0.891   0.011  0.00  0.00    -0.084 Cl
ATOM     20 BR   UNL     1       4.046  -0.903  -0.042  0.00  0.00    -0.046 Br
ENDBRANCH  12  15
ENDBRANCH   1  12
TORSDOF 5
