REMARK  Name = ZINC39699226
REMARK  10 active torsions:
REMARK  status: ('A' for Active; 'I' for Inactive)
REMARK    1  A    between atoms: C_1  and  C_2
REMARK    2  A    between atoms: C_2  and  C_3
REMARK    3  A    between atoms: C_10  and  C_15
REMARK    4  A    between atoms: C_15  and  C_17
REMARK    5  A    between atoms: C_15  and  N_26
REMARK    6  A    between atoms: N_21  and  C_22
REMARK    7  A    between atoms: C_22  and  C_23
REMARK    8  A    between atoms: C_23  and  O_24
REMARK    9  A    between atoms: O_24  and  C_25
REMARK   10  A    between atoms: C_29  and  C_32
REMARK                            x       y       z     vdW  Elec       q    Type
REMARK                         _______ _______ _______ _____ _____    ______ ____
ROOT
ATOM      1  C   UNL     1      -5.749  -3.758  -3.118  0.00  0.00    +0.018 C 
ENDROOT
BRANCH   1   9
ATOM      2  C   UNL     1      -3.143   0.375   0.072  0.00  0.00    -0.047 A 
ATOM      3  C   UNL     1      -3.760  -0.071   1.241  0.00  0.00    +0.005 A 
ATOM      4  C   UNL     1      -4.787  -0.961   1.235  0.00  0.00    +0.024 A 
ATOM      5  C   UNL     1      -5.277  -1.477   0.021  0.00  0.00    +0.040 A 
ATOM      6  N   UNL     1      -6.285  -2.349   0.027  0.00  0.00    -0.285 N 
ATOM      7  C   UNL     1      -6.794  -2.872  -1.076  0.00  0.00    +0.223 C 
ATOM      8  O   UNL     1      -7.715  -3.664  -1.008  0.00  0.00    -0.275 OA
ATOM      9  C   UNL     1      -6.226  -2.482  -2.422  0.00  0.00    +0.092 C 
ATOM     10  C   UNL     1      -5.080  -1.490  -2.434  0.00  0.00    -0.006 C 
ATOM     11  C   UNL     1      -4.645  -1.022  -1.230  0.00  0.00    -0.007 A 
ATOM     12  C   UNL     1      -3.547  -0.059  -1.150  0.00  0.00    +0.013 A 
ATOM     13  H   UNL     1      -6.663  -2.612   0.880  0.00  0.00    +0.155 HD
BRANCH   2  15
ATOM     14  C   UNL     1      -2.571   2.787   0.124  0.00  0.00    +0.009 C 
ATOM     15  C   UNL     1      -2.010   1.364   0.167  0.00  0.00    +0.032 C 
ENDBRANCH   2  15
ENDBRANCH   1   9
BRANCH   1  16
ATOM     16  N   UNL     1      -6.904  -4.614  -3.417  0.00  0.00    +0.387 N 
ATOM     17  C   UNL     1      -7.790  -3.927  -4.364  0.00  0.00    -0.078 C 
ATOM     18  C   UNL     1      -9.035  -4.780  -4.615  0.00  0.00    -0.015 C 
ATOM     19  C   UNL     1      -8.612  -6.131  -5.199  0.00  0.00    -0.018 C 
ATOM     20  C   UNL     1      -7.630  -6.806  -4.237  0.00  0.00    -0.015 C 
ATOM     21  C   UNL     1      -6.437  -5.878  -3.999  0.00  0.00    -0.078 C 
ATOM     22  C   UNL     1      -9.845  -7.019  -5.379  0.00  0.00    +0.007 C 
ATOM     23  H   UNL     1      -7.410  -4.805  -2.564  0.00  0.00    -0.081 HD
ENDBRANCH   1  16
BRANCH   1  24
ATOM     24  C   UNL     1      -4.796  -4.497  -2.214  0.00  0.00    +0.139 A 
ATOM     25  N   UNL     1      -5.080  -5.047  -1.060  0.00  0.00    -0.115 NA
ATOM     26  N   UNL     1      -4.003  -5.581  -0.597  0.00  0.00    -0.023 NA
ATOM     27  N   UNL     1      -3.038  -5.384  -1.426  0.00  0.00    -0.044 NA
ATOM     28  N   UNL     1      -3.488  -4.724  -2.439  0.00  0.00    -0.229 N 
BRANCH  28  29
ATOM     29  C   UNL     1      -2.720  -4.299  -3.611  0.00  0.00    +0.175 C 
BRANCH  29  30
ATOM     30  C   UNL     1      -1.997  -2.986  -3.299  0.00  0.00    +0.183 C 
BRANCH  30  31
ATOM     31  O   UNL     1      -1.341  -2.512  -4.477  0.00  0.00    -0.381 OA
ATOM     32  C   UNL     1      -0.632  -1.285  -4.293  0.00  0.00    +0.194 C 
ENDBRANCH  30  31
ENDBRANCH  29  30
ENDBRANCH  28  29
ENDBRANCH   1  24
TORSDOF 7
