REMARK  Name = ZINC46671804
REMARK  11 active torsions:
REMARK  status: ('A' for Active; 'I' for Inactive)
REMARK    1  A    between atoms: C_1  and  O_2
REMARK    2  A    between atoms: O_2  and  C_3
REMARK    3  A    between atoms: C_6  and  C_9
REMARK    4  A    between atoms: C_9  and  C_11
REMARK    5  A    between atoms: C_9  and  N_30
REMARK    6  A    between atoms: C_11  and  N_12
REMARK    7  A    between atoms: C_13  and  C_15
REMARK    8  A    between atoms: C_15  and  C_16
REMARK    9  A    between atoms: C_16  and  C_17
REMARK   10  A    between atoms: C_17  and  C_18
REMARK   11  A    between atoms: C_20  and  C_23
REMARK                            x       y       z     vdW  Elec       q    Type
REMARK                         _______ _______ _______ _____ _____    ______ ____
ROOT
ATOM      1  N   UNL     1       4.693  -1.749  -3.639  0.00  0.00    -0.317 N 
ATOM      2  C   UNL     1       5.972  -1.901  -3.241  0.00  0.00    +0.213 C 
ATOM      3  O   UNL     1       6.413  -3.010  -3.029  0.00  0.00    -0.276 OA
ATOM      4  H   UNL     1       4.340  -0.861  -3.809  0.00  0.00    +0.149 HD
ENDROOT
BRANCH   1   5
ATOM      5  C   UNL     1       3.836  -2.924  -3.815  0.00  0.00    +0.093 C 
BRANCH   5   6
ATOM      6  C   UNL     1       2.411  -2.472  -4.139  0.00  0.00    -0.020 C 
BRANCH   6   7
ATOM      7  N   UNL     1       1.569  -3.649  -4.394  0.00  0.00    +0.385 N 
ATOM      8  C   UNL     1       2.087  -4.376  -5.559  0.00  0.00    -0.078 C 
ATOM      9  C   UNL     1       1.264  -5.647  -5.779  0.00  0.00    -0.019 C 
ATOM     10  C   UNL     1      -0.199  -5.264  -6.023  0.00  0.00    -0.004 C 
ATOM     11  C   UNL     1      -0.706  -4.443  -4.834  0.00  0.00    -0.019 C 
ATOM     12  C   UNL     1       0.190  -3.217  -4.649  0.00  0.00    -0.078 C 
ATOM     13  H   UNL     1       1.587  -4.254  -3.587  0.00  0.00    -0.081 HD
ENDBRANCH   6   7
BRANCH   6  17
ATOM     14  C   UNL     1       0.825  -0.275  -0.834  0.00  0.00    +0.120 A 
ATOM     15  C   UNL     1       1.328   0.398  -1.939  0.00  0.00    +0.046 A 
ATOM     16  C   UNL     1       1.840  -0.315  -3.006  0.00  0.00    +0.005 A 
ATOM     17  C   UNL     1       1.852  -1.697  -2.974  0.00  0.00    -0.059 A 
ATOM     18  C   UNL     1       1.351  -2.370  -1.875  0.00  0.00    +0.005 A 
ATOM     19  C   UNL     1       0.844  -1.662  -0.802  0.00  0.00    +0.046 A 
BRANCH  14  21
ATOM     20  C   UNL     1       0.335   1.849   0.115  0.00  0.00    +0.277 C 
ATOM     21  O   UNL     1       0.321   0.423   0.217  0.00  0.00    -0.495 OA
ENDBRANCH  14  21
ENDBRANCH   6  17
ENDBRANCH   5   6
ENDBRANCH   1   5
BRANCH   2  22
ATOM     22  C   UNL     1       6.853  -0.692  -3.061  0.00  0.00    +0.096 C 
BRANCH  22  23
ATOM     23  C   UNL     1       8.245  -1.138  -2.608  0.00  0.00    +0.019 C 
BRANCH  23  24
ATOM     24  C   UNL     1       9.140   0.089  -2.424  0.00  0.00    +0.099 C 
BRANCH  24  25
ATOM     25  C   UNL     1      10.510  -0.351  -1.978  0.00  0.00    +0.228 A 
ATOM     26  N   UNL     1      11.509  -0.640  -2.762  0.00  0.00    -0.191 NA
ATOM     27  C   UNL     1      12.581  -0.994  -2.031  0.00  0.00    +0.202 A 
ATOM     28  N   UNL     1      12.262  -0.930  -0.762  0.00  0.00    -0.056 NA
ATOM     29  O   UNL     1      10.908  -0.505  -0.709  0.00  0.00    -0.338 OA
BRANCH  27  30
ATOM     30  C   UNL     1      13.905  -1.392  -2.571  0.00  0.00    +0.023 A 
ATOM     31  C   UNL     1      14.120  -1.415  -3.948  0.00  0.00    +0.013 A 
ATOM     32  C   UNL     1      15.353  -1.785  -4.445  0.00  0.00    +0.021 A 
ATOM     33  C   UNL     1      16.375  -2.134  -3.579  0.00  0.00    +0.041 A 
ATOM     34  C   UNL     1      16.166  -2.113  -2.211  0.00  0.00    +0.021 A 
ATOM     35  C   UNL     1      14.939  -1.738  -1.703  0.00  0.00    +0.013 A 
ATOM     36 CL   UNL     1      17.923  -2.599  -4.211  0.00  0.00    -0.084 Cl
ENDBRANCH  27  30
ENDBRANCH  24  25
ENDBRANCH  23  24
ENDBRANCH  22  23
ENDBRANCH   2  22
TORSDOF 10
