REMARK  Name = ZINC12593076
REMARK  7 active torsions:
REMARK  status: ('A' for Active; 'I' for Inactive)
REMARK    1  A    between atoms: C_1  and  C_2
REMARK    2  A    between atoms: C_2  and  C_3
REMARK    3  A    between atoms: C_3  and  C_4
REMARK    4  A    between atoms: C_10  and  C_30
REMARK    5  A    between atoms: C_11  and  C_13
REMARK    6  A    between atoms: C_18  and  C_21
REMARK    7  A    between atoms: C_18  and  N_24
REMARK                            x       y       z     vdW  Elec       q    Type
REMARK                         _______ _______ _______ _____ _____    ______ ____
ROOT
ATOM      1  C   UNL     1      -1.250  -7.083   0.902  0.00  0.00    +0.282 C 
ATOM      2  O   UNL     1      -1.153  -6.755   2.070  0.00  0.00    -0.267 OA
ATOM      3  N   UNL     1      -1.358  -8.387   0.576  0.00  0.00    -0.295 N 
ATOM      4  C   UNL     1      -1.306  -8.813  -0.829  0.00  0.00    +0.107 C 
ATOM      5  C   UNL     1      -0.227  -9.891  -0.978  0.00  0.00    +0.016 C 
ATOM      6  C   UNL     1      -0.504 -11.024   0.013  0.00  0.00    +0.015 C 
ATOM      7  C   UNL     1      -0.449 -10.479   1.442  0.00  0.00    +0.016 C 
ATOM      8  C   UNL     1      -1.524  -9.408   1.619  0.00  0.00    +0.107 C 
ENDROOT
BRANCH   1  16
ATOM      9  C   UNL     1      -1.138  -2.534  -3.071  0.00  0.00    -0.047 A 
ATOM     10  C   UNL     1      -1.449  -3.555  -3.959  0.00  0.00    +0.007 A 
ATOM     11  C   UNL     1      -1.593  -4.853  -3.518  0.00  0.00    +0.047 A 
ATOM     12  C   UNL     1      -1.425  -5.148  -2.169  0.00  0.00    +0.136 A 
ATOM     13  C   UNL     1      -1.109  -4.109  -1.274  0.00  0.00    +0.024 A 
ATOM     14  C   UNL     1      -0.963  -2.801  -1.743  0.00  0.00    +0.015 A 
ATOM     15  C   UNL     1      -1.002  -4.739   0.042  0.00  0.00    +0.008 A 
ATOM     16  C   UNL     1      -1.251  -6.059  -0.152  0.00  0.00    +0.194 A 
ATOM     17  O   UNL     1      -1.499  -6.290  -1.458  0.00  0.00    -0.450 OA
ATOM     18  C   UNL     1      -0.679  -4.059   1.347  0.00  0.00    +0.048 C 
BRANCH   9  19
ATOM     19  C   UNL     1      -0.986  -1.123  -3.578  0.00  0.00    +0.035 C 
BRANCH  19  21
ATOM     20  C   UNL     1       0.625   0.552  -4.495  0.00  0.00    +0.004 C 
ATOM     21  C   UNL     1       0.470  -0.880  -3.981  0.00  0.00    +0.001 C 
ENDBRANCH  19  21
ENDBRANCH   9  19
ENDBRANCH   1  16
BRANCH   6  22
ATOM     22  N   UNL     1       0.510 -12.075  -0.149  0.00  0.00    +0.389 N 
ATOM     23  C   UNL     1       0.453 -12.600  -1.519  0.00  0.00    -0.077 C 
ATOM     24  C   UNL     1       1.560 -13.637  -1.718  0.00  0.00    -0.019 C 
ATOM     25  C   UNL     1       1.363 -14.783  -0.721  0.00  0.00    -0.004 C 
ATOM     26  C   UNL     1       1.350 -14.214   0.701  0.00  0.00    -0.019 C 
ATOM     27  C   UNL     1       0.251 -13.155   0.810  0.00  0.00    -0.077 C 
ATOM     28  H   UNL     1       1.425 -11.686   0.022  0.00  0.00    -0.080 HD
ENDBRANCH   6  22
BRANCH   6  29
ATOM     29  C   UNL     1      -1.871 -11.600  -0.252  0.00  0.00    +0.200 C 
ATOM     30  O   UNL     1      -2.444 -11.348  -1.290  0.00  0.00    -0.278 OA
ATOM     31  N   UNL     1      -2.456 -12.396   0.665  0.00  0.00    -0.330 N 
ATOM     32  H   UNL     1      -2.031 -12.538   1.526  0.00  0.00    +0.145 HD
ATOM     33  H   UNL     1      -3.302 -12.826   0.465  0.00  0.00    +0.145 HD
ENDBRANCH   6  29
TORSDOF 5
