REMARK  Name = ZINC00806246
REMARK  7 active torsions:
REMARK  status: ('A' for Active; 'I' for Inactive)
REMARK    1  A    between atoms: C_6  and  C_11
REMARK    2  A    between atoms: C_18  and  N_35
REMARK    3  A    between atoms: C_19  and  C_33
REMARK    4  A    between atoms: C_20  and  C_22
REMARK    5  A    between atoms: C_25  and  O_28
REMARK    6  A    between atoms: O_28  and  C_29
REMARK    7  A    between atoms: C_29  and  C_30
REMARK                            x       y       z     vdW  Elec       q    Type
REMARK                         _______ _______ _______ _____ _____    ______ ____
ROOT
ATOM      1  C   UNL     1       4.983  -2.713  -0.060  0.00  0.00    +0.100 A 
ATOM      2  C   UNL     1       5.259  -3.928   0.575  0.00  0.00    +0.054 A 
ATOM      3  C   UNL     1       6.559  -4.252   0.319  0.00  0.00    +0.223 A 
ATOM      4  N   UNL     1       7.083  -3.275  -0.449  0.00  0.00    -0.246 N 
ATOM      5  H   UNL     1       7.993  -3.239  -0.785  0.00  0.00    +0.192 HD
ATOM      6  N   UNL     1       6.080  -2.321  -0.682  0.00  0.00    -0.171 NA
ATOM      7  O   UNL     1       7.139  -5.383   0.794  0.00  0.00    -0.423 OA
ATOM      8  C   UNL     1       6.329  -6.332   1.306  0.00  0.00    +0.200 C 
ATOM      9  C   UNL     1       5.029  -6.127   1.611  0.00  0.00    +0.098 C 
ATOM     10  C   UNL     1       4.352  -4.794   1.411  0.00  0.00    +0.102 C 
ENDROOT
BRANCH   1  16
ATOM     11  C   UNL     1      -0.016   1.357   0.009  0.00  0.00    +0.001 A 
ATOM     12  C   UNL     1       1.168   2.091   0.002  0.00  0.00    +0.001 A 
ATOM     13  C   UNL     1       2.378   1.468  -0.013  0.00  0.00    +0.008 A 
ATOM     14  C   UNL     1       2.437   0.063  -0.021  0.00  0.00    -0.017 A 
ATOM     15  C   UNL     1       3.668  -0.612  -0.036  0.00  0.00    +0.018 A 
ATOM     16  C   UNL     1       3.685  -1.994  -0.044  0.00  0.00    +0.003 A 
ATOM     17  C   UNL     1       2.485  -2.723  -0.036  0.00  0.00    +0.011 A 
ATOM     18  C   UNL     1       1.284  -2.089  -0.021  0.00  0.00    +0.009 A 
ATOM     19  C   UNL     1       1.232  -0.684  -0.013  0.00  0.00    -0.018 A 
ATOM     20  C   UNL     1       0.002  -0.004   0.002  0.00  0.00    +0.008 A 
ENDBRANCH   1  16
BRANCH  10  21
ATOM     21  C   UNL     1       4.113  -4.138   2.747  0.00  0.00    -0.034 A 
ATOM     22  C   UNL     1       5.181  -3.865   3.582  0.00  0.00    +0.008 A 
ATOM     23  C   UNL     1       4.964  -3.264   4.807  0.00  0.00    +0.046 A 
ATOM     24  C   UNL     1       3.674  -2.936   5.199  0.00  0.00    +0.121 A 
ATOM     25  C   UNL     1       2.605  -3.211   4.359  0.00  0.00    +0.046 A 
ATOM     26  C   UNL     1       2.828  -3.807   3.132  0.00  0.00    +0.008 A 
BRANCH  24  27
ATOM     27  O   UNL     1       3.459  -2.346   6.404  0.00  0.00    -0.483 OA
BRANCH  27  28
ATOM     28  C   UNL     1       2.105  -2.036   6.742  0.00  0.00    +0.324 C 
BRANCH  28  29
ATOM     29  C   UNL     1       2.062  -1.391   8.103  0.00  0.00    +0.248 C 
ATOM     30  O   UNL     1       3.089  -1.215   8.724  0.00  0.00    -0.272 OA
ATOM     31  N   UNL     1       0.882  -1.011   8.632  0.00  0.00    -0.327 N 
ATOM     32  H   UNL     1       0.060  -1.152   8.136  0.00  0.00    +0.145 HD
ATOM     33  H   UNL     1       0.854  -0.596   9.508  0.00  0.00    +0.145 HD
ENDBRANCH  28  29
ENDBRANCH  27  28
ENDBRANCH  24  27
ENDBRANCH  10  21
BRANCH   8  34
ATOM     34  N   UNL     1       6.856  -7.580   1.528  0.00  0.00    -0.328 N 
ATOM     35  H   UNL     1       7.786  -7.758   1.318  0.00  0.00    +0.145 HD
ATOM     36  H   UNL     1       6.298  -8.284   1.895  0.00  0.00    +0.145 HD
ENDBRANCH   8  34
BRANCH   9  37
ATOM     37  C   UNL     1       4.265  -7.214   2.145  0.00  0.00    +0.101 C 
ATOM     38  N   UNL     1       3.660  -8.077   2.569  0.00  0.00    -0.191 NA
ENDBRANCH   9  37
TORSDOF 7
