REMARK  Name = ZINC12308140
REMARK  6 active torsions:
REMARK  status: ('A' for Active; 'I' for Inactive)
REMARK    1  A    between atoms: C_1  and  C_2
REMARK    2  A    between atoms: C_5  and  C_7
REMARK    3  A    between atoms: C_7  and  N_54
REMARK    4  A    between atoms: C_10  and  N_56
REMARK    5  A    between atoms: C_12  and  O_15
REMARK    6  A    between atoms: N_18  and  C_21
REMARK                            x       y       z     vdW  Elec       q    Type
REMARK                         _______ _______ _______ _____ _____    ______ ____
ROOT
ATOM      1  C   UNL     1      -3.519  -0.801   1.165  0.00  0.00    -0.080 C 
ATOM      2  C   UNL     1      -2.122  -0.180   1.212  0.00  0.00    -0.031 C 
ATOM      3  C   UNL     1      -1.361  -0.549  -0.064  0.00  0.00    -0.043 C 
ATOM      4  C   UNL     1      -1.297  -2.074  -0.189  0.00  0.00    +0.085 C 
ATOM      5  C   UNL     1      -2.719  -2.640  -0.196  0.00  0.00    -0.048 C 
ATOM      6  N   UNL     1      -3.388  -2.271   1.069  0.00  0.00    +0.384 N 
ATOM      7  H   UNL     1      -2.821  -2.606   1.857  0.00  0.00    -0.081 HD
ENDROOT
BRANCH   3  13
ATOM      8  C   UNL     1      -0.018   1.465   0.010  0.00  0.00    -0.059 C 
ATOM      9  C   UNL     1       1.419   1.992  -0.001  0.00  0.00    +0.086 C 
ATOM     10  N   UNL     1       2.138   1.472   1.171  0.00  0.00    -0.331 N 
ATOM     11  C   UNL     1       2.158   0.003   1.162  0.00  0.00    +0.086 C 
ATOM     12  C   UNL     1       0.721  -0.525   1.173  0.00  0.00    -0.059 C 
ATOM     13  N   UNL     1       0.016  -0.012  -0.021  0.00  0.00    +0.385 N 
ATOM     14  H   UNL     1       0.520  -0.317  -0.862  0.00  0.00    -0.081 HD
BRANCH  10  15
ATOM     15  C   UNL     1       3.435   1.990   1.234  0.00  0.00    +0.065 A 
ATOM     16  C   UNL     1       4.253   1.689   2.314  0.00  0.00    +0.026 A 
ATOM     17  C   UNL     1       5.536   2.198   2.371  0.00  0.00    +0.002 A 
ATOM     18  C   UNL     1       6.003   3.017   1.359  0.00  0.00    +0.003 A 
ATOM     19  C   UNL     1       5.190   3.325   0.283  0.00  0.00    +0.040 A 
ATOM     20  C   UNL     1       3.907   2.814   0.217  0.00  0.00    +0.144 A 
ATOM     21  F   UNL     1       3.112   3.115  -0.834  0.00  0.00    -0.204 F 
ENDBRANCH  10  15
ENDBRANCH   3  13
BRANCH   4  22
ATOM     22  O   UNL     1      -0.637  -2.426  -1.406  0.00  0.00    -0.395 OA
ATOM     23  H   UNL     1      -0.561  -3.379  -1.551  0.00  0.00    +0.210 HD
ENDBRANCH   4  22
BRANCH   6  24
ATOM     24  C   UNL     1      -4.723  -2.902   1.137  0.00  0.00    -0.036 C 
BRANCH  24  29
ATOM     25  C   UNL     1      -8.150  -0.673  -2.785  0.00  0.00    +0.051 C 
ATOM     26  C   UNL     1      -7.187  -1.449  -1.924  0.00  0.00    -0.013 A 
ATOM     27  C   UNL     1      -6.494  -2.576  -2.220  0.00  0.00    +0.011 A 
ATOM     28  C   UNL     1      -5.658  -3.120  -1.263  0.00  0.00    +0.009 A 
ATOM     29  C   UNL     1      -5.555  -2.510  -0.057  0.00  0.00    -0.026 A 
ATOM     30  S   UNL     1      -6.667  -1.126  -0.247  0.00  0.00    -0.100 S 
ENDBRANCH  24  29
ENDBRANCH   6  24
TORSDOF 5
