REMARK  Name = ZINC39969428
REMARK  8 active torsions:
REMARK  status: ('A' for Active; 'I' for Inactive)
REMARK    1  A    between atoms: C_2  and  C_3
REMARK    2  A    between atoms: C_3  and  N_4
REMARK    3  A    between atoms: C_5  and  C_25
REMARK    4  A    between atoms: C_9  and  S_11
REMARK    5  A    between atoms: S_11  and  C_12
REMARK    6  A    between atoms: C_12  and  C_13
REMARK    7  A    between atoms: C_25  and  N_26
REMARK    8  A    between atoms: C_27  and  C_29
REMARK                            x       y       z     vdW  Elec       q    Type
REMARK                         _______ _______ _______ _____ _____    ______ ____
ROOT
ATOM      1  N   UNL     1      -1.324  -1.737  -1.231  0.00  0.00    -0.256 NA
ATOM      2  C   UNL     1      -2.483  -2.632  -1.041  0.00  0.00    +0.158 C 
ATOM      3  N   UNL     1      -3.366  -2.434  -2.213  0.00  0.00    -0.236 NA
ATOM      4  N   UNL     1      -2.471  -1.923  -3.264  0.00  0.00    -0.229 NA
ATOM      5  C   UNL     1      -1.548  -1.032  -2.514  0.00  0.00    +0.200 C 
ATOM      6  H   UNL     1      -3.794  -3.303  -2.494  0.00  0.00    +0.142 HD
ATOM      7  H   UNL     1      -2.989  -1.405  -3.958  0.00  0.00    +0.143 HD
ENDROOT
BRANCH   1   8
ATOM      8  C   UNL     1      -1.207  -0.784  -0.119  0.00  0.00    +0.115 C 
BRANCH   8  10
ATOM      9  C   UNL     1       0.076   1.289  -0.268  0.00  0.00    +0.005 C 
ATOM     10  C   UNL     1       0.087  -0.021  -0.245  0.00  0.00    -0.019 C 
ENDBRANCH   8  10
ENDBRANCH   1   8
BRANCH   5  11
ATOM     11  S   UNL     1       0.016  -0.837  -3.413  0.00  0.00    -0.117 S 
BRANCH  11  12
ATOM     12  C   UNL     1       0.511  -2.537  -3.806  0.00  0.00    +0.146 C 
BRANCH  12  13
ATOM     13  C   UNL     1       1.871  -2.527  -4.454  0.00  0.00    +0.120 A 
ATOM     14  N   UNL     1       2.415  -3.714  -4.829  0.00  0.00    -0.310 N 
ATOM     15  H   UNL     1       1.925  -4.537  -4.675  0.00  0.00    +0.170 HD
ATOM     16  C   UNL     1       3.634  -3.759  -5.416  0.00  0.00    +0.259 A 
ATOM     17  O   UNL     1       4.133  -4.815  -5.758  0.00  0.00    -0.267 OA
ATOM     18  C   UNL     1       4.332  -2.482  -5.625  0.00  0.00    +0.065 A 
ATOM     19  C   UNL     1       5.590  -2.418  -6.220  0.00  0.00    +0.015 A 
ATOM     20  C   UNL     1       6.199  -1.194  -6.391  0.00  0.00    +0.001 A 
ATOM     21  C   UNL     1       5.569  -0.028  -5.976  0.00  0.00    +0.002 A 
ATOM     22  C   UNL     1       4.326  -0.069  -5.386  0.00  0.00    +0.028 A 
ATOM     23  C   UNL     1       3.688  -1.297  -5.202  0.00  0.00    +0.078 A 
ATOM     24  N   UNL     1       2.461  -1.384  -4.631  0.00  0.00    -0.233 NA
ENDBRANCH  12  13
ENDBRANCH  11  12
ENDBRANCH   5  11
BRANCH   2  25
ATOM     25  C   UNL     1      -2.017  -4.088  -0.975  0.00  0.00    +0.140 C 
BRANCH  25  26
ATOM     26  N   UNL     1      -3.157  -4.952  -0.659  0.00  0.00    -0.308 N 
ATOM     27  C   UNL     1      -3.005  -6.292  -0.649  0.00  0.00    +0.247 C 
ATOM     28  O   UNL     1      -1.903  -6.779  -0.810  0.00  0.00    -0.270 OA
ATOM     29  H   UNL     1      -4.021  -4.561  -0.458  0.00  0.00    +0.149 HD
BRANCH  27  30
ATOM     30  C   UNL     1      -4.176  -7.166  -0.441  0.00  0.00    +0.072 A 
ATOM     31  C   UNL     1      -5.458  -6.617  -0.367  0.00  0.00    +0.016 A 
ATOM     32  C   UNL     1      -6.548  -7.439  -0.173  0.00  0.00    +0.001 A 
ATOM     33  C   UNL     1      -6.375  -8.807  -0.052  0.00  0.00    +0.003 A 
ATOM     34  C   UNL     1      -5.111  -9.361  -0.123  0.00  0.00    +0.039 A 
ATOM     35  C   UNL     1      -4.008  -8.550  -0.323  0.00  0.00    +0.135 A 
ATOM     36  F   UNL     1      -2.773  -9.091  -0.399  0.00  0.00    -0.205 F 
ENDBRANCH  27  30
ENDBRANCH  25  26
ENDBRANCH   2  25
TORSDOF 8
