REMARK  Name = ZINC35926541
REMARK  12 active torsions:
REMARK  status: ('A' for Active; 'I' for Inactive)
REMARK    1  A    between atoms: C_1  and  C_2
REMARK    2  A    between atoms: C_2  and  C_3
REMARK    3  A    between atoms: C_3  and  C_4
REMARK    4  A    between atoms: C_4  and  C_5
REMARK    5  A    between atoms: C_5  and  C_7
REMARK    6  A    between atoms: C_5  and  C_9
REMARK    7  A    between atoms: C_7  and  C_8
REMARK    8  A    between atoms: C_23  and  C_25
REMARK    9  A    between atoms: C_25  and  N_26
REMARK   10  A    between atoms: N_29  and  C_32
REMARK   11  A    between atoms: C_36  and  O_38
REMARK   12  A    between atoms: O_38  and  C_39
REMARK                            x       y       z     vdW  Elec       q    Type
REMARK                         _______ _______ _______ _____ _____    ______ ____
ROOT
ATOM      1  C   UNL     1      -2.186  -3.588  -2.816  0.00  0.00    +0.219 C 
ATOM      2  O   UNL     1      -2.085  -2.391  -2.647  0.00  0.00    -0.275 OA
ATOM      3  N   UNL     1      -3.393  -4.135  -3.058  0.00  0.00    -0.298 N 
ATOM      4  C   UNL     1      -3.542  -5.592  -3.179  0.00  0.00    +0.127 C 
ATOM      5  C   UNL     1      -4.605  -6.061  -2.178  0.00  0.00    +0.127 C 
ATOM      6  N   UNL     1      -5.796  -5.212  -2.324  0.00  0.00    -0.298 N 
ATOM      7  C   UNL     1      -5.646  -3.755  -2.203  0.00  0.00    +0.127 C 
ATOM      8  C   UNL     1      -4.585  -3.287  -3.199  0.00  0.00    +0.127 C 
ATOM      9  C   UNL     1      -7.022  -5.769  -2.570  0.00  0.00    +0.198 A 
ATOM     10  N   UNL     1      -7.155  -7.123  -2.563  0.00  0.00    -0.295 N 
ATOM     11  H   UNL     1      -6.386  -7.686  -2.385  0.00  0.00    +0.172 HD
ATOM     12  C   UNL     1      -8.362  -7.679  -2.805  0.00  0.00    +0.253 A 
ATOM     13  O   UNL     1      -8.499  -8.891  -2.802  0.00  0.00    -0.268 OA
ATOM     14  C   UNL     1      -9.457  -6.834  -3.059  0.00  0.00    +0.091 A 
ATOM     15  C   UNL     1      -9.263  -5.483  -3.053  0.00  0.00    +0.034 A 
ATOM     16  N   UNL     1      -8.055  -4.983  -2.804  0.00  0.00    -0.223 NA
ENDROOT
BRANCH   1  17
ATOM     17  C   UNL     1      -0.960  -4.462  -2.754  0.00  0.00    +0.075 C 
BRANCH  17  18
ATOM     18  C   UNL     1      -0.684  -5.052  -4.139  0.00  0.00    +0.009 C 
ATOM     19  C   UNL     1      -0.329  -3.925  -5.111  0.00  0.00    +0.004 C 
ENDBRANCH  17  18
BRANCH  17  20
ATOM     20  C   UNL     1       0.241  -3.627  -2.307  0.00  0.00    +0.013 C 
BRANCH  20  21
ATOM     21  C   UNL     1       1.453  -4.540  -2.111  0.00  0.00    +0.000 C 
BRANCH  21  23
ATOM     22  C   UNL     1       3.894  -4.604  -1.580  0.00  0.00    +0.004 C 
ATOM     23  C   UNL     1       2.681  -3.691  -1.775  0.00  0.00    -0.003 C 
ENDBRANCH  21  23
ENDBRANCH  20  21
ENDBRANCH  17  20
ENDBRANCH   1  17
BRANCH  15  24
ATOM     24  C   UNL     1     -10.420  -4.556  -3.322  0.00  0.00    -0.022 C 
BRANCH  24  25
ATOM     25  N   UNL     1     -10.701  -3.762  -2.118  0.00  0.00    +0.385 N 
ATOM     26  C   UNL     1      -9.553  -2.893  -1.828  0.00  0.00    -0.059 C 
ATOM     27  C   UNL     1      -9.797  -2.149  -0.511  0.00  0.00    +0.086 C 
ATOM     28  N   UNL     1     -11.084  -1.443  -0.606  0.00  0.00    -0.333 N 
ATOM     29  C   UNL     1     -12.262  -2.205  -1.050  0.00  0.00    +0.086 C 
ATOM     30  C   UNL     1     -11.902  -2.946  -2.342  0.00  0.00    -0.059 C 
ATOM     31  H   UNL     1     -10.857  -4.381  -1.337  0.00  0.00    -0.081 HD
BRANCH  28  32
ATOM     32  C   UNL     1     -11.186  -0.088  -0.283  0.00  0.00    +0.033 A 
ATOM     33  C   UNL     1     -12.430   0.531  -0.262  0.00  0.00    +0.023 A 
ATOM     34  C   UNL     1     -12.529   1.872   0.057  0.00  0.00    +0.005 A 
ATOM     35  C   UNL     1     -11.393   2.600   0.356  0.00  0.00    +0.046 A 
ATOM     36  C   UNL     1     -10.149   1.987   0.337  0.00  0.00    +0.122 A 
ATOM     37  C   UNL     1     -10.044   0.641   0.022  0.00  0.00    +0.068 A 
BRANCH  36  38
ATOM     38  O   UNL     1      -9.033   2.705   0.631  0.00  0.00    -0.495 OA
ATOM     39  C   UNL     1      -9.215   4.085   0.951  0.00  0.00    +0.277 C 
ENDBRANCH  36  38
ENDBRANCH  28  32
ENDBRANCH  24  25
ENDBRANCH  15  24
TORSDOF 9
