REMARK  Name = ZINC42957063
REMARK  8 active torsions:
REMARK  status: ('A' for Active; 'I' for Inactive)
REMARK    1  A    between atoms: C_1  and  C_2
REMARK    2  A    between atoms: C_5  and  C_8
REMARK    3  A    between atoms: C_8  and  C_10
REMARK    4  A    between atoms: C_8  and  N_11
REMARK    5  A    between atoms: N_11  and  C_12
REMARK    6  A    between atoms: N_15  and  C_16
REMARK    7  A    between atoms: C_16  and  C_17
REMARK    8  A    between atoms: C_17  and  C_18
REMARK                            x       y       z     vdW  Elec       q    Type
REMARK                         _______ _______ _______ _____ _____    ______ ____
ROOT
ATOM      1  N   UNL     1      -0.720  -4.780   1.112  0.00  0.00    -0.282 N 
ATOM      2  C   UNL     1      -0.402  -4.341   2.473  0.00  0.00    +0.134 C 
ATOM      3  C   UNL     1      -1.648  -5.737   0.911  0.00  0.00    +0.302 C 
ATOM      4  O   UNL     1      -1.912  -6.101  -0.218  0.00  0.00    -0.253 OA
ATOM      5  N   UNL     1      -2.284  -6.290   1.963  0.00  0.00    -0.299 N 
ATOM      6  H   UNL     1      -2.073  -5.999   2.864  0.00  0.00    +0.150 HD
ENDROOT
BRANCH   1   7
ATOM      7  C   UNL     1      -0.029  -4.179  -0.032  0.00  0.00    +0.104 C 
ATOM      8  C   UNL     1       1.483  -4.290   0.170  0.00  0.00    +0.033 C 
BRANCH   7  13
ATOM      9  C   UNL     1      -1.512   1.390  -0.465  0.00  0.00    +0.044 C 
ATOM     10  C   UNL     1      -1.125  -0.062  -0.352  0.00  0.00    -0.050 A 
ATOM     11  C   UNL     1      -1.300  -0.910  -1.430  0.00  0.00    +0.004 A 
ATOM     12  C   UNL     1      -0.945  -2.242  -1.326  0.00  0.00    +0.006 A 
ATOM     13  C   UNL     1      -0.415  -2.726  -0.145  0.00  0.00    -0.027 A 
ATOM     14  C   UNL     1      -0.239  -1.879   0.933  0.00  0.00    +0.006 A 
ATOM     15  C   UNL     1      -0.590  -0.546   0.828  0.00  0.00    +0.004 A 
ENDBRANCH   7  13
ENDBRANCH   1   7
BRANCH   5  16
ATOM     16  C   UNL     1      -3.292  -7.330   1.745  0.00  0.00    +0.110 C 
BRANCH  16  17
ATOM     17  C   UNL     1      -3.856  -7.784   3.094  0.00  0.00    +0.056 C 
BRANCH  17  18
ATOM     18  C   UNL     1      -4.893  -8.854   2.869  0.00  0.00    -0.021 A 
ATOM     19  C   UNL     1      -6.220  -8.671   2.773  0.00  0.00    +0.087 A 
ATOM     20  N   UNL     1      -6.842  -9.873   2.570  0.00  0.00    -0.360 N 
ATOM     21  H   UNL     1      -7.799  -9.995   2.470  0.00  0.00    +0.165 HD
ATOM     22  C   UNL     1      -5.908 -10.883   2.530  0.00  0.00    +0.047 A 
ATOM     23  C   UNL     1      -4.645 -10.288   2.709  0.00  0.00    +0.003 A 
ATOM     24  C   UNL     1      -3.496 -11.080   2.708  0.00  0.00    +0.010 A 
ATOM     25  C   UNL     1      -3.602 -12.431   2.528  0.00  0.00    +0.001 A 
ATOM     26  C   UNL     1      -4.845 -13.022   2.347  0.00  0.00    +0.002 A 
ATOM     27  C   UNL     1      -5.993 -12.261   2.354  0.00  0.00    +0.026 A 
ENDBRANCH  17  18
ENDBRANCH  16  17
ENDBRANCH   5  16
TORSDOF 5
