REMARK  Name = ZINC39537287
REMARK  13 active torsions:
REMARK  status: ('A' for Active; 'I' for Inactive)
REMARK    1  A    between atoms: C_1  and  C_2
REMARK    2  A    between atoms: C_7  and  N_8
REMARK    3  A    between atoms: C_10  and  C_24
REMARK    4  A    between atoms: C_12  and  C_15
REMARK    5  A    between atoms: C_18  and  O_22
REMARK    6  A    between atoms: O_22  and  C_23
REMARK    7  A    between atoms: C_24  and  N_25
REMARK    8  A    between atoms: N_25  and  C_26
REMARK    9  A    between atoms: N_25  and  C_27
REMARK   10  A    between atoms: C_27  and  C_28
REMARK   11  A    between atoms: C_28  and  C_29
REMARK   12  A    between atoms: C_30  and  C_36
REMARK   13  A    between atoms: C_33  and  C_35
REMARK                            x       y       z     vdW  Elec       q    Type
REMARK                         _______ _______ _______ _____ _____    ______ ____
ROOT
ATOM      1  N   UNL     1       0.025  -0.016   2.415  0.00  0.00    -0.266 N 
ATOM      2  C   UNL     1      -0.945  -0.217   3.503  0.00  0.00    +0.127 C 
ATOM      3  C   UNL     1      -0.476   0.711   4.650  0.00  0.00    +0.014 C 
ATOM      4  C   UNL     1       1.008   0.948   4.256  0.00  0.00    +0.106 C 
ATOM      5  N   UNL     1       0.935   0.945   2.775  0.00  0.00    -0.232 NA
ATOM      6  H   UNL     1       1.839   0.756   2.368  0.00  0.00    +0.145 HD
ENDROOT
BRANCH   1  13
ATOM      7  C   UNL     1      -0.018   1.503   0.010  0.00  0.00    +0.046 C 
ATOM      8  C   UNL     1       0.002  -0.004   0.002  0.00  0.00    -0.028 A 
ATOM      9  C   UNL     1       0.006  -0.689  -1.198  0.00  0.00    +0.005 A 
ATOM     10  C   UNL     1       0.024  -2.071  -1.206  0.00  0.00    +0.000 A 
ATOM     11  C   UNL     1       0.039  -2.773  -0.014  0.00  0.00    +0.002 A 
ATOM     12  C   UNL     1       0.036  -2.095   1.188  0.00  0.00    +0.025 A 
ATOM     13  C   UNL     1       0.023  -0.706   1.200  0.00  0.00    +0.047 A 
ENDBRANCH   1  13
BRANCH   4  14
ATOM     14  C   UNL     1       1.497   2.277   4.772  0.00  0.00    -0.026 A 
ATOM     15  C   UNL     1       1.181   3.439   4.093  0.00  0.00    +0.009 A 
ATOM     16  C   UNL     1       1.628   4.659   4.563  0.00  0.00    +0.049 A 
ATOM     17  C   UNL     1       2.394   4.719   5.717  0.00  0.00    +0.155 A 
ATOM     18  C   UNL     1       2.711   3.550   6.398  0.00  0.00    +0.165 A 
ATOM     19  C   UNL     1       2.256   2.332   5.926  0.00  0.00    +0.047 A 
ATOM     20  F   UNL     1       3.457   3.604   7.523  0.00  0.00    -0.202 F 
BRANCH  17  21
ATOM     21  O   UNL     1       2.836   5.918   6.181  0.00  0.00    -0.492 OA
ATOM     22  C   UNL     1       2.472   7.078   5.429  0.00  0.00    +0.277 C 
ENDBRANCH  17  21
ENDBRANCH   4  14
BRANCH   3  23
ATOM     23  C   UNL     1      -0.581   0.009   6.005  0.00  0.00    -0.072 C 
BRANCH  23  24
ATOM     24  N   UNL     1      -1.995  -0.235   6.322  0.00  0.00    +0.378 N 
ATOM     25  C   UNL     1      -2.686   1.050   6.495  0.00  0.00    -0.096 C 
ATOM     26  H   UNL     1      -2.425  -0.749   5.567  0.00  0.00    -0.082 HD
BRANCH  24  27
ATOM     27  C   UNL     1      -2.091  -1.014   7.563  0.00  0.00    -0.075 C 
BRANCH  27  28
ATOM     28  C   UNL     1      -3.554  -1.374   7.827  0.00  0.00    +0.016 C 
BRANCH  28  29
ATOM     29  C   UNL     1      -3.653  -2.174   9.100  0.00  0.00    -0.023 C 
ATOM     30  C   UNL     1      -3.923  -1.731  10.330  0.00  0.00    +0.061 C 
ATOM     31  N   UNL     1      -3.926  -2.751  11.218  0.00  0.00    -0.159 NA
ATOM     32  N   UNL     1      -3.685  -3.857  10.727  0.00  0.00    -0.180 NA
ATOM     33  C   UNL     1      -3.475  -3.671   9.281  0.00  0.00    +0.153 C 
ATOM     34  C   UNL     1      -2.062  -4.100   8.882  0.00  0.00    +0.039 C 
ATOM     35  C   UNL     1      -4.189  -0.290  10.682  0.00  0.00    +0.067 C 
ENDBRANCH  28  29
ENDBRANCH  27  28
ENDBRANCH  24  27
ENDBRANCH  23  24
ENDBRANCH   3  23
TORSDOF 8
