REMARK  Name = ZINC46898349
REMARK  10 active torsions:
REMARK  status: ('A' for Active; 'I' for Inactive)
REMARK    1  A    between atoms: C_1  and  C_2
REMARK    2  A    between atoms: C_2  and  C_3
REMARK    3  A    between atoms: C_2  and  C_4
REMARK    4  A    between atoms: C_2  and  C_5
REMARK    5  A    between atoms: C_5  and  C_6
REMARK    6  A    between atoms: C_6  and  C_8
REMARK    7  A    between atoms: C_6  and  N_14
REMARK    8  A    between atoms: N_17  and  N_18
REMARK    9  A    between atoms: C_19  and  C_21
REMARK   10  A    between atoms: C_25  and  N_27
REMARK                            x       y       z     vdW  Elec       q    Type
REMARK                         _______ _______ _______ _____ _____    ______ ____
ROOT
ATOM      1  N   UNL     1       2.298   1.492  -1.989  0.00  0.00    -0.291 N 
ATOM      2  C   UNL     1       2.485   2.264  -0.900  0.00  0.00    +0.316 C 
ATOM      3  O   UNL     1       2.475   1.765   0.208  0.00  0.00    -0.251 OA
ATOM      4  N   UNL     1       2.682   3.590  -1.040  0.00  0.00    -0.218 N 
ATOM      5  H   UNL     1       2.380   1.876  -2.876  0.00  0.00    +0.151 HD
ATOM      6  H   UNL     1       2.817   4.146  -0.257  0.00  0.00    +0.174 HD
ENDROOT
BRANCH   4   7
ATOM      7  N   UNL     1       2.694   4.165  -2.318  0.00  0.00    -0.229 N 
ATOM      8  C   UNL     1       2.891   5.491  -2.458  0.00  0.00    +0.260 C 
ATOM      9  O   UNL     1       3.059   6.188  -1.476  0.00  0.00    -0.269 OA
ATOM     10  H   UNL     1       2.559   3.609  -3.101  0.00  0.00    +0.173 HD
BRANCH   8  11
ATOM     11  C   UNL     1       2.903   6.098  -3.806  0.00  0.00    +0.040 A 
ATOM     12  C   UNL     1       2.704   5.302  -4.935  0.00  0.00    +0.013 A 
ATOM     13  C   UNL     1       2.716   5.875  -6.190  0.00  0.00    +0.003 A 
ATOM     14  C   UNL     1       2.924   7.236  -6.330  0.00  0.00    +0.033 A 
ATOM     15  C   UNL     1       3.122   8.030  -5.216  0.00  0.00    +0.127 A 
ATOM     16  C   UNL     1       3.107   7.471  -3.954  0.00  0.00    +0.045 A 
BRANCH  15  17
ATOM     17  N   UNL     1       3.345   9.485  -5.375  0.00  0.00    +0.056 N 
ATOM     18  O   UNL     1       3.353   9.977  -6.480  0.00  0.00    -0.126 OA
ATOM     19  O   UNL     1       3.518  10.181  -4.402  0.00  0.00    -0.126 OA
ENDBRANCH  15  17
ENDBRANCH   8  11
ENDBRANCH   4   7
BRANCH   1  20
ATOM     20  C   UNL     1       1.973   0.072  -1.833  0.00  0.00    +0.105 C 
BRANCH  20  21
ATOM     21  C   UNL     1       2.478  -0.694  -3.029  0.00  0.00    -0.027 A 
ATOM     22  C   UNL     1       2.061  -0.344  -4.299  0.00  0.00    +0.005 A 
ATOM     23  C   UNL     1       2.524  -1.046  -5.396  0.00  0.00    +0.000 A 
ATOM     24  C   UNL     1       3.404  -2.098  -5.223  0.00  0.00    +0.000 A 
ATOM     25  C   UNL     1       3.821  -2.448  -3.952  0.00  0.00    +0.000 A 
ATOM     26  C   UNL     1       3.361  -1.743  -2.855  0.00  0.00    +0.005 A 
ENDBRANCH  20  21
BRANCH  20  27
ATOM     27  C   UNL     1       0.456  -0.095  -1.724  0.00  0.00    +0.033 C 
BRANCH  27  29
ATOM     28  C   UNL     1       0.910  -1.970  -0.136  0.00  0.00    +0.010 C 
ATOM     29  C   UNL     1       0.126  -1.549  -1.380  0.00  0.00    -0.036 C 
ATOM     30  C   UNL     1       0.511  -2.450  -2.555  0.00  0.00    +0.010 C 
ATOM     31  C   UNL     1      -1.374  -1.680  -1.106  0.00  0.00    +0.010 C 
ENDBRANCH  27  29
ENDBRANCH  20  27
ENDBRANCH   1  20
TORSDOF 7
