REMARK  Name = ZINC63134384
REMARK  13 active torsions:
REMARK  status: ('A' for Active; 'I' for Inactive)
REMARK    1  A    between atoms: C_1  and  C_2
REMARK    2  A    between atoms: C_7  and  O_16
REMARK    3  A    between atoms: C_13  and  C_15
REMARK    4  A    between atoms: O_16  and  C_17
REMARK    5  A    between atoms: C_17  and  C_19
REMARK    6  A    between atoms: C_19  and  C_21
REMARK    7  A    between atoms: C_19  and  N_31
REMARK    8  A    between atoms: C_21  and  C_22
REMARK    9  A    between atoms: C_32  and  O_34
REMARK   10  A    between atoms: O_34  and  C_35
REMARK   11  A    between atoms: C_35  and  C_36
REMARK   12  A    between atoms: C_35  and  C_37
REMARK   13  A    between atoms: C_35  and  C_38
REMARK                            x       y       z     vdW  Elec       q    Type
REMARK                         _______ _______ _______ _____ _____    ______ ____
ROOT
ATOM      1  C   UNL     1      -7.436  -2.189  -1.326  0.00  0.00    +0.189 C 
ENDROOT
BRANCH   1   2
ATOM      2  N   UNL     1      -8.051  -1.574  -2.505  0.00  0.00    -0.268 N 
ATOM      3  C   UNL     1      -7.585  -1.862  -3.736  0.00  0.00    +0.401 C 
ATOM      4  O   UNL     1      -6.655  -2.633  -3.869  0.00  0.00    -0.226 OA
ATOM      5  H   UNL     1      -8.793  -0.958  -2.399  0.00  0.00    +0.153 HD
BRANCH   3   6
ATOM      6  O   UNL     1      -8.150  -1.297  -4.819  0.00  0.00    -0.445 OA
BRANCH   6   7
ATOM      7  C   UNL     1      -7.606  -1.648  -6.093  0.00  0.00    +0.107 C 
ATOM      8  C   UNL     1      -7.734  -3.158  -6.304  0.00  0.00    +0.055 C 
ATOM      9  C   UNL     1      -8.371  -0.912  -7.195  0.00  0.00    +0.055 C 
ATOM     10  C   UNL     1      -6.130  -1.249  -6.144  0.00  0.00    +0.055 C 
ENDBRANCH   6   7
ENDBRANCH   3   6
ENDBRANCH   1   2
BRANCH   1  11
ATOM     11  C   UNL     1      -5.979  -1.809  -1.263  0.00  0.00    +0.333 C 
ATOM     12  O   UNL     1      -5.413  -1.418  -2.257  0.00  0.00    -0.248 OA
BRANCH  11  13
ATOM     13  O   UNL     1      -5.310  -1.903  -0.103  0.00  0.00    -0.424 OA
BRANCH  13  19
ATOM     14  C   UNL     1       0.638  -0.206  -1.332  0.00  0.00    +0.013 C 
ATOM     15  C   UNL     1       0.007  -0.021   0.049  0.00  0.00    +0.033 C 
ATOM     16  C   UNL     1      -1.426  -0.488   0.012  0.00  0.00    -0.001 A 
ATOM     17  C   UNL     1      -1.679  -1.849   0.104  0.00  0.00    +0.011 A 
ATOM     18  C   UNL     1      -2.973  -2.324   0.068  0.00  0.00    +0.047 A 
ATOM     19  C   UNL     1      -4.033  -1.438  -0.062  0.00  0.00    +0.135 A 
ATOM     20  C   UNL     1      -3.786  -0.078  -0.151  0.00  0.00    +0.093 A 
ATOM     21  C   UNL     1      -2.481   0.399  -0.111  0.00  0.00    +0.139 A 
ATOM     22  O   UNL     1      -2.283   1.744  -0.181  0.00  0.00    -0.425 OA
ATOM     23  C   UNL     1      -1.018   2.179  -0.345  0.00  0.00    +0.316 C 
ATOM     24  O   UNL     1      -0.757   3.100  -1.083  0.00  0.00    -0.250 OA
ATOM     25  C   UNL     1       0.059   1.460   0.438  0.00  0.00    +0.102 C 
ATOM     26  C   UNL     1      -0.201   1.612   1.938  0.00  0.00    +0.020 C 
ENDBRANCH  13  19
ENDBRANCH  11  13
ENDBRANCH   1  11
BRANCH   1  27
ATOM     27  C   UNL     1      -7.561  -3.711  -1.421  0.00  0.00    +0.067 C 
BRANCH  27  28
ATOM     28  C   UNL     1      -9.016  -4.100  -1.361  0.00  0.00    -0.039 C 
ATOM     29  C   UNL     1      -9.840  -4.333  -2.408  0.00  0.00    -0.001 A 
ATOM     30  C   UNL     1      -9.636  -4.295  -3.861  0.00  0.00    +0.010 A 
ATOM     31  C   UNL     1     -10.675  -4.583  -4.677  0.00  0.00    +0.001 A 
ATOM     32  C   UNL     1     -11.940  -4.915  -4.171  0.00  0.00    +0.002 A 
ATOM     33  C   UNL     1     -12.204  -4.971  -2.849  0.00  0.00    +0.026 A 
ATOM     34  C   UNL     1     -11.184  -4.687  -1.899  0.00  0.00    +0.043 A 
ATOM     35  N   UNL     1     -11.191  -4.673  -0.588  0.00  0.00    -0.380 N 
ATOM     36  C   UNL     1      -9.849  -4.314  -0.117  0.00  0.00    +0.144 C 
ATOM     37  H   UNL     1     -11.955  -4.871  -0.024  0.00  0.00    +0.160 HD
ENDBRANCH  27  28
ENDBRANCH   1  27
TORSDOF 8
