REMARK  Name = ZINC07426227
REMARK  4 active torsions:
REMARK  status: ('A' for Active; 'I' for Inactive)
REMARK    1  A    between atoms: C_6  and  C_7
REMARK    2  A    between atoms: C_9  and  C_12
REMARK    3  A    between atoms: C_12  and  S_13
REMARK    4  A    between atoms: S_13  and  C_14
REMARK                            x       y       z     vdW  Elec       q    Type
REMARK                         _______ _______ _______ _____ _____    ______ ____
ROOT
ATOM      1  C   UNL     1      -1.405   2.733  -2.868  0.00  0.00    +0.202 A 
ATOM      2  N   UNL     1      -0.525   2.714  -1.841  0.00  0.00    -0.191 NA
ATOM      3  C   UNL     1      -0.742   1.585  -1.213  0.00  0.00    +0.238 A 
ATOM      4  O   UNL     1      -1.735   0.962  -1.855  0.00  0.00    -0.337 OA
ATOM      5  N   UNL     1      -2.103   1.630  -2.798  0.00  0.00    -0.056 NA
ENDROOT
BRANCH   1  11
ATOM      6  C   UNL     1      -0.739   4.936  -3.826  0.00  0.00    +0.013 A 
ATOM      7  C   UNL     1      -0.877   5.930  -4.774  0.00  0.00    +0.021 A 
ATOM      8  C   UNL     1      -1.833   5.813  -5.769  0.00  0.00    +0.041 A 
ATOM      9  C   UNL     1      -2.649   4.696  -5.823  0.00  0.00    +0.021 A 
ATOM     10  C   UNL     1      -2.514   3.694  -4.884  0.00  0.00    +0.013 A 
ATOM     11  C   UNL     1      -1.554   3.808  -3.880  0.00  0.00    +0.023 A 
ATOM     12 CL   UNL     1      -2.007   7.070  -6.953  0.00  0.00    -0.084 Cl
ENDBRANCH   1  11
BRANCH   3  13
ATOM     13  C   UNL     1      -0.013   1.086   0.008  0.00  0.00    +0.176 C 
BRANCH  13  14
ATOM     14  S   UNL     1      -0.860   1.669   1.497  0.00  0.00    -0.076 S 
BRANCH  14  15
ATOM     15  C   UNL     1       0.174   0.961   2.735  0.00  0.00    +0.192 A 
ATOM     16  N   UNL     1       1.245   0.225   2.535  0.00  0.00    -0.122 NA
ATOM     17  N   UNL     1       1.758  -0.118   3.664  0.00  0.00    -0.134 NA
ATOM     18  C   UNL     1       1.054   0.376   4.639  0.00  0.00    +0.134 A 
ATOM     19  N   UNL     1       0.021   1.074   4.083  0.00  0.00    -0.306 N 
ATOM     20  C   UNL     1      -1.037   1.783   4.802  0.00  0.00    +0.125 C 
ATOM     21  C   UNL     1      -0.504   2.243   6.162  0.00  0.00    +0.022 C 
ATOM     22  C   UNL     1      -0.738   1.151   7.204  0.00  0.00    +0.002 C 
ATOM     23  C   UNL     1       0.013  -0.122   6.826  0.00  0.00    +0.008 C 
ATOM     24  C   UNL     1       1.316   0.235   6.117  0.00  0.00    +0.076 C 
ENDBRANCH  14  15
ENDBRANCH  13  14
ENDBRANCH   3  13
TORSDOF 4
