REMARK  Name = ZINC10129463
REMARK  10 active torsions:
REMARK  status: ('A' for Active; 'I' for Inactive)
REMARK    1  A    between atoms: C_1  and  N_2
REMARK    2  A    between atoms: N_2  and  C_3
REMARK    3  A    between atoms: N_2  and  C_4
REMARK    4  A    between atoms: C_7  and  C_10
REMARK    5  A    between atoms: C_10  and  C_12
REMARK    6  A    between atoms: C_10  and  N_66
REMARK    7  A    between atoms: C_12  and  N_13
REMARK    8  A    between atoms: C_14  and  C_16
REMARK    9  A    between atoms: N_18  and  C_19
REMARK   10  A    between atoms: C_19  and  C_20
REMARK                            x       y       z     vdW  Elec       q    Type
REMARK                         _______ _______ _______ _____ _____    ______ ____
ROOT
ATOM      1  C   UNL     1       1.412  -0.595   0.050  0.00  0.00    -0.020 C 
ENDROOT
BRANCH   1  11
ATOM      2  C   UNL     1       2.214   1.365   1.228  0.00  0.00    -0.073 C 
ATOM      3  C   UNL     1       2.602   1.841   2.628  0.00  0.00    +0.017 C 
ATOM      4  C   UNL     1       3.797   1.067   3.121  0.00  0.00    -0.048 A 
ATOM      5  C   UNL     1       4.516   1.573   4.194  0.00  0.00    +0.004 A 
ATOM      6  C   UNL     1       5.616   0.894   4.679  0.00  0.00    +0.000 A 
ATOM      7  C   UNL     1       6.002  -0.297   4.093  0.00  0.00    +0.000 A 
ATOM      8  C   UNL     1       5.288  -0.801   3.025  0.00  0.00    +0.002 A 
ATOM      9  C   UNL     1       4.184  -0.119   2.535  0.00  0.00    -0.061 A 
ATOM     10  C   UNL     1       3.442  -0.705   1.362  0.00  0.00    -0.042 C 
ATOM     11  N   UNL     1       2.099  -0.107   1.267  0.00  0.00    +0.388 N 
ATOM     12  H   UNL     1       1.552  -0.379   2.092  0.00  0.00    -0.080 HD
ENDBRANCH   1  11
BRANCH   1  16
ATOM     13  C   UNL     1       1.361  -4.869   0.090  0.00  0.00    +0.029 A 
ATOM     14  C   UNL     1       1.579  -4.186  -1.100  0.00  0.00    +0.023 A 
ATOM     15  C   UNL     1       1.595  -2.805  -1.110  0.00  0.00    +0.004 A 
ATOM     16  C   UNL     1       1.394  -2.102   0.064  0.00  0.00    -0.059 A 
ATOM     17  C   UNL     1       1.183  -2.778   1.251  0.00  0.00    +0.004 A 
ATOM     18  C   UNL     1       1.160  -4.159   1.267  0.00  0.00    +0.023 A 
BRANCH  13  20
ATOM     19  C   UNL     1       1.558  -7.012  -1.139  0.00  0.00    +0.129 C 
ATOM     20  N   UNL     1       1.345  -6.265   0.103  0.00  0.00    -0.336 N 
ATOM     21  C   UNL     1       1.115  -6.984   1.359  0.00  0.00    +0.129 C 
ENDBRANCH  13  20
ENDBRANCH   1  16
BRANCH   1  22
ATOM     22  C   UNL     1      -0.024  -0.068   0.044  0.00  0.00    +0.094 C 
BRANCH  22  23
ATOM     23  N   UNL     1      -0.690  -0.481  -1.194  0.00  0.00    -0.309 N 
ATOM     24  C   UNL     1      -2.000  -0.221  -1.373  0.00  0.00    +0.299 C 
ATOM     25  O   UNL     1      -2.628   0.356  -0.509  0.00  0.00    -0.265 OA
ATOM     26  H   UNL     1      -0.190  -0.946  -1.883  0.00  0.00    +0.149 HD
BRANCH  24  27
ATOM     27  C   UNL     1      -2.680  -0.642  -2.636  0.00  0.00    +0.299 C 
ATOM     28  O   UNL     1      -2.053  -1.219  -3.499  0.00  0.00    -0.265 OA
ATOM     29  N   UNL     1      -3.990  -0.381  -2.815  0.00  0.00    -0.303 N 
ATOM     30  H   UNL     1      -4.492   0.080  -2.125  0.00  0.00    +0.149 HD
BRANCH  29  31
ATOM     31  C   UNL     1      -4.657  -0.794  -4.053  0.00  0.00    +0.140 C 
BRANCH  31  32
ATOM     32  C   UNL     1      -6.107  -0.387  -4.002  0.00  0.00    -0.030 A 
ATOM     33  C   UNL     1      -7.050  -1.255  -3.484  0.00  0.00    +0.006 A 
ATOM     34  C   UNL     1      -8.380  -0.880  -3.432  0.00  0.00    +0.020 A 
ATOM     35  C   UNL     1      -8.768   0.359  -3.910  0.00  0.00    +0.041 A 
ATOM     36  C   UNL     1      -7.824   1.225  -4.434  0.00  0.00    +0.020 A 
ATOM     37  C   UNL     1      -6.494   0.851  -4.479  0.00  0.00    +0.006 A 
ATOM     38 CL   UNL     1     -10.438   0.828  -3.851  0.00  0.00    -0.084 Cl
ENDBRANCH  31  32
ENDBRANCH  29  31
ENDBRANCH  24  27
ENDBRANCH  22  23
ENDBRANCH   1  22
TORSDOF 8
