REMARK  Name = ZINC14667138
REMARK  10 active torsions:
REMARK  status: ('A' for Active; 'I' for Inactive)
REMARK    1  A    between atoms: C_1  and  C_2
REMARK    2  A    between atoms: C_2  and  C_3
REMARK    3  A    between atoms: C_2  and  C_4
REMARK    4  A    between atoms: C_4  and  O_5
REMARK    5  A    between atoms: O_5  and  C_6
REMARK    6  A    between atoms: C_11  and  C_12
REMARK    7  A    between atoms: N_14  and  C_15
REMARK    8  A    between atoms: C_15  and  N_17
REMARK    9  A    between atoms: N_17  and  C_18
REMARK   10  A    between atoms: C_23  and  O_24
REMARK                            x       y       z     vdW  Elec       q    Type
REMARK                         _______ _______ _______ _____ _____    ______ ____
ROOT
ATOM      1  C   UNL     1       1.088  -0.703   0.467  0.00  0.00    +0.253 C 
ATOM      2  O   UNL     1       2.117  -0.100   0.699  0.00  0.00    -0.270 OA
ATOM      3  N   UNL     1      -0.053  -0.025   0.234  0.00  0.00    -0.263 N 
ATOM      4  H   UNL     1      -0.875  -0.506   0.049  0.00  0.00    +0.157 HD
ENDROOT
BRANCH   1  10
ATOM      5  C   UNL     1       2.271  -2.887   0.683  0.00  0.00    +0.133 A 
ATOM      6  C   UNL     1       2.260  -4.274   0.656  0.00  0.00    +0.047 A 
ATOM      7  C   UNL     1       1.086  -4.951   0.393  0.00  0.00    +0.019 A 
ATOM      8  C   UNL     1      -0.088  -4.254   0.153  0.00  0.00    +0.019 A 
ATOM      9  C   UNL     1      -0.095  -2.875   0.181  0.00  0.00    +0.032 A 
ATOM     10  C   UNL     1       1.087  -2.178   0.441  0.00  0.00    +0.080 A 
ATOM     11 BR   UNL     1      -1.687  -5.197  -0.207  0.00  0.00    -0.050 Br
BRANCH   5  12
ATOM     12  O   UNL     1       3.424  -2.221   0.942  0.00  0.00    -0.491 OA
BRANCH  12  13
ATOM     13  C   UNL     1       4.591  -3.011   1.179  0.00  0.00    +0.232 C 
BRANCH  13  15
ATOM     14  C   UNL     1       5.546  -1.319   2.751  0.00  0.00    +0.010 C 
ATOM     15  C   UNL     1       5.783  -2.091   1.451  0.00  0.00    +0.020 C 
ATOM     16  C   UNL     1       7.056  -2.930   1.581  0.00  0.00    +0.010 C 
ENDBRANCH  13  15
ENDBRANCH  12  13
ENDBRANCH   5  12
ENDBRANCH   1  10
BRANCH   3  17
ATOM     17  C   UNL     1      -0.053   1.323   0.257  0.00  0.00    +0.141 C 
ATOM     18  S   UNL     1       1.397   2.173   0.584  0.00  0.00    -0.018 S 
BRANCH  17  19
ATOM     19  N   UNL     1      -1.192   2.002   0.019  0.00  0.00    -0.294 N 
ATOM     20  H   UNL     1      -1.998   1.523  -0.232  0.00  0.00    +0.154 HD
BRANCH  19  21
ATOM     21  C   UNL     1      -1.213   3.398   0.132  0.00  0.00    +0.075 A 
ATOM     22  C   UNL     1      -0.215   4.158  -0.459  0.00  0.00    +0.027 A 
ATOM     23  C   UNL     1      -0.241   5.536  -0.351  0.00  0.00    +0.002 A 
ATOM     24  C   UNL     1      -1.254   6.158   0.356  0.00  0.00    +0.004 A 
ATOM     25  C   UNL     1      -2.248   5.407   0.952  0.00  0.00    +0.047 A 
ATOM     26  C   UNL     1      -2.233   4.026   0.844  0.00  0.00    +0.138 A 
BRANCH  26  27
ATOM     27  O   UNL     1      -3.211   3.285   1.430  0.00  0.00    -0.505 OA
ATOM     28  H   UNL     1      -3.011   3.018   2.338  0.00  0.00    +0.292 HD
ENDBRANCH  26  27
ENDBRANCH  19  21
ENDBRANCH  17  19
ENDBRANCH   3  17
TORSDOF 8
