REMARK  Name = ZINC49117862
REMARK  6 active torsions:
REMARK  status: ('A' for Active; 'I' for Inactive)
REMARK    1  A    between atoms: C_1  and  C_2
REMARK    2  A    between atoms: C_2  and  C_3
REMARK    3  A    between atoms: C_9  and  N_11
REMARK    4  A    between atoms: N_11  and  S_12
REMARK    5  A    between atoms: S_12  and  C_15
REMARK    6  A    between atoms: C_18  and  N_22
REMARK                            x       y       z     vdW  Elec       q    Type
REMARK                         _______ _______ _______ _____ _____    ______ ____
ROOT
ATOM      1  S   UNL     1      -0.718  -4.006   0.225  0.00  0.00    +0.061 S 
ATOM      2  O   UNL     1      -2.086  -4.353   0.396  0.00  0.00    -0.153 OA
ATOM      3  O   UNL     1      -0.146  -3.769  -1.054  0.00  0.00    -0.153 OA
ENDROOT
BRANCH   1   4
ATOM      4  C   UNL     1       0.225  -5.296   0.967  0.00  0.00    +0.142 A 
ATOM      5  C   UNL     1       1.530  -5.517   0.565  0.00  0.00    +0.070 A 
ATOM      6  C   UNL     1       2.272  -6.528   1.145  0.00  0.00    +0.044 A 
ATOM      7  C   UNL     1       1.707  -7.322   2.135  0.00  0.00    +0.027 A 
ATOM      8  C   UNL     1       0.397  -7.098   2.537  0.00  0.00    +0.044 A 
ATOM      9  C   UNL     1      -0.339  -6.083   1.956  0.00  0.00    +0.070 A 
ATOM     10 CL   UNL     1      -1.975  -5.797   2.464  0.00  0.00    -0.081 Cl
ATOM     11 CL   UNL     1       2.236  -4.524  -0.672  0.00  0.00    -0.081 Cl
BRANCH   7  12
ATOM     12  N   UNL     1       2.454  -8.345   2.723  0.00  0.00    -0.358 N 
ATOM     13  H   UNL     1       3.369  -8.501   2.441  0.00  0.00    +0.142 HD
ATOM     14  H   UNL     1       2.059  -8.899   3.413  0.00  0.00    +0.142 HD
ENDBRANCH   7  12
ENDBRANCH   1   4
BRANCH   1  15
ATOM     15  N   UNL     1      -0.463  -2.636   1.119  0.00  0.00    -0.187 NA
ATOM     16  H   UNL     1      -1.196  -2.232   1.608  0.00  0.00    +0.148 HD
BRANCH  15  22
ATOM     17  C   UNL     1       0.742  -0.511   1.242  0.00  0.00    +0.007 C 
ATOM     18  C   UNL     1      -0.042  -0.124   2.497  0.00  0.00    +0.005 C 
ATOM     19  C   UNL     1       0.698  -0.630   3.737  0.00  0.00    +0.000 C 
ATOM     20  C   UNL     1       0.828  -2.153   3.666  0.00  0.00    +0.002 C 
ATOM     21  C   UNL     1       1.612  -2.541   2.410  0.00  0.00    +0.020 C 
ATOM     22  C   UNL     1       0.872  -2.034   1.171  0.00  0.00    +0.080 C 
BRANCH  17  24
ATOM     23  C   UNL     1      -0.019   1.526   0.010  0.00  0.00    +0.004 C 
ATOM     24  C   UNL     1       0.002  -0.004   0.002  0.00  0.00    +0.002 C 
ENDBRANCH  17  24
ENDBRANCH  15  22
ENDBRANCH   1  15
TORSDOF 5
