REMARK  Name = ZINC10999279
REMARK  12 active torsions:
REMARK  status: ('A' for Active; 'I' for Inactive)
REMARK    1  A    between atoms: C_1  and  C_2
REMARK    2  A    between atoms: C_2  and  C_3
REMARK    3  A    between atoms: C_2  and  C_4
REMARK    4  A    between atoms: C_4  and  N_5
REMARK    5  A    between atoms: C_6  and  N_34
REMARK    6  A    between atoms: C_7  and  C_14
REMARK    7  A    between atoms: C_14  and  C_16
REMARK    8  A    between atoms: C_16  and  S_17
REMARK    9  A    between atoms: S_17  and  C_18
REMARK   10  A    between atoms: N_22  and  C_23
REMARK   11  A    between atoms: C_26  and  O_29
REMARK   12  A    between atoms: O_29  and  C_30
REMARK                            x       y       z     vdW  Elec       q    Type
REMARK                         _______ _______ _______ _____ _____    ______ ____
ROOT
ATOM      1  C   UNL     1       5.485  -1.683  -0.064  0.00  0.00    +0.182 C 
ATOM      2  O   UNL     1       6.316  -0.796  -0.053  0.00  0.00    -0.291 OA
ENDROOT
BRANCH   1   5
ATOM      3  N   UNL     1       7.600  -4.699  -0.192  0.00  0.00    -0.281 N 
ATOM      4  C   UNL     1       7.252  -3.379  -0.193  0.00  0.00    +0.116 A 
ATOM      5  C   UNL     1       5.895  -3.033  -0.074  0.00  0.00    +0.120 A 
ATOM      6  C   UNL     1       4.916  -4.123   0.034  0.00  0.00    +0.266 A 
ATOM      7  O   UNL     1       3.727  -3.883   0.135  0.00  0.00    -0.267 OA
ATOM      8  N   UNL     1       5.362  -5.396   0.019  0.00  0.00    -0.274 N 
ATOM      9  H   UNL     1       4.708  -6.149   0.092  0.00  0.00    +0.173 HD
ATOM     10  C   UNL     1       6.673  -5.665  -0.091  0.00  0.00    +0.331 A 
ATOM     11  O   UNL     1       7.034  -6.826  -0.100  0.00  0.00    -0.246 OA
BRANCH   4  12
ATOM     12  N   UNL     1       8.204  -2.413  -0.301  0.00  0.00    -0.344 N 
ATOM     13  H   UNL     1       7.958  -1.478  -0.224  0.00  0.00    +0.144 HD
ATOM     14  H   UNL     1       9.130  -2.659  -0.457  0.00  0.00    +0.144 HD
ENDBRANCH   4  12
BRANCH   3  15
ATOM     15  C   UNL     1       9.013  -5.070  -0.309  0.00  0.00    +0.131 C 
BRANCH  15  17
ATOM     16  C   UNL     1       9.254  -3.873  -2.489  0.00  0.00    +0.009 C 
ATOM     17  C   UNL     1       9.377  -5.227  -1.787  0.00  0.00    +0.003 C 
ATOM     18  C   UNL     1      10.816  -5.734  -1.906  0.00  0.00    +0.009 C 
ENDBRANCH  15  17
ENDBRANCH   3  15
ENDBRANCH   1   5
BRANCH   1  19
ATOM     19  C   UNL     1       4.018  -1.341  -0.066  0.00  0.00    +0.157 C 
BRANCH  19  20
ATOM     20  S   UNL     1       3.817   0.458  -0.051  0.00  0.00    -0.076 S 
BRANCH  20  21
ATOM     21  C   UNL     1       2.059   0.571  -0.056  0.00  0.00    +0.214 A 
ATOM     22  N   UNL     1       1.211  -0.435  -0.068  0.00  0.00    -0.101 NA
ATOM     23  N   UNL     1       0.002  -0.004  -0.069  0.00  0.00    -0.022 NA
ATOM     24  N   UNL     1      -0.016   1.285  -0.058  0.00  0.00    -0.038 NA
ATOM     25  N   UNL     1       1.324   1.710  -0.050  0.00  0.00    -0.187 N 
BRANCH  25  26
ATOM     26  C   UNL     1       1.798   3.031  -0.036  0.00  0.00    +0.070 A 
ATOM     27  C   UNL     1       2.954   3.346   0.664  0.00  0.00    +0.031 A 
ATOM     28  C   UNL     1       3.424   4.645   0.673  0.00  0.00    +0.048 A 
ATOM     29  C   UNL     1       2.735   5.636  -0.011  0.00  0.00    +0.130 A 
ATOM     30  C   UNL     1       1.577   5.322  -0.707  0.00  0.00    +0.048 A 
ATOM     31  C   UNL     1       1.109   4.023  -0.720  0.00  0.00    +0.031 A 
BRANCH  29  32
ATOM     32  O   UNL     1       3.195   6.915   0.002  0.00  0.00    -0.406 OA
BRANCH  32  33
ATOM     33  C   UNL     1       4.393   7.167   0.738  0.00  0.00    +0.575 C 
ATOM     34  F   UNL     1       5.436   6.398   0.210  0.00  0.00    -0.133 F 
ATOM     35  F   UNL     1       4.721   8.524   0.646  0.00  0.00    -0.133 F 
ATOM     36  F   UNL     1       4.196   6.825   2.080  0.00  0.00    -0.133 F 
ENDBRANCH  32  33
ENDBRANCH  29  32
ENDBRANCH  25  26
ENDBRANCH  20  21
ENDBRANCH  19  20
ENDBRANCH   1  19
TORSDOF 10
