REMARK  Name = ZINC36509236
REMARK  16 active torsions:
REMARK  status: ('A' for Active; 'I' for Inactive)
REMARK    1  A    between atoms: C_1  and  C_2
REMARK    2  A    between atoms: C_2  and  C_3
REMARK    3  A    between atoms: C_3  and  C_4
REMARK    4  A    between atoms: C_4  and  C_5
REMARK    5  A    between atoms: C_5  and  C_6
REMARK    6  A    between atoms: C_6  and  N_7
REMARK    7  A    between atoms: N_7  and  C_8
REMARK    8  A    between atoms: C_8  and  C_10
REMARK    9  A    between atoms: C_8  and  C_15
REMARK   10  A    between atoms: N_17  and  C_18
REMARK   11  A    between atoms: C_18  and  S_19
REMARK   12  A    between atoms: S_19  and  C_22
REMARK   13  A    between atoms: C_25  and  C_28
REMARK   14  A    between atoms: C_29  and  C_31
REMARK   15  A    between atoms: C_31  and  C_32
REMARK   16  A    between atoms: C_37  and  C_38
REMARK                            x       y       z     vdW  Elec       q    Type
REMARK                         _______ _______ _______ _____ _____    ______ ____
ROOT
ATOM      1  C   UNL     1       1.690  -4.925   4.850  0.00  0.00    +0.228 C 
ENDROOT
BRANCH   1   2
ATOM      2  C   UNL     1       2.386  -3.961   5.775  0.00  0.00    +0.134 A 
ATOM      3  C   UNL     1       1.836  -3.363   6.848  0.00  0.00    +0.047 A 
ATOM      4  C   UNL     1       2.839  -2.547   7.420  0.00  0.00    +0.041 A 
ATOM      5  C   UNL     1       3.941  -2.694   6.664  0.00  0.00    +0.195 A 
ATOM      6  O   UNL     1       3.663  -3.556   5.672  0.00  0.00    -0.465 OA
ENDBRANCH   1   2
BRANCH   1   7
ATOM      7  C   UNL     1       2.068  -6.337   5.218  0.00  0.00    +0.242 C 
ATOM      8  O   UNL     1       2.728  -7.007   4.453  0.00  0.00    -0.273 OA
ATOM      9  N   UNL     1       1.673  -6.854   6.398  0.00  0.00    -0.294 N 
ATOM     10  H   UNL     1       1.145  -6.318   7.011  0.00  0.00    +0.150 HD
BRANCH   9  11
ATOM     11  C   UNL     1       2.042  -8.226   6.756  0.00  0.00    +0.278 C 
BRANCH  11  12
ATOM     12  S   UNL     1       3.550  -8.204   7.764  0.00  0.00    +0.013 S 
ATOM     13  O   UNL     1       3.885  -9.524   8.172  0.00  0.00    -0.168 OA
ATOM     14  O   UNL     1       4.525  -7.361   7.166  0.00  0.00    -0.168 OA
BRANCH  12  15
ATOM     15  C   UNL     1       3.090  -7.377   9.250  0.00  0.00    +0.090 A 
ATOM     16  C   UNL     1       3.215  -6.003   9.343  0.00  0.00    +0.027 A 
ATOM     17  C   UNL     1       2.854  -5.354  10.509  0.00  0.00    +0.005 A 
ATOM     18  C   UNL     1       2.368  -6.078  11.581  0.00  0.00    -0.050 A 
ATOM     19  C   UNL     1       2.243  -7.452  11.488  0.00  0.00    +0.005 A 
ATOM     20  C   UNL     1       2.599  -8.101  10.320  0.00  0.00    +0.027 A 
ATOM     21  C   UNL     1       1.976  -5.370  12.852  0.00  0.00    +0.044 C 
ENDBRANCH  12  15
ENDBRANCH  11  12
ENDBRANCH   9  11
ENDBRANCH   1   7
BRANCH   1  22
ATOM     22  N   UNL     1       2.095  -4.655   3.468  0.00  0.00    -0.283 N 
ATOM     23  C   UNL     1       3.387  -4.786   3.107  0.00  0.00    +0.221 C 
ATOM     24  O   UNL     1       4.214  -5.126   3.926  0.00  0.00    -0.275 OA
BRANCH  22  25
ATOM     25  C   UNL     1       1.096  -4.244   2.479  0.00  0.00    +0.109 C 
BRANCH  25  26
ATOM     26  C   UNL     1       0.968  -2.719   2.486  0.00  0.00    +0.019 C 
BRANCH  26  27
ATOM     27  C   UNL     1       0.014  -2.282   1.373  0.00  0.00    +0.002 C 
BRANCH  27  28
ATOM     28  C   UNL     1      -0.113  -0.757   1.381  0.00  0.00    -0.000 C 
BRANCH  28  30
ATOM     29  C   UNL     1      -1.195   1.205   0.275  0.00  0.00    +0.004 C 
ATOM     30  C   UNL     1      -1.067  -0.320   0.268  0.00  0.00    -0.003 C 
ENDBRANCH  28  30
ENDBRANCH  27  28
ENDBRANCH  26  27
ENDBRANCH  25  26
ENDBRANCH  22  25
BRANCH  23  31
ATOM     31  C   UNL     1       3.804  -4.508   1.686  0.00  0.00    +0.131 C 
BRANCH  31  32
ATOM     32  C   UNL     1       5.288  -4.726   1.546  0.00  0.00    -0.036 A 
ATOM     33  C   UNL     1       6.157  -3.657   1.667  0.00  0.00    +0.004 A 
ATOM     34  C   UNL     1       7.519  -3.857   1.539  0.00  0.00    +0.000 A 
ATOM     35  C   UNL     1       8.012  -5.124   1.290  0.00  0.00    +0.000 A 
ATOM     36  C   UNL     1       7.143  -6.192   1.171  0.00  0.00    +0.003 A 
ATOM     37  C   UNL     1       5.781  -5.994   1.303  0.00  0.00    -0.047 A 
ATOM     38  C   UNL     1       4.834  -7.159   1.178  0.00  0.00    +0.044 C 
ENDBRANCH  31  32
ENDBRANCH  23  31
ENDBRANCH   1  22
TORSDOF 13
