REMARK  Name = ZINC39696277
REMARK  12 active torsions:
REMARK  status: ('A' for Active; 'I' for Inactive)
REMARK    1  A    between atoms: C_1  and  C_2
REMARK    2  A    between atoms: C_2  and  C_3
REMARK    3  A    between atoms: C_6  and  C_9
REMARK    4  A    between atoms: C_9  and  C_11
REMARK    5  A    between atoms: C_9  and  N_12
REMARK    6  A    between atoms: C_13  and  C_15
REMARK    7  A    between atoms: C_26  and  C_28
REMARK    8  A    between atoms: C_28  and  C_30
REMARK    9  A    between atoms: C_28  and  O_33
REMARK   10  A    between atoms: C_30  and  C_31
REMARK   11  A    between atoms: C_30  and  C_32
REMARK   12  A    between atoms: O_33  and  C_34
REMARK                            x       y       z     vdW  Elec       q    Type
REMARK                         _______ _______ _______ _____ _____    ______ ____
ROOT
ATOM      1  C   UNL     1      -9.088  -0.414  -1.757  0.00  0.00    +0.100 C 
ATOM      2  C   UNL     1      -8.586  -1.082  -3.057  0.00  0.00    +0.121 C 
ATOM      3  N   UNL     1      -9.598  -2.123  -3.357  0.00  0.00    -0.297 N 
ATOM      4  C   UNL     1     -10.893  -1.487  -3.016  0.00  0.00    +0.115 C 
ATOM      5  C   UNL     1     -10.603  -0.678  -1.736  0.00  0.00    -0.004 C 
ATOM      6  C   UNL     1     -11.370   0.640  -1.759  0.00  0.00    -0.010 C 
ATOM      7  C   UNL     1     -12.872   0.353  -1.678  0.00  0.00    -0.082 C 
ATOM      8  N   UNL     1     -13.165  -0.385  -0.444  0.00  0.00    +0.379 N 
ATOM      9  C   UNL     1     -12.498  -1.692  -0.472  0.00  0.00    -0.082 C 
ATOM     10  C   UNL     1     -10.980  -1.492  -0.502  0.00  0.00    -0.010 C 
ATOM     11  C   UNL     1      -9.388  -3.366  -3.833  0.00  0.00    +0.257 C 
ATOM     12  O   UNL     1      -8.256  -3.775  -3.982  0.00  0.00    -0.272 OA
ATOM     13  H   UNL     1     -12.834   0.143   0.349  0.00  0.00    -0.086 HD
ATOM     14  H   UNL     1     -14.162  -0.520  -0.363  0.00  0.00    -0.086 HD
ENDROOT
BRANCH   1  16
ATOM     15  N   UNL     1      -8.231  -0.314   0.561  0.00  0.00    -0.308 N 
ATOM     16  C   UNL     1      -8.429  -1.041  -0.556  0.00  0.00    +0.219 C 
ATOM     17  O   UNL     1      -8.076  -2.201  -0.595  0.00  0.00    -0.275 OA
ATOM     18  H   UNL     1      -8.514   0.613   0.593  0.00  0.00    +0.149 HD
BRANCH  15  19
ATOM     19  C   UNL     1      -7.591  -0.924   1.729  0.00  0.00    +0.100 C 
ATOM     20  C   UNL     1      -6.071  -0.838   1.580  0.00  0.00    +0.033 C 
BRANCH  19  24
ATOM     21  C   UNL     1      -8.794   1.151   5.263  0.00  0.00    -0.048 A 
ATOM     22  C   UNL     1      -8.681  -0.226   5.275  0.00  0.00    +0.004 A 
ATOM     23  C   UNL     1      -8.292  -0.898   4.132  0.00  0.00    +0.006 A 
ATOM     24  C   UNL     1      -8.016  -0.192   2.975  0.00  0.00    -0.027 A 
ATOM     25  C   UNL     1      -8.130   1.185   2.963  0.00  0.00    +0.006 A 
ATOM     26  C   UNL     1      -8.524   1.857   4.105  0.00  0.00    +0.004 A 
BRANCH  21  28
ATOM     27  C   UNL     1     -10.744   2.009   6.534  0.00  0.00    +0.009 C 
ATOM     28  C   UNL     1      -9.219   1.884   6.510  0.00  0.00    +0.032 C 
ENDBRANCH  21  28
ENDBRANCH  19  24
ENDBRANCH  15  19
ENDBRANCH   1  16
BRANCH  11  29
ATOM     29  C   UNL     1     -10.560  -4.247  -4.181  0.00  0.00    +0.261 C 
BRANCH  29  30
ATOM     30  C   UNL     1     -11.324  -3.639  -5.358  0.00  0.00    +0.033 C 
ATOM     31  C   UNL     1     -10.425  -3.623  -6.596  0.00  0.00    +0.011 C 
ATOM     32  C   UNL     1     -12.572  -4.477  -5.644  0.00  0.00    +0.011 C 
ENDBRANCH  29  30
BRANCH  29  33
ATOM     33  O   UNL     1     -10.088  -5.547  -4.540  0.00  0.00    -0.479 OA
BRANCH  33  34
ATOM     34  C   UNL     1     -10.854  -6.606  -4.170  0.00  0.00    +0.122 A 
ATOM     35  C   UNL     1     -10.450  -7.898  -4.477  0.00  0.00    +0.045 A 
ATOM     36  C   UNL     1     -11.231  -8.973  -4.098  0.00  0.00    +0.004 A 
ATOM     37  C   UNL     1     -12.414  -8.762  -3.414  0.00  0.00    +0.000 A 
ATOM     38  C   UNL     1     -12.819  -7.476  -3.107  0.00  0.00    +0.004 A 
ATOM     39  C   UNL     1     -12.039  -6.399  -3.478  0.00  0.00    +0.045 A 
ENDBRANCH  33  34
ENDBRANCH  29  33
ENDBRANCH  11  29
TORSDOF 8
