REMARK  Name = ZINC44594709
REMARK  13 active torsions:
REMARK  status: ('A' for Active; 'I' for Inactive)
REMARK    1  A    between atoms: CD1_1  and  CG1_2
REMARK    2  A    between atoms: CG1_2  and  CB_3
REMARK    3  A    between atoms: CB_3  and  CG2_5
REMARK    4  A    between atoms: CB_3  and  CA_6
REMARK    5  A    between atoms: CA_6  and  C_8
REMARK    6  A    between atoms: CA_6  and  N_18
REMARK    7  A    between atoms: N_10  and  CA_11
REMARK    8  A    between atoms: CA_11  and  C_13
REMARK    9  A    between atoms: CA_11  and  CB_15
REMARK   10  A    between atoms: C_13  and  O_14
REMARK   11  A    between atoms: CB_15  and  CG1_16
REMARK   12  A    between atoms: CB_15  and  CG2_17
REMARK   13  A    between atoms: C_19  and  CA_21
REMARK                            x       y       z     vdW  Elec       q    Type
REMARK                         _______ _______ _______ _____ _____    ______ ____
ROOT
ATOM      1  N   UNL     1      -3.349  -0.994   1.929  0.00  0.00    -0.299 N 
ATOM      2  C   UNL     1      -3.231  -2.261   2.373  0.00  0.00    +0.263 C 
ATOM      3  O   UNL     1      -2.143  -2.802   2.386  0.00  0.00    -0.269 OA
ATOM      4  H   UNL     1      -4.217  -0.563   1.919  0.00  0.00    +0.150 HD
ENDROOT
BRANCH   2   5
ATOM      5  CA  UNL     1      -4.426  -2.994   2.844  0.00  0.00    +0.126 A 
ATOM      6  C   UNL     1      -4.295  -4.301   3.305  0.00  0.00    +0.043 A 
ATOM      7  C   UNL     1      -5.433  -4.971   3.744  0.00  0.00    +0.011 A 
ATOM      8  C   UNL     1      -5.696  -6.314   4.285  0.00  0.00    +0.008 A 
ATOM      9  C   UNL     1      -4.889  -7.415   4.559  0.00  0.00    +0.010 A 
ATOM     10  C   UNL     1      -5.448  -8.563   5.078  0.00  0.00    +0.001 A 
ATOM     11  C   UNL     1      -6.811  -8.624   5.328  0.00  0.00    +0.002 A 
ATOM     12  C   UNL     1      -7.621  -7.542   5.062  0.00  0.00    +0.026 A 
ATOM     13  C   UNL     1      -7.075  -6.374   4.538  0.00  0.00    +0.048 A 
ATOM     14  N   UNL     1      -7.638  -5.161   4.183  0.00  0.00    -0.353 N 
ATOM     15  H   UNL     1      -8.581  -4.945   4.260  0.00  0.00    +0.166 HD
ATOM     16  C   UNL     1      -6.672  -4.305   3.704  0.00  0.00    +0.066 A 
ATOM     17  C   UNL     1      -6.711  -2.995   3.226  0.00  0.00    +0.137 A 
ATOM     18  N   UNL     1      -5.614  -2.395   2.826  0.00  0.00    -0.248 NA
ENDBRANCH   2   5
BRANCH   1  19
ATOM     19  CA  UNL     1      -2.165  -0.269   1.462  0.00  0.00    +0.162 C 
BRANCH  19  20
ATOM     20  C   UNL     1      -2.395   1.214   1.607  0.00  0.00    +0.234 C 
ATOM     21  O   UNL     1      -3.525   1.647   1.684  0.00  0.00    -0.274 OA
ATOM     22  N   UNL     1      -1.345   2.058   1.650  0.00  0.00    -0.308 N 
ATOM     23  H   UNL     1      -0.446   1.721   1.509  0.00  0.00    +0.149 HD
BRANCH  22  24
ATOM     24  CA  UNL     1      -1.561   3.483   1.909  0.00  0.00    +0.101 C 
BRANCH  24  25
ATOM     25  CB  UNL     1      -0.293   4.090   2.513  0.00  0.00    +0.005 C 
ATOM     26  CG1 UNL     1      -0.519   5.579   2.784  0.00  0.00    +0.009 C 
ATOM     27  CG2 UNL     1       0.038   3.377   3.825  0.00  0.00    +0.009 C 
ENDBRANCH  24  25
BRANCH  24  28
ATOM     28  C   UNL     1      -1.893   4.196   0.596  0.00  0.00    +0.178 C 
BRANCH  28  29
ATOM     29  O   UNL     1      -0.762   4.138  -0.276  0.00  0.00    -0.393 OA
ATOM     30  H   UNL     1      -0.901   4.571  -1.129  0.00  0.00    +0.209 HD
ENDBRANCH  28  29
ENDBRANCH  24  28
ENDBRANCH  22  24
ENDBRANCH  19  20
BRANCH  19  31
ATOM     31  CB  UNL     1      -1.907  -0.604  -0.008  0.00  0.00    +0.015 C 
ATOM     32  CG2 UNL     1      -3.178  -0.345  -0.820  0.00  0.00    +0.010 C 
BRANCH  31  34
ATOM     33  CD1 UNL     1      -0.168  -2.306   0.557  0.00  0.00    +0.004 C 
ATOM     34  CG1 UNL     1      -1.513  -2.077  -0.134  0.00  0.00    +0.002 C 
ENDBRANCH  31  34
ENDBRANCH  19  31
ENDBRANCH   1  19
TORSDOF 9
