REMARK  Name = ZINC24211640
REMARK  16 active torsions:
REMARK  status: ('A' for Active; 'I' for Inactive)
REMARK    1  A    between atoms: C_1  and  C_2
REMARK    2  A    between atoms: C_2  and  C_28
REMARK    3  A    between atoms: N_5  and  N_9
REMARK    4  A    between atoms: C_10  and  C_12
REMARK    5  A    between atoms: C_12  and  N_13
REMARK    6  A    between atoms: N_13  and  C_14
REMARK    7  A    between atoms: N_13  and  C_15
REMARK    8  A    between atoms: C_15  and  C_16
REMARK    9  A    between atoms: C_19  and  O_26
REMARK   10  A    between atoms: C_20  and  O_24
REMARK   11  A    between atoms: C_21  and  O_22
REMARK   12  A    between atoms: O_22  and  C_23
REMARK   13  A    between atoms: O_24  and  C_25
REMARK   14  A    between atoms: O_26  and  C_27
REMARK   15  A    between atoms: C_28  and  C_29
REMARK   16  A    between atoms: C_29  and  C_30
REMARK                            x       y       z     vdW  Elec       q    Type
REMARK                         _______ _______ _______ _____ _____    ______ ____
ROOT
ATOM      1  N   UNL     1      -6.296   5.415   2.483  0.00  0.00    -0.225 N 
ATOM      2  C   UNL     1      -5.034   4.965   2.333  0.00  0.00    +0.213 C 
ATOM      3  O   UNL     1      -4.411   4.575   3.297  0.00  0.00    -0.276 OA
ATOM      4  H   UNL     1      -6.861   5.770   1.609  0.00  0.00    +0.173 HD
ENDROOT
BRANCH   1   9
ATOM      5  C   UNL     1      -9.118   6.730   5.920  0.00  0.00    +0.041 C 
ATOM      6  C   UNL     1      -7.738   6.087   5.769  0.00  0.00    +0.112 C 
ATOM      7  C   UNL     1      -7.073   6.547   4.487  0.00  0.00    +0.263 C 
ATOM      8  O   UNL     1      -6.771   7.681   4.185  0.00  0.00    -0.271 OA
ATOM      9  N   UNL     1      -6.887   5.432   3.753  0.00  0.00    -0.137 N 
ATOM     10  C   UNL     1      -7.341   4.344   4.385  0.00  0.00    +0.326 C 
ATOM     11  O   UNL     1      -7.288   3.222   3.921  0.00  0.00    -0.251 OA
ATOM     12  N   UNL     1      -7.860   4.630   5.593  0.00  0.00    -0.284 N 
ATOM     13  H   UNL     1      -8.314   4.016   6.385  0.00  0.00    +0.151 HD
BRANCH   6  14
ATOM     14  C   UNL     1      -6.859   6.414   6.979  0.00  0.00    +0.040 C 
BRANCH  14  15
ATOM     15  C   UNL     1      -7.493   5.831   8.243  0.00  0.00    +0.038 C 
BRANCH  15  16
ATOM     16  C   UNL     1      -6.627   6.152   9.434  0.00  0.00    -0.047 A 
ATOM     17  C   UNL     1      -5.627   5.279   9.817  0.00  0.00    +0.003 A 
ATOM     18  C   UNL     1      -4.830   5.577  10.906  0.00  0.00    +0.000 A 
ATOM     19  C   UNL     1      -5.039   6.743  11.618  0.00  0.00    +0.000 A 
ATOM     20  C   UNL     1      -6.043   7.614  11.238  0.00  0.00    +0.000 A 
ATOM     21  C   UNL     1      -6.837   7.319  10.146  0.00  0.00    +0.003 A 
ENDBRANCH  15  16
ENDBRANCH  14  15
ENDBRANCH   6  14
ENDBRANCH   1   9
BRANCH   2  22
ATOM     22  C   UNL     1      -4.398   4.947   0.967  0.00  0.00    +0.020 C 
BRANCH  22  23
ATOM     23  N   UNL     1      -3.032   4.417   1.069  0.00  0.00    +0.386 N 
ATOM     24  C   UNL     1      -2.173   5.322   1.843  0.00  0.00    -0.095 C 
ATOM     25  H   UNL     1      -3.082   3.457   1.605  0.00  0.00    -0.081 HD
BRANCH  23  26
ATOM     26  C   UNL     1      -2.465   4.161  -0.262  0.00  0.00    -0.039 C 
BRANCH  26  27
ATOM     27  C   UNL     1      -1.175   3.397  -0.120  0.00  0.00    -0.018 A 
ATOM     28  C   UNL     1       0.035   4.061  -0.202  0.00  0.00    +0.009 A 
ATOM     29  C   UNL     1       1.221   3.365  -0.072  0.00  0.00    +0.050 A 
ATOM     30  C   UNL     1       1.203   1.995   0.142  0.00  0.00    +0.165 A 
ATOM     31  C   UNL     1      -0.011   1.323   0.226  0.00  0.00    +0.204 A 
ATOM     32  C   UNL     1      -1.201   2.026   0.089  0.00  0.00    +0.167 A 
BRANCH  32  33
ATOM     33  O   UNL     1      -2.391   1.372   0.164  0.00  0.00    -0.491 OA
ATOM     34  C   UNL     1      -2.925   1.145   1.470  0.00  0.00    +0.277 C 
ENDBRANCH  32  33
BRANCH  31  35
ATOM     35  O   UNL     1      -0.033  -0.022   0.436  0.00  0.00    -0.488 OA
ATOM     36  C   UNL     1      -0.051  -0.859  -0.722  0.00  0.00    +0.277 C 
ENDBRANCH  31  35
BRANCH  30  37
ATOM     37  O   UNL     1       2.371   1.310   0.270  0.00  0.00    -0.491 OA
ATOM     38  C   UNL     1       3.580   2.065   0.173  0.00  0.00    +0.277 C 
ENDBRANCH  30  37
ENDBRANCH  26  27
ENDBRANCH  23  26
ENDBRANCH  22  23
ENDBRANCH   2  22
TORSDOF 11
