REMARK  Name = ZINC19043077
REMARK  13 active torsions:
REMARK  status: ('A' for Active; 'I' for Inactive)
REMARK    1  A    between atoms: C_1  and  C_2
REMARK    2  A    between atoms: C_2  and  C_3
REMARK    3  A    between atoms: C_3  and  N_4
REMARK    4  A    between atoms: C_12  and  S_13
REMARK    5  A    between atoms: S_13  and  C_14
REMARK    6  A    between atoms: C_14  and  C_15
REMARK    7  A    between atoms: N_17  and  C_18
REMARK    8  A    between atoms: C_19  and  C_29
REMARK    9  A    between atoms: C_20  and  C_24
REMARK   10  A    between atoms: C_21  and  C_23
REMARK   11  A    between atoms: C_24  and  O_26
REMARK   12  A    between atoms: O_26  and  C_27
REMARK   13  A    between atoms: C_27  and  C_28
REMARK                            x       y       z     vdW  Elec       q    Type
REMARK                         _______ _______ _______ _____ _____    ______ ____
ROOT
ATOM      1  C   UNL     1       5.132   8.012  -0.004  0.00  0.00    +0.230 C 
ATOM      2  O   UNL     1       4.715   9.151   0.005  0.00  0.00    -0.274 OA
ATOM      3  N   UNL     1       6.460   7.781  -0.017  0.00  0.00    -0.255 N 
ATOM      4  H   UNL     1       6.794   6.870  -0.025  0.00  0.00    +0.158 HD
ENDROOT
BRANCH   3   5
ATOM      5  C   UNL     1       7.346   8.842  -0.020  0.00  0.00    +0.206 A 
ATOM      6  C   UNL     1       8.725   8.743  -0.027  0.00  0.00    +0.111 A 
ATOM      7  C   UNL     1       9.216  10.141  -0.031  0.00  0.00    +0.114 A 
ATOM      8  C   UNL     1       8.102  10.921  -0.017  0.00  0.00    +0.119 A 
ATOM      9  O   UNL     1       7.015  10.140  -0.010  0.00  0.00    -0.445 OA
ATOM     10  C   UNL     1       8.093  12.428  -0.008  0.00  0.00    +0.087 C 
BRANCH   6  11
ATOM     11  C   UNL     1       9.530   7.518  -0.033  0.00  0.00    +0.247 C 
ATOM     12  O   UNL     1       9.859   7.011  -1.090  0.00  0.00    -0.270 OA
ATOM     13  N   UNL     1       9.905   6.953   1.131  0.00  0.00    -0.325 N 
ATOM     14  H   UNL     1       9.643   7.357   1.973  0.00  0.00    +0.145 HD
ATOM     15  H   UNL     1      10.438   6.142   1.128  0.00  0.00    +0.145 HD
ENDBRANCH   6  11
BRANCH   7  16
ATOM     16  C   UNL     1      10.616  10.591  -0.042  0.00  0.00    +0.343 C 
ATOM     17  O   UNL     1      11.205  10.772   1.006  0.00  0.00    -0.245 OA
BRANCH  16  18
ATOM     18  O   UNL     1      11.246  10.803  -1.215  0.00  0.00    -0.461 OA
BRANCH  18  19
ATOM     19  C   UNL     1      12.627  11.247  -1.150  0.00  0.00    +0.229 C 
ATOM     20  C   UNL     1      13.170  11.433  -2.568  0.00  0.00    +0.048 C 
ENDBRANCH  18  19
ENDBRANCH  16  18
ENDBRANCH   7  16
ENDBRANCH   3   5
BRANCH   1  21
ATOM     21  C   UNL     1       4.166   6.856  -0.001  0.00  0.00    +0.173 C 
BRANCH  21  22
ATOM     22  S   UNL     1       2.470   7.487   0.017  0.00  0.00    -0.078 S 
BRANCH  22  31
ATOM     23  N   UNL     1       0.216   5.857   0.030  0.00  0.00    -0.319 N 
ATOM     24  C   UNL     1      -0.085   4.504   0.026  0.00  0.00    +0.070 A 
ATOM     25  C   UNL     1      -1.270   3.784   0.034  0.00  0.00    +0.029 A 
ATOM     26  C   UNL     1      -1.236   2.404   0.021  0.00  0.00    +0.022 A 
ATOM     27  C   UNL     1      -0.021   1.732   0.012  0.00  0.00    +0.043 A 
ATOM     28  C   UNL     1       1.165   2.432   0.004  0.00  0.00    +0.050 A 
ATOM     29  C   UNL     1       1.146   3.829   0.011  0.00  0.00    +0.092 A 
ATOM     30  N   UNL     1       2.121   4.775   0.007  0.00  0.00    -0.222 NA
ATOM     31  C   UNL     1       1.578   5.968   0.018  0.00  0.00    +0.170 A 
ATOM     32 CL   UNL     1       0.002  -0.004   0.002  0.00  0.00    -0.083 Cl
BRANCH  23  33
ATOM     33  C   UNL     1      -0.746   6.961   0.044  0.00  0.00    +0.124 C 
BRANCH  33  35
ATOM     34  C   UNL     1      -2.099   8.507  -1.379  0.00  0.00    +0.005 C 
ATOM     35  C   UNL     1      -1.094   7.353  -1.393  0.00  0.00    +0.018 C 
ENDBRANCH  33  35
ENDBRANCH  23  33
ENDBRANCH  22  31
ENDBRANCH  21  22
ENDBRANCH   1  21
TORSDOF 10
