REMARK  Name = ZINC13915237
REMARK  7 active torsions:
REMARK  status: ('A' for Active; 'I' for Inactive)
REMARK    1  A    between atoms: C_1  and  O_2
REMARK    2  A    between atoms: O_2  and  C_3
REMARK    3  A    between atoms: C_5  and  C_11
REMARK    4  A    between atoms: C_8  and  O_9
REMARK    5  A    between atoms: N_17  and  C_18
REMARK    6  A    between atoms: C_21  and  S_24
REMARK    7  A    between atoms: S_24  and  N_27
REMARK                            x       y       z     vdW  Elec       q    Type
REMARK                         _______ _______ _______ _____ _____    ______ ____
ROOT
ATOM      1  C   UNL     1       2.393   0.342  -4.214  0.00  0.00    +0.029 C 
ATOM      2  C   UNL     1       2.259   1.693  -4.200  0.00  0.00    +0.078 C 
ATOM      3  C   UNL     1       2.679   2.685  -5.207  0.00  0.00    +0.256 C 
ATOM      4  O   UNL     1       3.236   2.350  -6.237  0.00  0.00    -0.269 OA
ATOM      5  N   UNL     1       2.424   3.955  -4.941  0.00  0.00    -0.260 N 
ATOM      6  C   UNL     1       1.793   4.314  -3.770  0.00  0.00    +0.166 C 
ATOM      7  N   UNL     1       1.467   5.517  -3.353  0.00  0.00    -0.226 NA
ATOM      8  S   UNL     1       1.519   2.746  -2.961  0.00  0.00    -0.049 S 
ATOM      9  H   UNL     1       2.684   4.641  -5.576  0.00  0.00    +0.157 HD
ENDROOT
BRANCH   1  12
ATOM     10  C   UNL     1       0.072  -0.704  -1.460  0.00  0.00    +0.162 A 
ATOM     11  C   UNL     1       0.687   0.066  -2.427  0.00  0.00    +0.058 A 
ATOM     12  C   UNL     1       1.736  -0.472  -3.184  0.00  0.00    -0.006 A 
ATOM     13  C   UNL     1       2.155  -1.789  -2.955  0.00  0.00    +0.029 A 
ATOM     14  C   UNL     1       1.534  -2.550  -1.987  0.00  0.00    +0.065 A 
ATOM     15  C   UNL     1       0.499  -2.012  -1.234  0.00  0.00    +0.160 A 
ATOM     16 BR   UNL     1       3.569  -2.523  -3.973  0.00  0.00    -0.050 Br
BRANCH  10  18
ATOM     17  C   UNL     1      -1.331   1.162  -1.007  0.00  0.00    +0.277 C 
ATOM     18  O   UNL     1      -0.946  -0.184  -0.723  0.00  0.00    -0.491 OA
ENDBRANCH  10  18
BRANCH  15  19
ATOM     19  O   UNL     1      -0.105  -2.765  -0.278  0.00  0.00    -0.503 OA
ATOM     20  H   UNL     1      -0.861  -3.276  -0.599  0.00  0.00    +0.292 HD
ENDBRANCH  15  19
ENDBRANCH   1  12
BRANCH   7  21
ATOM     21  C   UNL     1       1.757   6.610  -4.123  0.00  0.00    +0.067 A 
ATOM     22  C   UNL     1       3.011   6.731  -4.726  0.00  0.00    +0.030 A 
ATOM     23  C   UNL     1       3.297   7.835  -5.502  0.00  0.00    +0.030 A 
ATOM     24  C   UNL     1       2.345   8.823  -5.682  0.00  0.00    +0.105 A 
ATOM     25  C   UNL     1       1.100   8.710  -5.087  0.00  0.00    +0.030 A 
ATOM     26  C   UNL     1       0.799   7.608  -4.314  0.00  0.00    +0.030 A 
BRANCH  24  27
ATOM     27  S   UNL     1       2.718  10.231  -6.673  0.00  0.00    +0.056 S 
ATOM     28  O   UNL     1       1.854  11.272  -6.242  0.00  0.00    -0.153 OA
ATOM     29  O   UNL     1       4.133  10.365  -6.671  0.00  0.00    -0.153 OA
BRANCH  27  30
ATOM     30  N   UNL     1       2.280   9.865  -8.228  0.00  0.00    -0.204 NA
ATOM     31  H   UNL     1       1.896   8.998  -8.432  0.00  0.00    +0.144 HD
ATOM     32  H   UNL     1       2.407  10.518  -8.934  0.00  0.00    +0.144 HD
ENDBRANCH  27  30
ENDBRANCH  24  27
ENDBRANCH   7  21
TORSDOF 6
