REMARK  Name = ZINC20717234
REMARK  5 active torsions:
REMARK  status: ('A' for Active; 'I' for Inactive)
REMARK    1  A    between atoms: C_1  and  C_2
REMARK    2  A    between atoms: C_18  and  C_20
REMARK    3  A    between atoms: C_25  and  O_26
REMARK    4  A    between atoms: O_26  and  C_27
REMARK    5  A    between atoms: C_27  and  C_28
REMARK                            x       y       z     vdW  Elec       q    Type
REMARK                         _______ _______ _______ _____ _____    ______ ____
ROOT
ATOM      1  C   UNL     1       0.079   1.471   0.018  0.00  0.00    +0.068 C 
ATOM      2  C   UNL     1       0.079  -0.036  -0.008  0.00  0.00    +0.067 A 
ATOM      3  C   UNL     1      -0.074  -0.838  -1.160  0.00  0.00    +0.033 A 
ATOM      4  C   UNL     1      -0.020  -2.131  -0.774  0.00  0.00    +0.137 A 
ATOM      5  N   UNL     1       0.165  -2.135   0.593  0.00  0.00    -0.183 N 
ATOM      6  N   UNL     1       0.225  -0.811   1.028  0.00  0.00    -0.167 NA
ATOM      7  C   UNL     1       0.278  -3.266   1.399  0.00  0.00    +0.253 A 
ATOM      8  N   UNL     1       0.325  -3.120   2.714  0.00  0.00    -0.219 NA
ATOM      9  C   UNL     1       0.432  -4.172   3.508  0.00  0.00    +0.116 A 
ATOM     10  C   UNL     1       0.494  -5.439   2.947  0.00  0.00    +0.039 A 
ATOM     11  C   UNL     1       0.442  -5.555   1.567  0.00  0.00    +0.116 A 
ATOM     12  N   UNL     1       0.329  -4.461   0.832  0.00  0.00    -0.219 NA
ATOM     13  N   UNL     1      -0.119  -3.304  -1.480  0.00  0.00    -0.269 N 
ATOM     14  C   UNL     1      -0.243  -3.611  -2.737  0.00  0.00    +0.228 C 
ATOM     15  O   UNL     1      -0.191  -4.798  -2.979  0.00  0.00    -0.275 OA
ATOM     16  C   UNL     1      -0.438  -2.744  -3.918  0.00  0.00    +0.166 C 
ATOM     17  S   UNL     1       0.503  -1.214  -3.827  0.00  0.00    -0.138 S 
ATOM     18  C   UNL     1      -0.254  -0.243  -2.522  0.00  0.00    +0.115 C 
ATOM     19  H   UNL     1      -0.088  -4.086  -0.908  0.00  0.00    +0.156 HD
ENDROOT
BRANCH  18  20
ATOM     20  C   UNL     1       0.352   1.137  -2.531  0.00  0.00    +0.012 A 
ATOM     21  C   UNL     1       1.709   1.297  -2.327  0.00  0.00    +0.008 A 
ATOM     22  C   UNL     1       2.266   2.562  -2.335  0.00  0.00    +0.001 A 
ATOM     23  C   UNL     1       1.466   3.671  -2.547  0.00  0.00    +0.004 A 
ATOM     24  C   UNL     1       0.109   3.516  -2.752  0.00  0.00    +0.046 A 
ATOM     25  C   UNL     1      -0.451   2.247  -2.750  0.00  0.00    +0.126 A 
BRANCH  25  26
ATOM     26  O   UNL     1      -1.785   2.091  -2.957  0.00  0.00    -0.487 OA
BRANCH  26  27
ATOM     27  C   UNL     1      -2.550   3.278  -3.176  0.00  0.00    +0.266 C 
BRANCH  27  28
ATOM     28  C   UNL     1      -3.997   2.912  -3.385  0.00  0.00    +0.008 A 
ATOM     29  C   UNL     1      -4.388   1.586  -3.339  0.00  0.00    +0.008 A 
ATOM     30  C   UNL     1      -5.715   1.250  -3.531  0.00  0.00    +0.000 A 
ATOM     31  C   UNL     1      -6.652   2.239  -3.768  0.00  0.00    +0.001 A 
ATOM     32  C   UNL     1      -6.262   3.564  -3.814  0.00  0.00    +0.020 A 
ATOM     33  C   UNL     1      -4.935   3.902  -3.617  0.00  0.00    +0.047 A 
ATOM     34 CL   UNL     1      -4.446   5.566  -3.668  0.00  0.00    -0.083 Cl
ENDBRANCH  27  28
ENDBRANCH  26  27
ENDBRANCH  25  26
ENDBRANCH  18  20
TORSDOF 4
