REMARK  Name = ZINC23949672
REMARK  11 active torsions:
REMARK  status: ('A' for Active; 'I' for Inactive)
REMARK    1  A    between atoms: C_1  and  C_2
REMARK    2  A    between atoms: C_2  and  C_24
REMARK    3  A    between atoms: N_5  and  N_9
REMARK    4  A    between atoms: C_10  and  C_12
REMARK    5  A    between atoms: C_15  and  C_17
REMARK    6  A    between atoms: C_17  and  C_18
REMARK    7  A    between atoms: C_18  and  N_19
REMARK    8  A    between atoms: N_19  and  S_20
REMARK    9  A    between atoms: S_20  and  C_23
REMARK   10  A    between atoms: C_24  and  C_25
REMARK   11  A    between atoms: C_25  and  C_26
REMARK                            x       y       z     vdW  Elec       q    Type
REMARK                         _______ _______ _______ _____ _____    ______ ____
ROOT
ATOM      1  C   UNL     1       4.101  -1.333  -0.864  0.00  0.00    +0.041 C 
ATOM      2  C   UNL     1       4.257   0.059  -1.480  0.00  0.00    +0.112 C 
ATOM      3  C   UNL     1       4.795  -0.041  -2.893  0.00  0.00    +0.263 C 
ATOM      4  O   UNL     1       4.274  -0.593  -3.838  0.00  0.00    -0.271 OA
ATOM      5  N   UNL     1       5.973   0.614  -2.882  0.00  0.00    -0.137 N 
ATOM      6  C   UNL     1       6.251   1.108  -1.670  0.00  0.00    +0.326 C 
ATOM      7  O   UNL     1       7.258   1.738  -1.412  0.00  0.00    -0.251 OA
ATOM      8  N   UNL     1       5.290   0.829  -0.766  0.00  0.00    -0.284 N 
ATOM      9  H   UNL     1       5.166   1.057   0.303  0.00  0.00    +0.151 HD
ENDROOT
BRANCH   5  10
ATOM     10  N   UNL     1       6.803   0.760  -4.000  0.00  0.00    -0.219 N 
ATOM     11  C   UNL     1       6.871   1.944  -4.640  0.00  0.00    +0.267 C 
ATOM     12  O   UNL     1       6.210   2.887  -4.246  0.00  0.00    -0.268 OA
ATOM     13  H   UNL     1       7.401  -0.092  -4.357  0.00  0.00    +0.174 HD
BRANCH  11  14
ATOM     14  C   UNL     1       7.739   2.097  -5.811  0.00  0.00    +0.076 A 
ATOM     15  C   UNL     1       7.951   3.215  -6.602  0.00  0.00    +0.021 A 
ATOM     16  C   UNL     1       8.829   3.083  -7.649  0.00  0.00    +0.012 A 
ATOM     17  C   UNL     1       9.438   1.886  -7.858  0.00  0.00    -0.008 A 
ATOM     18  S   UNL     1       8.807   0.894  -6.584  0.00  0.00    -0.089 S 
BRANCH  17  19
ATOM     19  C   UNL     1      10.426   1.514  -8.932  0.00  0.00    +0.059 C 
BRANCH  19  20
ATOM     20  C   UNL     1      11.847   1.790  -8.436  0.00  0.00    +0.110 C 
BRANCH  20  21
ATOM     21  N   UNL     1      12.808   1.428  -9.481  0.00  0.00    -0.194 NA
ATOM     22  H   UNL     1      12.540   0.677 -10.239  0.00  0.00    +0.148 HD
BRANCH  21  23
ATOM     23  S   UNL     1      14.375   1.954  -9.383  0.00  0.00    +0.027 S 
ATOM     24  O   UNL     1      15.002   1.445 -10.552  0.00  0.00    -0.158 OA
ATOM     25  O   UNL     1      14.274   3.355  -9.166  0.00  0.00    -0.158 OA
ATOM     26  C   UNL     1      15.049   1.141  -7.908  0.00  0.00    +0.214 C 
ENDBRANCH  21  23
ENDBRANCH  20  21
ENDBRANCH  19  20
ENDBRANCH  17  19
ENDBRANCH  11  14
ENDBRANCH   5  10
BRANCH   2  27
ATOM     27  C   UNL     1       2.922   0.806  -1.464  0.00  0.00    +0.040 C 
BRANCH  27  28
ATOM     28  C   UNL     1       2.490   1.048  -0.016  0.00  0.00    +0.038 C 
BRANCH  28  29
ATOM     29  C   UNL     1       1.175   1.783   0.000  0.00  0.00    -0.047 A 
ATOM     30  C   UNL     1      -0.013   1.076   0.008  0.00  0.00    +0.003 A 
ATOM     31  C   UNL     1      -1.219   1.751   0.017  0.00  0.00    +0.000 A 
ATOM     32  C   UNL     1      -1.238   3.133   0.029  0.00  0.00    +0.000 A 
ATOM     33  C   UNL     1      -0.050   3.840   0.022  0.00  0.00    +0.000 A 
ATOM     34  C   UNL     1       1.156   3.165   0.008  0.00  0.00    +0.003 A 
ENDBRANCH  28  29
ENDBRANCH  27  28
ENDBRANCH   2  27
TORSDOF 9
