REMARK  Name = ZINC40131532
REMARK  9 active torsions:
REMARK  status: ('A' for Active; 'I' for Inactive)
REMARK    1  A    between atoms: C_1  and  C_2
REMARK    2  A    between atoms: C_3  and  C_7
REMARK    3  A    between atoms: C_12  and  C_15
REMARK    4  A    between atoms: C_15  and  C_16
REMARK    5  A    between atoms: N_18  and  C_19
REMARK    6  A    between atoms: C_19  and  C_21
REMARK    7  A    between atoms: C_19  and  C_22
REMARK    8  A    between atoms: C_25  and  O_29
REMARK    9  A    between atoms: O_29  and  C_30
REMARK                            x       y       z     vdW  Elec       q    Type
REMARK                         _______ _______ _______ _____ _____    ______ ____
ROOT
ATOM      1  C   UNL     1      -8.333  -2.048   0.042  0.00  0.00    +0.151 C 
ENDROOT
BRANCH   1   7
ATOM      2  C   UNL     1      -2.508  -0.406   0.012  0.00  0.00    +0.253 C 
ATOM      3  O   UNL     1      -2.798   0.776   0.021  0.00  0.00    -0.270 OA
ATOM      4  N   UNL     1      -3.481  -1.338   0.011  0.00  0.00    -0.261 N 
ATOM      5  C   UNL     1      -4.815  -0.950   0.020  0.00  0.00    +0.165 A 
ATOM      6  N   UNL     1      -5.888  -1.711   0.027  0.00  0.00    -0.229 NA
ATOM      7  C   UNL     1      -7.099  -1.184   0.035  0.00  0.00    +0.059 A 
ATOM      8  C   UNL     1      -7.181   0.169   0.037  0.00  0.00    +0.072 A 
ATOM      9  S   UNL     1      -5.451   0.608   0.033  0.00  0.00    -0.060 S 
ATOM     10  H   UNL     1      -3.250  -2.280   0.005  0.00  0.00    +0.157 HD
BRANCH   2  13
ATOM     11  C   UNL     1      -0.018   1.503   0.010  0.00  0.00    +0.087 C 
ATOM     12  C   UNL     1       0.002  -0.004   0.002  0.00  0.00    +0.114 A 
ATOM     13  C   UNL     1      -1.094  -0.817   0.003  0.00  0.00    +0.078 A 
ATOM     14  C   UNL     1      -0.567  -2.190  -0.007  0.00  0.00    +0.054 A 
ATOM     15  C   UNL     1       0.769  -2.073  -0.013  0.00  0.00    +0.196 A 
ATOM     16  O   UNL     1       1.097  -0.771  -0.013  0.00  0.00    -0.467 OA
ENDBRANCH   2  13
ENDBRANCH   1   7
BRANCH   1  17
ATOM     17  C   UNL     1      -8.284  -3.003  -1.124  0.00  0.00    +0.219 C 
ATOM     18  O   UNL     1      -7.340  -2.983  -1.884  0.00  0.00    -0.275 OA
ATOM     19  N   UNL     1      -9.290  -3.878  -1.320  0.00  0.00    -0.308 N 
ATOM     20  H   UNL     1     -10.046  -3.894  -0.712  0.00  0.00    +0.149 HD
BRANCH  19  21
ATOM     21  C   UNL     1      -9.243  -4.806  -2.453  0.00  0.00    +0.100 C 
ATOM     22  C   UNL     1      -9.796  -4.116  -3.701  0.00  0.00    +0.033 C 
BRANCH  21  23
ATOM     23  C   UNL     1     -10.076  -6.022  -2.141  0.00  0.00    -0.025 A 
ATOM     24  C   UNL     1     -11.288  -5.880  -1.490  0.00  0.00    +0.009 A 
ATOM     25  C   UNL     1     -12.055  -6.993  -1.202  0.00  0.00    +0.049 A 
ATOM     26  C   UNL     1     -11.608  -8.255  -1.566  0.00  0.00    +0.155 A 
ATOM     27  C   UNL     1     -10.391  -8.396  -2.220  0.00  0.00    +0.165 A 
ATOM     28  C   UNL     1      -9.630  -7.278  -2.510  0.00  0.00    +0.047 A 
ATOM     29  F   UNL     1      -9.953  -9.623  -2.576  0.00  0.00    -0.202 F 
BRANCH  26  30
ATOM     30  O   UNL     1     -12.361  -9.351  -1.283  0.00  0.00    -0.492 OA
ATOM     31  C   UNL     1     -13.601  -9.130  -0.609  0.00  0.00    +0.277 C 
ENDBRANCH  26  30
ENDBRANCH  21  23
ENDBRANCH  19  21
ENDBRANCH   1  17
TORSDOF 6
