REMARK  Name = ZINC63374845
REMARK  10 active torsions:
REMARK  status: ('A' for Active; 'I' for Inactive)
REMARK    1  A    between atoms: C_1  and  C_2
REMARK    2  A    between atoms: C_13  and  C_32
REMARK    3  A    between atoms: N_20  and  C_23
REMARK    4  A    between atoms: C_23  and  C_24
REMARK    5  A    between atoms: C_29  and  O_30
REMARK    6  A    between atoms: O_30  and  C_31
REMARK    7  A    between atoms: C_36  and  O_40
REMARK    8  A    between atoms: C_37  and  O_38
REMARK    9  A    between atoms: O_38  and  C_39
REMARK   10  A    between atoms: O_40  and  C_41
REMARK                            x       y       z     vdW  Elec       q    Type
REMARK                         _______ _______ _______ _____ _____    ______ ____
ROOT
ATOM      1  C   UNL     1       0.220   1.567   0.807  0.00  0.00    +0.044 C 
ATOM      2  C   UNL     1       0.157   0.049   0.628  0.00  0.00    +0.135 C 
ATOM      3  C   UNL     1       0.384  -0.188  -0.832  0.00  0.00    +0.139 C 
ATOM      4  C   UNL     1       1.418  -1.285  -1.016  0.00  0.00    -0.027 C 
ATOM      5  C   UNL     1       0.900  -2.154  -1.871  0.00  0.00    -0.000 A 
ATOM      6  C   UNL     1       1.451  -3.368  -2.495  0.00  0.00    +0.010 A 
ATOM      7  C   UNL     1       0.620  -4.041  -3.334  0.00  0.00    +0.001 A 
ATOM      8  C   UNL     1      -0.689  -3.634  -3.611  0.00  0.00    +0.002 A 
ATOM      9  C   UNL     1      -1.275  -2.529  -3.086  0.00  0.00    +0.026 A 
ATOM     10  C   UNL     1      -0.499  -1.735  -2.193  0.00  0.00    +0.043 A 
ATOM     11  N   UNL     1      -0.794  -0.651  -1.565  0.00  0.00    -0.375 N 
ATOM     12  C   UNL     1       2.705  -1.279  -0.227  0.00  0.00    +0.069 C 
ATOM     13  C   UNL     1       2.300  -1.307   1.249  0.00  0.00    +0.121 C 
ATOM     14  N   UNL     1       1.145  -0.482   1.550  0.00  0.00    -0.283 N 
ATOM     15  C   UNL     1       0.913  -0.196   2.875  0.00  0.00    +0.234 C 
ATOM     16  O   UNL     1       1.713  -0.486   3.738  0.00  0.00    -0.274 OA
ATOM     17  C   UNL     1      -0.391   0.501   3.203  0.00  0.00    +0.204 C 
ATOM     18  N   UNL     1      -1.472  -0.126   2.421  0.00  0.00    -0.286 N 
ATOM     19  C   UNL     1      -1.222  -0.340   1.094  0.00  0.00    +0.242 C 
ATOM     20  O   UNL     1      -2.052  -0.809   0.344  0.00  0.00    -0.273 OA
ATOM     21  H   UNL     1      -1.660  -0.214  -1.584  0.00  0.00    +0.160 HD
ENDROOT
BRANCH  12  22
ATOM     22  C   UNL     1       3.490  -0.028  -0.527  0.00  0.00    +0.007 A 
ATOM     23  C   UNL     1       2.888   1.211  -0.410  0.00  0.00    +0.008 A 
ATOM     24  C   UNL     1       3.606   2.360  -0.684  0.00  0.00    +0.004 A 
ATOM     25  C   UNL     1       4.929   2.275  -1.078  0.00  0.00    +0.049 A 
ATOM     26  C   UNL     1       5.538   1.037  -1.197  0.00  0.00    +0.162 A 
ATOM     27  C   UNL     1       4.817  -0.120  -0.914  0.00  0.00    +0.165 A 
BRANCH  27  28
ATOM     28  O   UNL     1       5.412  -1.338  -1.025  0.00  0.00    -0.491 OA
ATOM     29  C   UNL     1       5.335  -1.985  -2.297  0.00  0.00    +0.277 C 
ENDBRANCH  27  28
BRANCH  26  30
ATOM     30  O   UNL     1       6.839   0.952  -1.583  0.00  0.00    -0.491 OA
ATOM     31  C   UNL     1       7.518   2.180  -1.851  0.00  0.00    +0.277 C 
ENDBRANCH  26  30
ENDBRANCH  12  22
BRANCH  18  32
ATOM     32  C   UNL     1      -2.749  -0.500   3.034  0.00  0.00    +0.147 C 
BRANCH  32  33
ATOM     33  C   UNL     1      -3.710   0.656   2.938  0.00  0.00    +0.011 A 
ATOM     34  C   UNL     1      -3.911   1.481   4.028  0.00  0.00    +0.009 A 
ATOM     35  C   UNL     1      -4.793   2.542   3.941  0.00  0.00    +0.001 A 
ATOM     36  C   UNL     1      -5.476   2.781   2.763  0.00  0.00    +0.004 A 
ATOM     37  C   UNL     1      -5.279   1.960   1.670  0.00  0.00    +0.046 A 
ATOM     38  C   UNL     1      -4.390   0.897   1.753  0.00  0.00    +0.125 A 
BRANCH  38  39
ATOM     39  O   UNL     1      -4.189   0.091   0.677  0.00  0.00    -0.495 OA
ATOM     40  C   UNL     1      -4.923   0.399  -0.509  0.00  0.00    +0.277 C 
ENDBRANCH  38  39
ENDBRANCH  32  33
ENDBRANCH  18  32
TORSDOF 6
