REMARK  Name = ZINC02357667
REMARK  11 active torsions:
REMARK  status: ('A' for Active; 'I' for Inactive)
REMARK    1  A    between atoms: C_1  and  O_2
REMARK    2  A    between atoms: O_2  and  C_3
REMARK    3  A    between atoms: C_6  and  C_9
REMARK    4  A    between atoms: C_12  and  S_20
REMARK    5  A    between atoms: N_13  and  C_14
REMARK    6  A    between atoms: S_20  and  C_21
REMARK    7  A    between atoms: C_21  and  C_22
REMARK    8  A    between atoms: N_24  and  N_25
REMARK    9  A    between atoms: C_26  and  C_27
REMARK   10  A    between atoms: C_30  and  O_34
REMARK   11  A    between atoms: C_32  and  O_33
REMARK                            x       y       z     vdW  Elec       q    Type
REMARK                         _______ _______ _______ _____ _____    ______ ____
ROOT
ATOM      1  C   UNL     1      -6.978   9.859   0.088  0.00  0.00    +0.169 A 
ATOM      2  N   UNL     1      -7.342   8.597   0.084  0.00  0.00    -0.128 NA
ATOM      3  N   UNL     1      -6.304   7.840   0.075  0.00  0.00    -0.122 NA
ATOM      4  C   UNL     1      -5.211   8.569   0.073  0.00  0.00    +0.197 A 
ATOM      5  N   UNL     1      -5.600   9.881   0.088  0.00  0.00    -0.270 N 
ENDROOT
BRANCH   1   9
ATOM      6  C   UNL     1      -9.560  13.233   0.117  0.00  0.00    +0.120 A 
ATOM      7  C   UNL     1     -10.061  11.975   0.425  0.00  0.00    +0.046 A 
ATOM      8  C   UNL     1      -9.227  10.878   0.417  0.00  0.00    +0.015 A 
ATOM      9  C   UNL     1      -7.876  11.032   0.098  0.00  0.00    +0.020 A 
ATOM     10  C   UNL     1      -7.375  12.300  -0.205  0.00  0.00    +0.015 A 
ATOM     11  C   UNL     1      -8.217  13.391  -0.200  0.00  0.00    +0.046 A 
BRANCH   6  13
ATOM     12  C   UNL     1      -9.804  15.576  -0.201  0.00  0.00    +0.277 C 
ATOM     13  O   UNL     1     -10.385  14.312   0.126  0.00  0.00    -0.495 OA
ENDBRANCH   6  13
ENDBRANCH   1   9
BRANCH   5  14
ATOM     14  C   UNL     1      -4.771  11.011   0.097  0.00  0.00    +0.051 A 
ATOM     15  C   UNL     1      -4.769  11.864   1.192  0.00  0.00    +0.026 A 
ATOM     16  C   UNL     1      -3.947  12.974   1.200  0.00  0.00    +0.002 A 
ATOM     17  C   UNL     1      -3.135  13.242   0.114  0.00  0.00    +0.000 A 
ATOM     18  C   UNL     1      -3.138  12.397  -0.981  0.00  0.00    +0.002 A 
ATOM     19  C   UNL     1      -3.954  11.283  -0.992  0.00  0.00    +0.026 A 
ENDBRANCH   5  14
BRANCH   4  20
ATOM     20  S   UNL     1      -3.554   7.970   0.062  0.00  0.00    -0.076 S 
BRANCH  20  21
ATOM     21  C   UNL     1      -3.865   6.187   0.054  0.00  0.00    +0.174 C 
BRANCH  21  22
ATOM     22  C   UNL     1      -2.552   5.448   0.044  0.00  0.00    +0.242 C 
ATOM     23  O   UNL     1      -1.508   6.066   0.042  0.00  0.00    -0.273 OA
ATOM     24  N   UNL     1      -2.537   4.100   0.036  0.00  0.00    -0.206 N 
ATOM     25  H   UNL     1      -3.371   3.606   0.038  0.00  0.00    +0.177 HD
BRANCH  24  26
ATOM     26  N   UNL     1      -1.315   3.413   0.027  0.00  0.00    -0.188 NA
ATOM     27  C   UNL     1      -1.301   2.115   0.020  0.00  0.00    +0.142 C 
BRANCH  27  28
ATOM     28  C   UNL     1      -0.017   1.393   0.010  0.00  0.00    +0.036 A 
ATOM     29  C   UNL     1       0.002  -0.004   0.002  0.00  0.00    +0.016 A 
ATOM     30  C   UNL     1       1.205  -0.675  -0.013  0.00  0.00    +0.046 A 
ATOM     31  C   UNL     1       2.401   0.032  -0.021  0.00  0.00    +0.120 A 
ATOM     32  C   UNL     1       2.393   1.419  -0.014  0.00  0.00    +0.091 A 
ATOM     33  C   UNL     1       1.191   2.105   0.002  0.00  0.00    +0.129 A 
BRANCH  33  34
ATOM     34  O   UNL     1       1.182   3.463   0.009  0.00  0.00    -0.506 OA
ATOM     35  H   UNL     1       1.187   3.852   0.894  0.00  0.00    +0.292 HD
ENDBRANCH  33  34
BRANCH  31  36
ATOM     36  O   UNL     1       3.583  -0.637  -0.037  0.00  0.00    -0.507 OA
ATOM     37  H   UNL     1       3.916  -0.826  -0.925  0.00  0.00    +0.292 HD
ENDBRANCH  31  36
ENDBRANCH  27  28
ENDBRANCH  24  26
ENDBRANCH  21  22
ENDBRANCH  20  21
ENDBRANCH   4  20
TORSDOF 10
