REMARK  Name = ZINC06907241
REMARK  10 active torsions:
REMARK  status: ('A' for Active; 'I' for Inactive)
REMARK    1  A    between atoms: C_1  and  C_2
REMARK    2  A    between atoms: C_2  and  C_4
REMARK    3  A    between atoms: C_2  and  N_15
REMARK    4  A    between atoms: C_7  and  N_10
REMARK    5  A    between atoms: N_15  and  C_16
REMARK    6  A    between atoms: C_16  and  N_18
REMARK    7  A    between atoms: N_18  and  C_19
REMARK    8  A    between atoms: C_22  and  C_25
REMARK    9  A    between atoms: C_25  and  C_26
REMARK   10  A    between atoms: C_25  and  C_27
REMARK                            x       y       z     vdW  Elec       q    Type
REMARK                         _______ _______ _______ _____ _____    ______ ____
ROOT
ATOM      1  N   UNL     1       0.774  -0.110   1.348  0.00  0.00    -0.320 N 
ATOM      2  H   UNL     1       0.235  -0.584   2.000  0.00  0.00    +0.148 HD
ENDROOT
BRANCH   1   4
ATOM      3  C   UNL     1       0.132   2.200   0.866  0.00  0.00    +0.033 C 
ATOM      4  C   UNL     1       0.132   0.757   0.358  0.00  0.00    +0.099 C 
BRANCH   4   5
ATOM      5  C   UNL     1      -1.288   0.303   0.137  0.00  0.00    -0.027 A 
ATOM      6  C   UNL     1      -2.056  -0.106   1.212  0.00  0.00    +0.007 A 
ATOM      7  C   UNL     1      -3.358  -0.523   1.013  0.00  0.00    +0.026 A 
ATOM      8  C   UNL     1      -3.895  -0.532  -0.267  0.00  0.00    +0.047 A 
ATOM      9  C   UNL     1      -3.122  -0.120  -1.344  0.00  0.00    +0.026 A 
ATOM     10  C   UNL     1      -1.822   0.300  -1.138  0.00  0.00    +0.007 A 
BRANCH   8  11
ATOM     11  N   UNL     1      -5.216  -0.955  -0.472  0.00  0.00    -0.306 N 
ATOM     12  C   UNL     1      -5.873  -1.022  -1.673  0.00  0.00    +0.112 A 
ATOM     13  C   UNL     1      -7.114  -1.478  -1.414  0.00  0.00    +0.130 A 
ATOM     14  N   UNL     1      -7.216  -1.687  -0.093  0.00  0.00    -0.244 NA
ATOM     15  C   UNL     1      -6.084  -1.383   0.482  0.00  0.00    +0.204 A 
ENDBRANCH   8  11
ENDBRANCH   4   5
ENDBRANCH   1   4
BRANCH   1  16
ATOM     16  C   UNL     1       2.115  -0.248   1.354  0.00  0.00    +0.135 C 
ATOM     17  S   UNL     1       3.067   0.589   0.204  0.00  0.00    -0.019 S 
BRANCH  16  18
ATOM     18  N   UNL     1       2.706  -1.046   2.266  0.00  0.00    -0.297 N 
ATOM     19  H   UNL     1       2.173  -1.472   2.955  0.00  0.00    +0.154 HD
BRANCH  18  20
ATOM     20  C   UNL     1       4.087  -1.260   2.217  0.00  0.00    +0.033 A 
ATOM     21  C   UNL     1       4.951  -0.189   2.031  0.00  0.00    +0.023 A 
ATOM     22  C   UNL     1       6.315  -0.404   1.984  0.00  0.00    +0.006 A 
ATOM     23  C   UNL     1       6.820  -1.684   2.120  0.00  0.00    -0.045 A 
ATOM     24  C   UNL     1       5.962  -2.753   2.305  0.00  0.00    +0.006 A 
ATOM     25  C   UNL     1       4.598  -2.544   2.359  0.00  0.00    +0.023 A 
BRANCH  23  26
ATOM     26  C   UNL     1       8.308  -1.915   2.067  0.00  0.00    +0.013 C 
ATOM     27  C   UNL     1       8.775  -2.540   3.383  0.00  0.00    +0.012 C 
ATOM     28  C   UNL     1       8.637  -2.859   0.909  0.00  0.00    +0.012 C 
ENDBRANCH  23  26
ENDBRANCH  18  20
ENDBRANCH  16  18
ENDBRANCH   1  16
TORSDOF 7
