REMARK  Name = ZINC53013272
REMARK  6 active torsions:
REMARK  status: ('A' for Active; 'I' for Inactive)
REMARK    1  A    between atoms: C_1  and  C_2
REMARK    2  A    between atoms: C_2  and  C_3
REMARK    3  A    between atoms: C_2  and  N_4
REMARK    4  A    between atoms: N_4  and  C_5
REMARK    5  A    between atoms: C_5  and  C_6
REMARK    6  A    between atoms: N_10  and  C_12
REMARK                            x       y       z     vdW  Elec       q    Type
REMARK                         _______ _______ _______ _____ _____    ______ ____
ROOT
ATOM      1  C   UNL     1      -3.485  -0.656  -1.224  0.00  0.00    -0.009 C 
ATOM      2  C   UNL     1      -4.338   0.092  -0.165  0.00  0.00    +0.022 C 
ATOM      3  C   UNL     1      -5.764  -0.056  -0.753  0.00  0.00    +0.105 C 
ATOM      4  N   UNL     1      -5.584   0.059  -2.211  0.00  0.00    -0.328 N 
ATOM      5  C   UNL     1      -4.201  -0.321  -2.549  0.00  0.00    +0.107 C 
ENDROOT
BRANCH   4   6
ATOM      6  C   UNL     1      -6.565   0.457  -3.124  0.00  0.00    +0.058 A 
ATOM      7  C   UNL     1      -7.400  -0.488  -3.707  0.00  0.00    +0.041 A 
ATOM      8  C   UNL     1      -8.369  -0.091  -4.609  0.00  0.00    +0.032 A 
ATOM      9  C   UNL     1      -8.508   1.247  -4.932  0.00  0.00    +0.020 A 
ATOM     10  C   UNL     1      -7.678   2.191  -4.354  0.00  0.00    +0.032 A 
ATOM     11  C   UNL     1      -6.711   1.801  -3.447  0.00  0.00    +0.041 A 
ATOM     12 BR   UNL     1      -5.582   3.093  -2.652  0.00  0.00    -0.048 Br
ATOM     13 BR   UNL     1      -9.834   1.786  -6.167  0.00  0.00    -0.050 Br
ATOM     14 BR   UNL     1      -7.210  -2.318  -3.266  0.00  0.00    -0.048 Br
ENDBRANCH   4   6
BRANCH   1  15
ATOM     15  C   UNL     1      -2.050  -0.126  -1.234  0.00  0.00    -0.077 C 
BRANCH  15  16
ATOM     16  N   UNL     1      -1.376  -0.512   0.012  0.00  0.00    +0.381 N 
ATOM     17  H   UNL     1      -1.363  -1.518   0.090  0.00  0.00    -0.086 HD
ATOM     18  H   UNL     1      -1.873  -0.121   0.799  0.00  0.00    -0.086 HD
BRANCH  16  20
ATOM     19  C   UNL     1      -0.019   1.526   0.010  0.00  0.00    -0.014 C 
ATOM     20  C   UNL     1       0.002  -0.004   0.002  0.00  0.00    -0.078 C 
ATOM     21  C   UNL     1       0.742  -0.511   1.242  0.00  0.00    -0.014 C 
ENDBRANCH  16  20
ENDBRANCH  15  16
ENDBRANCH   1  15
TORSDOF 4
