REMARK  Name = ZINC08039047
REMARK  4 active torsions:
REMARK  status: ('A' for Active; 'I' for Inactive)
REMARK    1  A    between atoms: C_2  and  C_13
REMARK    2  A    between atoms: C_13  and  N_43
REMARK    3  A    between atoms: C_14  and  C_15
REMARK    4  A    between atoms: C_14  and  N_43
REMARK                            x       y       z     vdW  Elec       q    Type
REMARK                         _______ _______ _______ _____ _____    ______ ____
ROOT
ATOM      1  C   UNL     1       1.209  -0.682  -0.013  0.00  0.00    +0.051 A 
ATOM      2  C   UNL     1       2.396   0.030  -0.020  0.00  0.00    -0.059 A 
ATOM      3  C   UNL     1       2.378   1.412  -0.012  0.00  0.00    +0.025 A 
ATOM      4  C   UNL     1       1.173   2.093   0.002  0.00  0.00    +0.086 A 
ATOM      5  C   UNL     1      -0.017   1.383   0.010  0.00  0.00    +0.180 A 
ATOM      6  C   UNL     1       0.002  -0.004   0.002  0.00  0.00    +0.164 A 
ATOM      7  O   UNL     1      -1.175  -0.695   0.009  0.00  0.00    -0.488 OA
ATOM      8  C   UNL     1      -1.966  -0.594  -1.177  0.00  0.00    +0.232 C 
ATOM      9  C   UNL     1      -2.829   0.658  -1.145  0.00  0.00    +0.082 C 
ATOM     10  C   UNL     1      -2.001   1.933  -1.162  0.00  0.00    +0.232 C 
ATOM     11  O   UNL     1      -1.212   2.042   0.030  0.00  0.00    -0.487 OA
ATOM     12 CL   UNL     1       1.152   3.829   0.011  0.00  0.00    -0.080 Cl
ENDROOT
BRANCH   2  13
ATOM     13  C   UNL     1       3.712  -0.704  -0.036  0.00  0.00    -0.047 C 
BRANCH  13  14
ATOM     14  N   UNL     1       4.121  -0.932  -1.434  0.00  0.00    +0.382 N 
ATOM     15  H   UNL     1       4.221  -0.028  -1.910  0.00  0.00    -0.085 HD
ATOM     16  H   UNL     1       3.404  -1.492  -1.910  0.00  0.00    -0.085 HD
BRANCH  14  17
ATOM     17  C   UNL     1       5.409  -1.651  -1.480  0.00  0.00    -0.078 C 
BRANCH  17  18
ATOM     18  C   UNL     1       5.807  -1.873  -2.941  0.00  0.00    -0.021 C 
ATOM     19  C   UNL     1       6.217  -0.534  -3.603  0.00  0.00    +0.010 C 
ATOM     20  C   UNL     1       7.707  -0.764  -4.009  0.00  0.00    +0.012 C 
ATOM     21  C   UNL     1       8.200  -1.639  -2.798  0.00  0.00    +0.015 C 
ATOM     22  C   UNL     1       7.102  -2.741  -3.031  0.00  0.00    +0.013 C 
ATOM     23  C   UNL     1       7.287  -2.981  -4.534  0.00  0.00    -0.027 C 
ATOM     24  C   UNL     1       7.636  -1.841  -5.098  0.00  0.00    -0.027 C 
ENDBRANCH  17  18
ENDBRANCH  14  17
ENDBRANCH  13  14
ENDBRANCH   2  13
TORSDOF 4
