REMARK  Name = ZINC66312151
REMARK  6 active torsions:
REMARK  status: ('A' for Active; 'I' for Inactive)
REMARK    1  A    between atoms: C_1  and  C_2
REMARK    2  A    between atoms: C_2  and  C_3
REMARK    3  A    between atoms: C_3  and  C_24
REMARK    4  A    between atoms: N_6  and  N_10
REMARK    5  A    between atoms: C_11  and  C_13
REMARK    6  A    between atoms: C_16  and  C_18
REMARK                            x       y       z     vdW  Elec       q    Type
REMARK                         _______ _______ _______ _____ _____    ______ ____
ROOT
ATOM      1  C   UNL     1      -1.433  -0.534   0.013  0.00  0.00    +0.139 C 
ATOM      2  C   UNL     1      -2.192  -0.043  -1.205  0.00  0.00    +0.268 C 
ATOM      3  O   UNL     1      -1.933  -0.267  -2.368  0.00  0.00    -0.271 OA
ATOM      4  N   UNL     1      -3.214   0.692  -0.725  0.00  0.00    -0.137 N 
ATOM      5  C   UNL     1      -3.207   0.734   0.612  0.00  0.00    +0.327 C 
ATOM      6  O   UNL     1      -4.031   1.335   1.273  0.00  0.00    -0.251 OA
ATOM      7  N   UNL     1      -2.187   0.036   1.143  0.00  0.00    -0.280 N 
ATOM      8  H   UNL     1      -1.987  -0.072   2.086  0.00  0.00    +0.152 HD
ENDROOT
BRANCH   1   9
ATOM      9  C   UNL     1      -1.441  -2.039   0.076  0.00  0.00    -0.015 A 
ATOM     10  C   UNL     1      -0.400  -2.759  -0.480  0.00  0.00    +0.006 A 
ATOM     11  C   UNL     1      -0.407  -4.141  -0.423  0.00  0.00    +0.000 A 
ATOM     12  C   UNL     1      -1.454  -4.802   0.191  0.00  0.00    +0.000 A 
ATOM     13  C   UNL     1      -2.495  -4.082   0.748  0.00  0.00    +0.000 A 
ATOM     14  C   UNL     1      -2.486  -2.700   0.694  0.00  0.00    +0.006 A 
ENDBRANCH   1   9
BRANCH   4  15
ATOM     15  N   UNL     1      -4.167   1.333  -1.528  0.00  0.00    -0.223 N 
ATOM     16  C   UNL     1      -5.410   0.825  -1.635  0.00  0.00    +0.233 C 
ATOM     17  O   UNL     1      -5.705  -0.187  -1.036  0.00  0.00    -0.274 OA
ATOM     18  H   UNL     1      -3.931   2.143  -2.007  0.00  0.00    +0.174 HD
BRANCH  16  19
ATOM     19  C   UNL     1      -6.435   1.516  -2.498  0.00  0.00    +0.084 C 
ATOM     20  C   UNL     1      -7.614   2.188  -1.794  0.00  0.00    +0.022 C 
ATOM     21  C   UNL     1      -7.829   0.891  -2.577  0.00  0.00    +0.032 C 
BRANCH  21  22
ATOM     22  C   UNL     1      -8.073  -0.368  -1.785  0.00  0.00    -0.044 A 
ATOM     23  C   UNL     1      -7.927  -0.359  -0.410  0.00  0.00    +0.004 A 
ATOM     24  C   UNL     1      -8.151  -1.513   0.317  0.00  0.00    +0.000 A 
ATOM     25  C   UNL     1      -8.521  -2.677  -0.332  0.00  0.00    +0.000 A 
ATOM     26  C   UNL     1      -8.668  -2.686  -1.706  0.00  0.00    +0.000 A 
ATOM     27  C   UNL     1      -8.448  -1.530  -2.432  0.00  0.00    +0.004 A 
ENDBRANCH  21  22
ENDBRANCH  16  19
ENDBRANCH   4  15
BRANCH   1  29
ATOM     28  C   UNL     1      -0.019   1.526   0.010  0.00  0.00    +0.007 C 
ATOM     29  C   UNL     1       0.002  -0.004   0.002  0.00  0.00    +0.037 C 
ENDBRANCH   1  29
TORSDOF 5
