REMARK  Name = ZINC41346670
REMARK  7 active torsions:
REMARK  status: ('A' for Active; 'I' for Inactive)
REMARK    1  A    between atoms: C_1  and  C_2
REMARK    2  A    between atoms: C_5  and  C_8
REMARK    3  A    between atoms: C_8  and  S_9
REMARK    4  A    between atoms: S_9  and  N_12
REMARK    5  A    between atoms: C_14  and  C_21
REMARK    6  A    between atoms: C_18  and  C_19
REMARK    7  A    between atoms: C_18  and  C_20
REMARK                            x       y       z     vdW  Elec       q    Type
REMARK                         _______ _______ _______ _____ _____    ______ ____
ROOT
ATOM      1  N   UNL     1       1.961  -6.511  -0.118  0.00  0.00    -0.170 NA
ATOM      2  C   UNL     1       2.075  -7.243   1.154  0.00  0.00    +0.146 C 
ATOM      3  C   UNL     1       0.762  -7.995   1.399  0.00  0.00    +0.164 C 
ATOM      4  O   UNL     1       0.444  -8.775   0.244  0.00  0.00    -0.369 OA
ATOM      5  C   UNL     1       0.219  -8.005  -0.939  0.00  0.00    +0.184 C 
ATOM      6  C   UNL     1       1.499  -7.252  -1.302  0.00  0.00    +0.060 C 
ATOM      7  C   UNL     1       2.574  -8.250  -1.737  0.00  0.00    +0.031 C 
ATOM      8  C   UNL     1       1.213  -6.272  -2.443  0.00  0.00    +0.031 C 
ENDROOT
BRANCH   3   9
ATOM      9  C   UNL     1       0.917  -8.902   2.593  0.00  0.00    -0.016 A 
ATOM     10  C   UNL     1       1.555 -10.121   2.457  0.00  0.00    +0.006 A 
ATOM     11  C   UNL     1       1.697 -10.953   3.552  0.00  0.00    +0.002 A 
ATOM     12  C   UNL     1       1.200 -10.566   4.783  0.00  0.00    +0.020 A 
ATOM     13  C   UNL     1       0.561  -9.347   4.919  0.00  0.00    +0.041 A 
ATOM     14  C   UNL     1       0.425  -8.512   3.824  0.00  0.00    +0.026 A 
ATOM     15 CL   UNL     1      -0.062  -8.861   6.465  0.00  0.00    -0.084 Cl
ENDBRANCH   3   9
BRANCH   1  16
ATOM     16  S   UNL     1       2.334  -4.901  -0.211  0.00  0.00    +0.037 S 
ATOM     17  O   UNL     1       2.405  -4.466   1.140  0.00  0.00    -0.158 OA
ATOM     18  O   UNL     1       1.367  -4.355  -1.097  0.00  0.00    -0.158 OA
BRANCH  16  19
ATOM     19  C   UNL     1       3.980  -4.847  -0.972  0.00  0.00    +0.220 C 
BRANCH  19  24
ATOM     20  C   UNL     1       5.686   0.650  -1.491  0.00  0.00    +0.044 C 
ATOM     21  C   UNL     1       5.241  -0.783  -1.356  0.00  0.00    -0.050 A 
ATOM     22  C   UNL     1       5.540  -1.494  -0.208  0.00  0.00    +0.003 A 
ATOM     23  C   UNL     1       5.131  -2.809  -0.084  0.00  0.00    +0.005 A 
ATOM     24  C   UNL     1       4.424  -3.413  -1.107  0.00  0.00    -0.025 A 
ATOM     25  C   UNL     1       4.124  -2.702  -2.254  0.00  0.00    +0.005 A 
ATOM     26  C   UNL     1       4.529  -1.385  -2.376  0.00  0.00    +0.003 A 
ENDBRANCH  19  24
ENDBRANCH  16  19
ENDBRANCH   1  16
TORSDOF 4
