REMARK  Name = ZINC58962470
REMARK  3 active torsions:
REMARK  status: ('A' for Active; 'I' for Inactive)
REMARK    1  A    between atoms: C_1  and  C_2
REMARK    2  A    between atoms: C_7  and  C_8
REMARK    3  A    between atoms: C_13  and  C_14
REMARK                            x       y       z     vdW  Elec       q    Type
REMARK                         _______ _______ _______ _____ _____    ______ ____
ROOT
ATOM      1  C   UNL     1      -1.878   1.290   0.123  0.00  0.00    +0.044 C 
ATOM      2  C   UNL     1      -1.556  -0.182   0.097  0.00  0.00    -0.045 A 
ATOM      3  C   UNL     1      -1.361  -0.817  -1.110  0.00  0.00    +0.033 A 
ATOM      4  C   UNL     1      -1.062  -2.182  -1.133  0.00  0.00    +0.091 A 
ATOM      5  C   UNL     1      -0.966  -2.887   0.074  0.00  0.00    +0.078 A 
ATOM      6  C   UNL     1      -1.166  -2.236   1.279  0.00  0.00    +0.032 A 
ATOM      7  C   UNL     1      -1.455  -0.885   1.287  0.00  0.00    -0.045 A 
ATOM      8  C   UNL     1      -1.667  -0.172   2.598  0.00  0.00    +0.044 C 
ATOM      9  N   UNL     1      -0.660  -4.221  -0.252  0.00  0.00    -0.253 N 
ATOM     10  C   UNL     1      -0.444  -5.361   0.422  0.00  0.00    +0.272 A 
ATOM     11  O   UNL     1      -0.496  -5.390   1.638  0.00  0.00    -0.266 OA
ATOM     12  C   UNL     1      -0.143  -6.571  -0.353  0.00  0.00    +0.081 A 
ATOM     13  C   UNL     1       0.111  -7.834   0.082  0.00  0.00    +0.033 C 
ATOM     14  S   UNL     1      -0.202  -5.936  -2.022  0.00  0.00    -0.046 S 
ATOM     15  C   UNL     1      -0.590  -4.244  -1.625  0.00  0.00    +0.182 A 
ATOM     16  N   UNL     1      -0.822  -3.068  -2.134  0.00  0.00    -0.221 NA
ENDROOT
BRANCH  13  17
ATOM     17  C   UNL     1       0.232  -8.104   1.516  0.00  0.00    +0.041 A 
ATOM     18  C   UNL     1       1.158  -7.416   2.284  0.00  0.00    +0.023 A 
ATOM     19  C   UNL     1       1.250  -7.700   3.668  0.00  0.00    -0.001 A 
ATOM     20  C   UNL     1       2.179  -7.017   4.469  0.00  0.00    +0.010 A 
ATOM     21  C   UNL     1       2.260  -7.296   5.802  0.00  0.00    +0.001 A 
ATOM     22  C   UNL     1       1.432  -8.252   6.376  0.00  0.00    +0.002 A 
ATOM     23  C   UNL     1       0.513  -8.936   5.610  0.00  0.00    +0.026 A 
ATOM     24  C   UNL     1       0.409  -8.669   4.247  0.00  0.00    +0.049 A 
ATOM     25  N   UNL     1      -0.511  -9.352   3.478  0.00  0.00    -0.322 N 
ATOM     26  H   UNL     1      -1.083 -10.016   3.894  0.00  0.00    +0.169 HD
ATOM     27  C   UNL     1      -0.631  -9.105   2.160  0.00  0.00    +0.256 A 
ATOM     28  O   UNL     1      -1.453  -9.714   1.500  0.00  0.00    -0.267 OA
ENDBRANCH  13  17
TORSDOF 1
