REMARK  Name = ZINC61785054
REMARK  5 active torsions:
REMARK  status: ('A' for Active; 'I' for Inactive)
REMARK    1  A    between atoms: C_5  and  N_11
REMARK    2  A    between atoms: C_12  and  C_14
REMARK    3  A    between atoms: N_16  and  C_17
REMARK    4  A    between atoms: C_17  and  C_18
REMARK    5  A    between atoms: C_18  and  C_19
REMARK                            x       y       z     vdW  Elec       q    Type
REMARK                         _______ _______ _______ _____ _____    ______ ____
ROOT
ATOM      1  C   UNL     1       8.458   1.863   0.148  0.00  0.00    +0.299 C 
ATOM      2  O   UNL     1       8.511   3.075   0.154  0.00  0.00    -0.265 OA
ATOM      3  N   UNL     1       9.591   1.138   0.235  0.00  0.00    -0.308 N 
ATOM      4  H   UNL     1       9.548   0.169   0.231  0.00  0.00    +0.149 HD
ENDROOT
BRANCH   1   6
ATOM      5  N   UNL     1       6.004   1.898  -0.044  0.00  0.00    -0.278 N 
ATOM      6  C   UNL     1       7.137   1.173   0.044  0.00  0.00    +0.303 C 
ATOM      7  O   UNL     1       7.083  -0.039   0.038  0.00  0.00    -0.265 OA
ATOM      8  H   UNL     1       6.050   2.865  -0.105  0.00  0.00    +0.155 HD
BRANCH   5  13
ATOM      9  C   UNL     1       0.133   1.093   1.138  0.00  0.00    +0.020 A 
ATOM     10  C   UNL     1       1.312   1.781   1.181  0.00  0.00    +0.011 A 
ATOM     11  C   UNL     1       2.440   1.206   0.565  0.00  0.00    +0.002 A 
ATOM     12  C   UNL     1       3.684   1.855   0.569  0.00  0.00    +0.033 A 
ATOM     13  C   UNL     1       4.763   1.257  -0.045  0.00  0.00    +0.034 A 
ATOM     14  C   UNL     1       4.626   0.012  -0.671  0.00  0.00    +0.025 A 
ATOM     15  C   UNL     1       3.431  -0.635  -0.688  0.00  0.00    +0.030 A 
ATOM     16  C   UNL     1       2.308  -0.055  -0.070  0.00  0.00    +0.071 A 
ATOM     17  N   UNL     1       1.124  -0.675  -0.075  0.00  0.00    -0.255 NA
ATOM     18  C   UNL     1       0.072  -0.142   0.497  0.00  0.00    +0.111 A 
ENDBRANCH   5  13
ENDBRANCH   1   6
BRANCH   3  19
ATOM     19  C   UNL     1      10.886   1.814   0.338  0.00  0.00    +0.105 C 
BRANCH  19  20
ATOM     20  C   UNL     1      12.001   0.769   0.423  0.00  0.00    +0.025 C 
BRANCH  20  21
ATOM     21  C   UNL     1      13.354   1.475   0.530  0.00  0.00    -0.027 C 
ATOM     22  C   UNL     1      13.571   2.352  -0.705  0.00  0.00    +0.010 C 
ATOM     23  C   UNL     1      14.924   3.058  -0.598  0.00  0.00    -0.010 C 
ATOM     24  C   UNL     1      16.039   2.014  -0.513  0.00  0.00    +0.007 C 
ATOM     25  C   UNL     1      15.822   1.137   0.722  0.00  0.00    -0.010 C 
ATOM     26  C   UNL     1      14.469   0.431   0.615  0.00  0.00    +0.010 C 
ATOM     27  C   UNL     1      15.844   2.010   1.978  0.00  0.00    +0.007 C 
ATOM     28  C   UNL     1      14.729   3.054   1.893  0.00  0.00    -0.010 C 
ATOM     29  C   UNL     1      14.946   3.931   0.658  0.00  0.00    +0.007 C 
ATOM     30  C   UNL     1      13.376   2.349   1.786  0.00  0.00    +0.010 C 
ENDBRANCH  20  21
ENDBRANCH  19  20
ENDBRANCH   3  19
TORSDOF 5
