REMARK  Name = ZINC64363970
REMARK  7 active torsions:
REMARK  status: ('A' for Active; 'I' for Inactive)
REMARK    1  A    between atoms: C_1  and  C_2
REMARK    2  A    between atoms: N_8  and  C_9
REMARK    3  A    between atoms: C_9  and  C_10
REMARK    4  A    between atoms: C_15  and  C_16
REMARK    5  A    between atoms: C_16  and  N_17
REMARK    6  A    between atoms: C_18  and  C_20
REMARK    7  A    between atoms: C_20  and  C_21
REMARK                            x       y       z     vdW  Elec       q    Type
REMARK                         _______ _______ _______ _____ _____    ______ ____
ROOT
ATOM      1  N   UNL     1       1.566   2.671   3.316  0.00  0.00    -0.311 N 
ATOM      2  C   UNL     1       1.781   3.844   2.688  0.00  0.00    +0.214 C 
ATOM      3  O   UNL     1       2.536   3.895   1.741  0.00  0.00    -0.276 OA
ATOM      4  H   UNL     1       0.962   2.630   4.074  0.00  0.00    +0.149 HD
ENDROOT
BRANCH   1   5
ATOM      5  C   UNL     1       2.245   1.458   2.855  0.00  0.00    +0.139 C 
BRANCH   5  11
ATOM      6  C   UNL     1       0.627  -0.340   3.499  0.00  0.00    -0.059 A 
ATOM      7  C   UNL     1       0.255  -1.412   4.289  0.00  0.00    +0.002 A 
ATOM      8  C   UNL     1       1.088  -1.846   5.303  0.00  0.00    +0.000 A 
ATOM      9  C   UNL     1       2.294  -1.209   5.527  0.00  0.00    +0.000 A 
ATOM     10  C   UNL     1       2.667  -0.138   4.736  0.00  0.00    +0.005 A 
ATOM     11  C   UNL     1       1.836   0.293   3.720  0.00  0.00    -0.029 A 
BRANCH   6  12
ATOM     12  C   UNL     1      -0.281   0.133   2.394  0.00  0.00    -0.042 C 
BRANCH  12  19
ATOM     13  C   UNL     1      -0.560   1.685   0.071  0.00  0.00    -0.013 C 
ATOM     14  C   UNL     1      -0.622   0.157   0.022  0.00  0.00    -0.071 C 
ATOM     15  C   UNL     1      -0.082  -0.332  -1.324  0.00  0.00    -0.016 C 
ATOM     16  C   UNL     1      -0.147  -1.862  -1.368  0.00  0.00    -0.003 C 
ATOM     17  C   UNL     1       0.642  -2.430  -0.186  0.00  0.00    -0.019 C 
ATOM     18  C   UNL     1       0.076  -1.864   1.118  0.00  0.00    -0.078 C 
ATOM     19  N   UNL     1       0.191  -0.400   1.110  0.00  0.00    +0.384 N 
ATOM     20  H   UNL     1       1.156  -0.140   0.974  0.00  0.00    -0.081 HD
ENDBRANCH  12  19
ENDBRANCH   6  12
ENDBRANCH   5  11
ENDBRANCH   1   5
BRANCH   2  21
ATOM     21  C   UNL     1       1.083   5.092   3.163  0.00  0.00    +0.112 C 
BRANCH  21  22
ATOM     22  C   UNL     1       1.619   6.301   2.393  0.00  0.00    +0.107 C 
ATOM     23  C   UNL     1       3.112   6.385   2.641  0.00  0.00    -0.004 C 
ATOM     24  C   UNL     1       3.590   7.539   3.189  0.00  0.00    -0.007 A 
ATOM     25  C   UNL     1       5.018   7.704   3.462  0.00  0.00    +0.009 A 
ATOM     26  C   UNL     1       5.449   8.870   4.008  0.00  0.00    +0.001 A 
ATOM     27  C   UNL     1       4.561   9.903   4.312  0.00  0.00    +0.002 A 
ATOM     28  C   UNL     1       3.225   9.811   4.083  0.00  0.00    +0.024 A 
ATOM     29  C   UNL     1       2.676   8.645   3.518  0.00  0.00    +0.040 A 
ATOM     30  N   UNL     1       1.363   8.567   3.298  0.00  0.00    -0.284 N 
ATOM     31  C   UNL     1       0.782   7.502   2.774  0.00  0.00    +0.225 C 
ATOM     32  O   UNL     1      -0.421   7.488   2.597  0.00  0.00    -0.275 OA
ATOM     33  H   UNL     1       0.809   9.326   3.534  0.00  0.00    +0.155 HD
ENDBRANCH  21  22
ENDBRANCH   2  21
TORSDOF 6
