REMARK  Name = ZINC10042345
REMARK  11 active torsions:
REMARK  status: ('A' for Active; 'I' for Inactive)
REMARK    1  A    between atoms: C_1  and  C_2
REMARK    2  A    between atoms: C_5  and  C_11
REMARK    3  A    between atoms: C_6  and  N_8
REMARK    4  A    between atoms: C_14  and  C_16
REMARK    5  A    between atoms: N_17  and  N_18
REMARK    6  A    between atoms: C_19  and  C_21
REMARK    7  A    between atoms: C_21  and  C_23
REMARK    8  A    between atoms: C_21  and  N_26
REMARK    9  A    between atoms: C_23  and  C_24
REMARK   10  A    between atoms: C_23  and  C_25
REMARK   11  A    between atoms: C_27  and  C_29
REMARK                            x       y       z     vdW  Elec       q    Type
REMARK                         _______ _______ _______ _____ _____    ______ ____
ROOT
ATOM      1  N   UNL     1      -2.341  -2.981   0.075  0.00  0.00    -0.205 N 
ATOM      2  C   UNL     1      -1.204  -2.269   0.201  0.00  0.00    +0.253 C 
ATOM      3  O   UNL     1      -0.162  -2.832   0.443  0.00  0.00    -0.272 OA
ATOM      4  H   UNL     1      -3.163  -2.539  -0.191  0.00  0.00    +0.177 HD
ENDROOT
BRANCH   1   6
ATOM      5  C   UNL     1      -3.458  -4.950   0.183  0.00  0.00    +0.176 C 
ATOM      6  N   UNL     1      -2.337  -4.250   0.307  0.00  0.00    -0.185 NA
BRANCH   5  10
ATOM      7  C   UNL     1      -2.768  -8.339   0.956  0.00  0.00    +0.138 A 
ATOM      8  C   UNL     1      -4.151  -8.458   0.666  0.00  0.00    +0.050 A 
ATOM      9  C   UNL     1      -4.609  -7.222   0.344  0.00  0.00    +0.051 A 
ATOM     10  C   UNL     1      -3.454  -6.316   0.433  0.00  0.00    +0.148 A 
ATOM     11  O   UNL     1      -2.389  -7.058   0.808  0.00  0.00    -0.454 OA
BRANCH   7  16
ATOM     12  C   UNL     1       0.644 -12.616   2.510  0.00  0.00    +0.044 C 
ATOM     13  C   UNL     1      -0.260 -11.483   2.098  0.00  0.00    -0.048 A 
ATOM     14  C   UNL     1      -1.470 -11.295   2.752  0.00  0.00    +0.004 A 
ATOM     15  C   UNL     1      -2.295 -10.268   2.390  0.00  0.00    +0.014 A 
ATOM     16  C   UNL     1      -1.919  -9.405   1.343  0.00  0.00    +0.047 A 
ATOM     17  C   UNL     1      -0.689  -9.605   0.687  0.00  0.00    +0.137 A 
ATOM     18  C   UNL     1       0.123 -10.636   1.069  0.00  0.00    +0.036 A 
BRANCH  17  19
ATOM     19  N   UNL     1      -0.277  -8.703  -0.411  0.00  0.00    +0.057 N 
ATOM     20  O   UNL     1       0.874  -8.892  -1.023  0.00  0.00    -0.126 OA
ATOM     21  O   UNL     1      -1.061  -7.710  -0.777  0.00  0.00    -0.126 OA
ENDBRANCH  17  19
ENDBRANCH   7  16
ENDBRANCH   5  10
ENDBRANCH   1   6
BRANCH   2  22
ATOM     22  C   UNL     1      -1.230  -0.771   0.041  0.00  0.00    +0.163 C 
BRANCH  22  23
ATOM     23  N   UNL     1      -0.151  -0.176   0.833  0.00  0.00    -0.300 N 
ATOM     24  C   UNL     1      -0.254   1.098   1.263  0.00  0.00    +0.245 C 
ATOM     25  O   UNL     1      -1.240   1.754   0.988  0.00  0.00    -0.270 OA
ATOM     26  H   UNL     1       0.637  -0.698   1.049  0.00  0.00    +0.150 HD
BRANCH  24  27
ATOM     27  C   UNL     1       0.835   1.698   2.062  0.00  0.00    +0.038 A 
ATOM     28  C   UNL     1       0.731   3.017   2.509  0.00  0.00    +0.013 A 
ATOM     29  C   UNL     1       1.750   3.572   3.255  0.00  0.00    +0.002 A 
ATOM     30  C   UNL     1       2.873   2.825   3.562  0.00  0.00    +0.020 A 
ATOM     31  C   UNL     1       2.983   1.517   3.122  0.00  0.00    +0.042 A 
ATOM     32  C   UNL     1       1.967   0.948   2.379  0.00  0.00    +0.033 A 
ATOM     33 CL   UNL     1       4.396   0.588   3.512  0.00  0.00    -0.084 Cl
ENDBRANCH  24  27
ENDBRANCH  22  23
BRANCH  22  34
ATOM     34  C   UNL     1      -1.037  -0.412  -1.434  0.00  0.00    +0.012 C 
ATOM     35  C   UNL     1      -2.191  -0.992  -2.255  0.00  0.00    +0.009 C 
ATOM     36  C   UNL     1      -1.014   1.109  -1.591  0.00  0.00    +0.009 C 
ENDBRANCH  22  34
ENDBRANCH   2  22
TORSDOF 8
