REMARK  Name = ZINC01054436
REMARK  5 active torsions:
REMARK  status: ('A' for Active; 'I' for Inactive)
REMARK    1  A    between atoms: C_4  and  C_8
REMARK    2  A    between atoms: N_9  and  N_10
REMARK    3  A    between atoms: C_11  and  C_13
REMARK    4  A    between atoms: C_13  and  O_14
REMARK    5  A    between atoms: O_14  and  C_15
REMARK                            x       y       z     vdW  Elec       q    Type
REMARK                         _______ _______ _______ _____ _____    ______ ____
ROOT
ATOM      1  N   UNL     1       3.268   6.434   0.005  0.00  0.00    -0.204 N 
ATOM      2  C   UNL     1       2.209   5.601   0.011  0.00  0.00    +0.270 C 
ATOM      3  O   UNL     1       1.083   6.051   0.024  0.00  0.00    -0.270 OA
ATOM      4  H   UNL     1       4.169   6.074  -0.005  0.00  0.00    +0.177 HD
ENDROOT
BRANCH   1   6
ATOM      5  C   UNL     1       4.088   8.624   0.009  0.00  0.00    +0.141 C 
ATOM      6  N   UNL     1       3.068   7.821   0.015  0.00  0.00    -0.188 NA
BRANCH   5  10
ATOM      7  C   UNL     1       3.481  12.826   0.037  0.00  0.00    +0.003 A 
ATOM      8  C   UNL     1       4.767  12.316   0.022  0.00  0.00    +0.021 A 
ATOM      9  C   UNL     1       4.973  10.951   0.013  0.00  0.00    +0.051 A 
ATOM     10  C   UNL     1       3.877  10.083   0.019  0.00  0.00    +0.031 A 
ATOM     11  C   UNL     1       2.581  10.606   0.029  0.00  0.00    +0.051 A 
ATOM     12  C   UNL     1       2.392  11.973   0.042  0.00  0.00    +0.021 A 
ATOM     13 CL   UNL     1       1.212   9.538   0.029  0.00  0.00    -0.083 Cl
ATOM     14 CL   UNL     1       6.588  10.314  -0.005  0.00  0.00    -0.083 Cl
ENDBRANCH   5  10
ENDBRANCH   1   6
BRANCH   2  15
ATOM     15  C   UNL     1       2.425   4.109   0.001  0.00  0.00    +0.326 C 
BRANCH  15  16
ATOM     16  O   UNL     1       1.159   3.445   0.009  0.00  0.00    -0.483 OA
BRANCH  16  17
ATOM     17  C   UNL     1       1.176   2.086   0.002  0.00  0.00    +0.121 A 
ATOM     18  C   UNL     1      -0.017   1.377   0.010  0.00  0.00    +0.047 A 
ATOM     19  C   UNL     1       0.002  -0.004   0.002  0.00  0.00    +0.019 A 
ATOM     20  C   UNL     1       1.209  -0.680  -0.013  0.00  0.00    +0.018 A 
ATOM     21  C   UNL     1       2.399   0.025  -0.020  0.00  0.00    +0.019 A 
ATOM     22  C   UNL     1       2.385   1.406  -0.013  0.00  0.00    +0.047 A 
ATOM     23 BR   UNL     1       1.232  -2.571  -0.022  0.00  0.00    -0.050 Br
ENDBRANCH  16  17
ENDBRANCH  15  16
ENDBRANCH   2  15
TORSDOF 5
