REMARK  Name = ZINC02107667
REMARK  10 active torsions:
REMARK  status: ('A' for Active; 'I' for Inactive)
REMARK    1  A    between atoms: C_1  and  C_2
REMARK    2  A    between atoms: C_2  and  C_3
REMARK    3  A    between atoms: C_3  and  C_5
REMARK    4  A    between atoms: C_3  and  O_6
REMARK    5  A    between atoms: O_6  and  C_7
REMARK    6  A    between atoms: C_7  and  C_9
REMARK    7  A    between atoms: C_13  and  N_14
REMARK    8  A    between atoms: C_15  and  C_17
REMARK    9  A    between atoms: C_23  and  C_29
REMARK   10  A    between atoms: C_25  and  C_26
REMARK                            x       y       z     vdW  Elec       q    Type
REMARK                         _______ _______ _______ _____ _____    ______ ____
ROOT
ATOM      1  N   UNL     1      -4.224   2.411  -1.584  0.00  0.00    -0.275 N 
ATOM      2  C   UNL     1      -5.357   3.135  -1.673  0.00  0.00    +0.254 C 
ATOM      3  O   UNL     1      -5.836   3.387  -2.763  0.00  0.00    -0.270 OA
ATOM      4  H   UNL     1      -3.843   2.211  -0.715  0.00  0.00    +0.156 HD
ENDROOT
BRANCH   1   9
ATOM      5  C   UNL     1      -2.442   1.200  -2.848  0.00  0.00    +0.091 A 
ATOM      6  C   UNL     1      -1.996   0.851  -4.186  0.00  0.00    -0.021 A 
ATOM      7  C   UNL     1      -2.783   1.298  -5.189  0.00  0.00    -0.004 A 
ATOM      8  S   UNL     1      -4.089   2.180  -4.383  0.00  0.00    -0.077 S 
ATOM      9  C   UNL     1      -3.604   1.953  -2.735  0.00  0.00    +0.087 A 
ATOM     10  C   UNL     1      -2.578   1.091  -6.658  0.00  0.00    +0.043 C 
ATOM     11  C   UNL     1      -1.139   0.604  -6.882  0.00  0.00    +0.005 C 
ATOM     12  C   UNL     1      -0.844  -0.531  -5.898  0.00  0.00    +0.005 C 
ATOM     13  C   UNL     1      -0.749   0.025  -4.476  0.00  0.00    +0.037 C 
BRANCH   5  14
ATOM     14  C   UNL     1      -1.692   0.779  -1.663  0.00  0.00    +0.342 C 
ATOM     15  O   UNL     1      -1.949  -0.281  -1.125  0.00  0.00    -0.245 OA
BRANCH  14  16
ATOM     16  O   UNL     1      -0.715   1.567  -1.168  0.00  0.00    -0.458 OA
BRANCH  16  17
ATOM     17  C   UNL     1      -0.013   1.086   0.008  0.00  0.00    +0.173 C 
ATOM     18  C   UNL     1      -0.729   1.579   1.267  0.00  0.00    +0.052 C 
BRANCH  17  20
ATOM     19  C   UNL     1       2.176   1.022  -1.195  0.00  0.00    +0.007 C 
ATOM     20  C   UNL     1       1.423   1.615  -0.003  0.00  0.00    +0.041 C 
ENDBRANCH  17  20
ENDBRANCH  16  17
ENDBRANCH  14  16
ENDBRANCH   5  14
ENDBRANCH   1   9
BRANCH   2  21
ATOM     21  C   UNL     1      -6.013   3.620  -0.456  0.00  0.00    +0.101 A 
ATOM     22  C   UNL     1      -5.584   3.412   0.868  0.00  0.00    +0.150 A 
ATOM     23  N   UNL     1      -6.426   3.995   1.679  0.00  0.00    -0.172 NA
ATOM     24  N   UNL     1      -7.441   4.610   0.939  0.00  0.00    -0.212 N 
ATOM     25  C   UNL     1      -7.193   4.389  -0.387  0.00  0.00    +0.169 A 
ATOM     26  N   UNL     1      -8.013   4.860  -1.325  0.00  0.00    -0.227 NA
ATOM     27  C   UNL     1      -9.083   5.566  -0.996  0.00  0.00    +0.075 A 
ATOM     28  C   UNL     1      -9.368   5.819   0.362  0.00  0.00    +0.057 A 
ATOM     29  C   UNL     1      -8.537   5.333   1.314  0.00  0.00    +0.112 A 
BRANCH  27  30
ATOM     30  C   UNL     1      -9.981   6.088  -2.052  0.00  0.00    +0.000 A 
ATOM     31  C   UNL     1     -11.113   6.827  -1.707  0.00  0.00    +0.010 A 
ATOM     32  C   UNL     1     -11.943   7.314  -2.695  0.00  0.00    +0.001 A 
ATOM     33  C   UNL     1     -11.660   7.064  -4.026  0.00  0.00    +0.000 A 
ATOM     34  C   UNL     1     -10.541   6.328  -4.375  0.00  0.00    +0.001 A 
ATOM     35  C   UNL     1      -9.701   5.839  -3.396  0.00  0.00    +0.010 A 
ENDBRANCH  27  30
BRANCH  29  36
ATOM     36  C   UNL     1      -8.816   5.589   2.773  0.00  0.00    +0.390 C 
ATOM     37  F   UNL     1     -10.197   5.702   2.970  0.00  0.00    -0.202 F 
ATOM     38  F   UNL     1      -8.322   4.526   3.536  0.00  0.00    -0.202 F 
ENDBRANCH  29  36
ENDBRANCH   2  21
TORSDOF 8
