REMARK  Name = ZINC47146938
REMARK  6 active torsions:
REMARK  status: ('A' for Active; 'I' for Inactive)
REMARK    1  A    between atoms: C_1  and  C_2
REMARK    2  A    between atoms: C_6  and  C_8
REMARK    3  A    between atoms: C_8  and  O_9
REMARK    4  A    between atoms: O_9  and  C_10
REMARK    5  A    between atoms: C_15  and  C_16
REMARK    6  A    between atoms: N_32  and  C_35
REMARK                            x       y       z     vdW  Elec       q    Type
REMARK                         _______ _______ _______ _____ _____    ______ ____
ROOT
ATOM      1  C   UNL     1       4.072  -3.518   3.710  0.00  0.00    +0.075 C 
ATOM      2  C   UNL     1       4.754  -2.450   4.486  0.00  0.00    +0.033 A 
ATOM      3  C   UNL     1       6.066  -2.304   4.744  0.00  0.00    +0.088 A 
ATOM      4  N   UNL     1       6.392  -1.181   5.471  0.00  0.00    -0.311 N 
ATOM      5  H   UNL     1       7.320  -0.993   5.682  0.00  0.00    +0.170 HD
ATOM      6  C   UNL     1       5.425  -0.345   5.890  0.00  0.00    +0.289 A 
ATOM      7  O   UNL     1       5.540   0.678   6.541  0.00  0.00    -0.260 OA
ATOM      8  S   UNL     1       4.019  -1.052   5.296  0.00  0.00    -0.030 S 
ATOM      9  S   UNL     1       7.252  -3.502   4.193  0.00  0.00    -0.093 S 
ATOM     10  C   UNL     1       6.354  -4.452   2.924  0.00  0.00    +0.152 C 
ATOM     11  C   UNL     1       4.908  -4.694   3.372  0.00  0.00    +0.110 C 
ATOM     12  C   UNL     1       5.029  -5.814   4.358  0.00  0.00    +0.232 C 
ATOM     13  O   UNL     1       4.285  -6.055   5.284  0.00  0.00    -0.274 OA
ATOM     14  N   UNL     1       6.139  -6.503   4.002  0.00  0.00    -0.209 N 
ATOM     15  C   UNL     1       6.877  -5.894   3.049  0.00  0.00    +0.240 C 
ATOM     16  O   UNL     1       7.786  -6.387   2.417  0.00  0.00    -0.274 OA
ENDROOT
BRANCH   1  22
ATOM     17  C   UNL     1       1.708  -4.339   3.860  0.00  0.00    +0.125 A 
ATOM     18  C   UNL     1       0.619  -4.784   4.596  0.00  0.00    +0.046 A 
ATOM     19  C   UNL     1       0.709  -4.880   5.971  0.00  0.00    +0.004 A 
ATOM     20  C   UNL     1       1.883  -4.533   6.614  0.00  0.00    +0.001 A 
ATOM     21  C   UNL     1       2.969  -4.089   5.883  0.00  0.00    +0.008 A 
ATOM     22  C   UNL     1       2.886  -3.997   4.507  0.00  0.00    +0.003 A 
BRANCH  17  23
ATOM     23  O   UNL     1       1.621  -4.244   2.507  0.00  0.00    -0.487 OA
BRANCH  23  24
ATOM     24  C   UNL     1       0.377  -4.613   1.909  0.00  0.00    +0.264 C 
BRANCH  24  30
ATOM     25  C   UNL     1      -0.166  -1.769  -2.173  0.00  0.00    +0.044 C 
ATOM     26  C   UNL     1       0.209  -3.083  -1.539  0.00  0.00    -0.050 A 
ATOM     27  C   UNL     1       0.637  -4.135  -2.328  0.00  0.00    +0.003 A 
ATOM     28  C   UNL     1       0.980  -5.340  -1.746  0.00  0.00    +0.001 A 
ATOM     29  C   UNL     1       0.896  -5.495  -0.375  0.00  0.00    +0.007 A 
ATOM     30  C   UNL     1       0.469  -4.444   0.414  0.00  0.00    -0.010 A 
ATOM     31  C   UNL     1       0.130  -3.236  -0.167  0.00  0.00    +0.010 A 
ENDBRANCH  24  30
ENDBRANCH  23  24
ENDBRANCH  17  23
ENDBRANCH   1  22
BRANCH  14  32
ATOM     32  C   UNL     1       6.484  -7.740   4.565  0.00  0.00    +0.044 A 
ATOM     33  C   UNL     1       5.670  -8.317   5.530  0.00  0.00    +0.024 A 
ATOM     34  C   UNL     1       6.013  -9.535   6.082  0.00  0.00    +0.002 A 
ATOM     35  C   UNL     1       7.166 -10.181   5.675  0.00  0.00    +0.000 A 
ATOM     36  C   UNL     1       7.979  -9.609   4.713  0.00  0.00    +0.002 A 
ATOM     37  C   UNL     1       7.638  -8.393   4.153  0.00  0.00    +0.024 A 
ENDBRANCH  14  32
TORSDOF 5
