REMARK  Name = ZINC09264251
REMARK  4 active torsions:
REMARK  status: ('A' for Active; 'I' for Inactive)
REMARK    1  A    between atoms: C_1  and  C_2
REMARK    2  A    between atoms: C_5  and  N_8
REMARK    3  A    between atoms: C_21  and  C_23
REMARK    4  A    between atoms: C_33  and  C_36
REMARK                            x       y       z     vdW  Elec       q    Type
REMARK                         _______ _______ _______ _____ _____    ______ ____
ROOT
ATOM      1  N   UNL     1      -1.293   1.643   0.088  0.00  0.00    -0.269 N 
ATOM      2  C   UNL     1      -0.065   1.091   0.043  0.00  0.00    +0.312 C 
ATOM      3  O   UNL     1       0.057  -0.119   0.013  0.00  0.00    -0.252 OA
ATOM      4  N   UNL     1       1.029   1.879   0.024  0.00  0.00    -0.242 N 
ATOM      5  C   UNL     1       0.877   3.266   0.058  0.00  0.00    +0.060 A 
ATOM      6  C   UNL     1       0.335   3.909   1.159  0.00  0.00    +0.025 A 
ATOM      7  C   UNL     1       0.249   5.290   1.165  0.00  0.00    +0.002 A 
ATOM      8  C   UNL     1       0.702   6.025   0.084  0.00  0.00    +0.002 A 
ATOM      9  C   UNL     1       1.228   5.385  -1.025  0.00  0.00    +0.025 A 
ATOM     10  C   UNL     1       1.294   4.002  -1.041  0.00  0.00    +0.053 A 
ATOM     11  N   UNL     1       1.702   3.292  -2.163  0.00  0.00    -0.316 N 
ATOM     12  C   UNL     1       2.794   2.488  -2.220  0.00  0.00    +0.017 C 
ATOM     13  C   UNL     1       3.118   1.570  -1.293  0.00  0.00    +0.037 C 
ATOM     14  C   UNL     1       2.343   1.274  -0.025  0.00  0.00    +0.148 C 
ATOM     15  C   UNL     1       4.285   0.784  -1.446  0.00  0.00    +0.163 C 
ATOM     16  O   UNL     1       4.541  -0.055  -0.605  0.00  0.00    -0.292 OA
ATOM     17  C   UNL     1       5.216   0.949  -2.609  0.00  0.00    +0.091 C 
ATOM     18  C   UNL     1       5.124   2.396  -3.108  0.00  0.00    +0.068 C 
ATOM     19  C   UNL     1       3.662   2.677  -3.452  0.00  0.00    +0.063 C 
ATOM     20  H   UNL     1      -1.389   2.604   0.180  0.00  0.00    +0.156 HD
ATOM     21  H   UNL     1       1.166   3.377  -2.967  0.00  0.00    +0.152 HD
ENDROOT
BRANCH   1  26
ATOM     22  C   UNL     1      -5.900  -1.649  -0.255  0.00  0.00    +0.044 C 
ATOM     23  C   UNL     1      -4.676  -0.775  -0.164  0.00  0.00    -0.050 A 
ATOM     24  C   UNL     1      -3.550  -1.230   0.498  0.00  0.00    +0.005 A 
ATOM     25  C   UNL     1      -2.427  -0.431   0.583  0.00  0.00    +0.023 A 
ATOM     26  C   UNL     1      -2.429   0.831   0.004  0.00  0.00    +0.035 A 
ATOM     27  C   UNL     1      -3.563   1.288  -0.655  0.00  0.00    +0.023 A 
ATOM     28  C   UNL     1      -4.681   0.481  -0.742  0.00  0.00    +0.005 A 
ENDBRANCH   1  26
BRANCH  14  29
ATOM     29  C   UNL     1       3.141   1.769   1.153  0.00  0.00    -0.022 A 
ATOM     30  C   UNL     1       3.374   3.123   1.310  0.00  0.00    +0.007 A 
ATOM     31  C   UNL     1       4.101   3.578   2.394  0.00  0.00    +0.020 A 
ATOM     32  C   UNL     1       4.604   2.678   3.316  0.00  0.00    +0.041 A 
ATOM     33  C   UNL     1       4.376   1.323   3.155  0.00  0.00    +0.020 A 
ATOM     34  C   UNL     1       3.644   0.869   2.074  0.00  0.00    +0.007 A 
ATOM     35 CL   UNL     1       5.523   3.248   4.674  0.00  0.00    -0.084 Cl
ENDBRANCH  14  29
BRANCH  18  36
ATOM     36  C   UNL     1       5.981   2.570  -4.335  0.00  0.00    +0.109 A 
ATOM     37  C   UNL     1       6.995   3.443  -4.470  0.00  0.00    +0.045 A 
ATOM     38  C   UNL     1       7.516   3.268  -5.772  0.00  0.00    +0.041 A 
ATOM     39  C   UNL     1       6.789   2.299  -6.356  0.00  0.00    +0.195 A 
ATOM     40  O   UNL     1       5.864   1.876  -5.479  0.00  0.00    -0.468 OA
ENDBRANCH  18  36
TORSDOF 3
