REMARK  Name = ZINC12984084
REMARK  9 active torsions:
REMARK  status: ('A' for Active; 'I' for Inactive)
REMARK    1  A    between atoms: C_1  and  C_2
REMARK    2  A    between atoms: C_2  and  C_4
REMARK    3  A    between atoms: C_2  and  O_17
REMARK    4  A    between atoms: N_6  and  C_7
REMARK    5  A    between atoms: C_10  and  S_13
REMARK    6  A    between atoms: S_13  and  N_16
REMARK    7  A    between atoms: O_17  and  C_18
REMARK    8  A    between atoms: C_18  and  C_20
REMARK    9  A    between atoms: N_25  and  C_27
REMARK                            x       y       z     vdW  Elec       q    Type
REMARK                         _______ _______ _______ _____ _____    ______ ____
ROOT
ATOM      1  C   UNL     1      -4.025   5.204   2.210  0.00  0.00    +0.062 C 
ATOM      2  C   UNL     1      -3.469   5.789   0.910  0.00  0.00    +0.259 C 
ENDROOT
BRANCH   2   3
ATOM      3  C   UNL     1      -4.596   6.378   0.102  0.00  0.00    +0.258 C 
ATOM      4  O   UNL     1      -4.889   5.895  -0.971  0.00  0.00    -0.271 OA
ATOM      5  N   UNL     1      -5.278   7.441   0.571  0.00  0.00    -0.282 N 
ATOM      6  H   UNL     1      -5.088   7.786   1.458  0.00  0.00    +0.155 HD
BRANCH   5   7
ATOM      7  C   UNL     1      -6.259   8.048  -0.220  0.00  0.00    +0.034 A 
ATOM      8  C   UNL     1      -6.451   9.422  -0.159  0.00  0.00    +0.025 A 
ATOM      9  C   UNL     1      -7.417  10.019  -0.946  0.00  0.00    +0.030 A 
ATOM     10  C   UNL     1      -8.200   9.248  -1.786  0.00  0.00    +0.105 A 
ATOM     11  C   UNL     1      -8.015   7.879  -1.845  0.00  0.00    +0.030 A 
ATOM     12  C   UNL     1      -7.047   7.277  -1.064  0.00  0.00    +0.025 A 
BRANCH  10  13
ATOM     13  S   UNL     1      -9.435  10.012  -2.783  0.00  0.00    +0.056 S 
ATOM     14  O   UNL     1      -9.041  11.367  -2.951  0.00  0.00    -0.153 OA
ATOM     15  O   UNL     1      -9.663   9.143  -3.884  0.00  0.00    -0.153 OA
BRANCH  13  16
ATOM     16  N   UNL     1     -10.835  10.033  -1.899  0.00  0.00    -0.204 NA
ATOM     17  H   UNL     1     -11.483  10.741  -2.034  0.00  0.00    +0.144 HD
ATOM     18  H   UNL     1     -11.006   9.336  -1.246  0.00  0.00    +0.144 HD
ENDBRANCH  13  16
ENDBRANCH  10  13
ENDBRANCH   5   7
ENDBRANCH   2   3
BRANCH   2  19
ATOM     19  O   UNL     1      -2.822   4.738   0.145  0.00  0.00    -0.452 OA
BRANCH  19  20
ATOM     20  C   UNL     1      -1.515   4.535   0.373  0.00  0.00    +0.313 C 
ATOM     21  O   UNL     1      -0.931   5.212   1.186  0.00  0.00    -0.250 OA
BRANCH  20  22
ATOM     22  C   UNL     1      -0.776   3.462  -0.384  0.00  0.00    +0.124 C 
ATOM     23  C   UNL     1      -1.271   2.055   0.019  0.00  0.00    +0.112 C 
ATOM     24  C   UNL     1      -0.020   1.203   0.012  0.00  0.00    +0.221 C 
ATOM     25  O   UNL     1      -0.006  -0.009   0.000  0.00  0.00    -0.275 OA
ATOM     26  N   UNL     1       1.072   1.987   0.016  0.00  0.00    -0.268 N 
ATOM     27  C   UNL     1       0.709   3.408   0.040  0.00  0.00    +0.129 C 
BRANCH  26  28
ATOM     28  C   UNL     1       2.388   1.507  -0.001  0.00  0.00    +0.072 A 
ATOM     29  C   UNL     1       3.032   1.287  -1.211  0.00  0.00    +0.026 A 
ATOM     30  C   UNL     1       4.330   0.815  -1.225  0.00  0.00    +0.002 A 
ATOM     31  C   UNL     1       4.989   0.562  -0.036  0.00  0.00    +0.003 A 
ATOM     32  C   UNL     1       4.352   0.780   1.171  0.00  0.00    +0.040 A 
ATOM     33  C   UNL     1       3.054   1.256   1.193  0.00  0.00    +0.145 A 
ATOM     34  F   UNL     1       2.433   1.474   2.373  0.00  0.00    -0.204 F 
ENDBRANCH  26  28
ENDBRANCH  20  22
ENDBRANCH  19  20
ENDBRANCH   2  19
TORSDOF 8
