REMARK  Name = ZINC36310856
REMARK  6 active torsions:
REMARK  status: ('A' for Active; 'I' for Inactive)
REMARK    1  A    between atoms: C_1  and  C_2
REMARK    2  A    between atoms: C_2  and  C_3
REMARK    3  A    between atoms: C_2  and  N_4
REMARK    4  A    between atoms: N_10  and  C_13
REMARK    5  A    between atoms: C_13  and  C_15
REMARK    6  A    between atoms: C_13  and  C_20
REMARK                            x       y       z     vdW  Elec       q    Type
REMARK                         _______ _______ _______ _____ _____    ______ ____
ROOT
ATOM      1  C   UNL     1      -5.921  -4.282   1.672  0.00  0.00    +0.146 C 
ENDROOT
BRANCH   1   2
ATOM      2  C   UNL     1      -7.135  -3.452   2.000  0.00  0.00    +0.233 C 
ATOM      3  O   UNL     1      -7.846  -3.040   1.109  0.00  0.00    -0.274 OA
ATOM      4  N   UNL     1      -7.431  -3.168   3.284  0.00  0.00    -0.296 N 
ATOM      5  C   UNL     1      -8.668  -2.456   3.645  0.00  0.00    +0.113 C 
ATOM      6  C   UNL     1      -9.528  -3.403   4.480  0.00  0.00    +0.054 C 
ATOM      7  C   UNL     1      -8.709  -4.059   5.561  0.00  0.00    -0.041 A 
ATOM      8  C   UNL     1      -9.388  -4.598   6.647  0.00  0.00    +0.004 A 
ATOM      9  C   UNL     1      -8.700  -5.221   7.666  0.00  0.00    +0.000 A 
ATOM     10  C   UNL     1      -7.321  -5.313   7.609  0.00  0.00    +0.000 A 
ATOM     11  C   UNL     1      -6.644  -4.777   6.534  0.00  0.00    +0.005 A 
ATOM     12  C   UNL     1      -7.336  -4.144   5.510  0.00  0.00    -0.027 A 
ATOM     13  C   UNL     1      -6.536  -3.561   4.378  0.00  0.00    +0.143 C 
ENDBRANCH   1   2
BRANCH   1  20
ATOM     14  N   UNL     1      -1.911  -0.956  -1.572  0.00  0.00    -0.297 N 
ATOM     15  C   UNL     1      -2.202  -2.264  -1.724  0.00  0.00    +0.302 C 
ATOM     16  O   UNL     1      -1.395  -3.009  -2.246  0.00  0.00    -0.253 OA
ATOM     17  N   UNL     1      -3.387  -2.745  -1.299  0.00  0.00    -0.283 N 
ATOM     18  C   UNL     1      -4.423  -1.843  -0.772  0.00  0.00    +0.124 C 
ATOM     19  C   UNL     1      -4.891  -2.380   0.584  0.00  0.00    +0.104 C 
ATOM     20  N   UNL     1      -5.305  -3.782   0.436  0.00  0.00    -0.288 NA
ATOM     21  C   UNL     1      -4.176  -4.630   0.029  0.00  0.00    +0.104 C 
ATOM     22  C   UNL     1      -3.681  -4.185  -1.356  0.00  0.00    +0.124 C 
ATOM     23  H   UNL     1      -2.583  -0.347  -1.226  0.00  0.00    +0.150 HD
BRANCH  14  25
ATOM     24  C   UNL     1      -0.672   1.035  -2.265  0.00  0.00    +0.027 C 
ATOM     25  C   UNL     1      -0.582  -0.455  -1.928  0.00  0.00    +0.068 C 
ATOM     26  C   UNL     1       0.371  -0.654  -0.747  0.00  0.00    +0.027 C 
ENDBRANCH  14  25
ENDBRANCH   1  20
BRANCH   1  27
ATOM     27  C   UNL     1      -6.338  -5.742   1.480  0.00  0.00    +0.015 C 
ATOM     28  C   UNL     1      -7.316  -5.859   0.293  0.00  0.00    +0.005 C 
ATOM     29  C   UNL     1      -8.326  -6.946   0.740  0.00  0.00    +0.000 C 
ATOM     30  C   UNL     1      -8.503  -6.648   2.250  0.00  0.00    +0.000 C 
ATOM     31  C   UNL     1      -7.092  -6.243   2.724  0.00  0.00    +0.005 C 
ENDBRANCH   1  27
TORSDOF 4
