REMARK  Name = ZINC39681019
REMARK  7 active torsions:
REMARK  status: ('A' for Active; 'I' for Inactive)
REMARK    1  A    between atoms: C_1  and  C_2
REMARK    2  A    between atoms: C_2  and  C_4
REMARK    3  A    between atoms: C_2  and  N_10
REMARK    4  A    between atoms: C_11  and  C_13
REMARK    5  A    between atoms: C_24  and  C_26
REMARK    6  A    between atoms: C_28  and  O_33
REMARK    7  A    between atoms: O_33  and  C_34
REMARK                            x       y       z     vdW  Elec       q    Type
REMARK                         _______ _______ _______ _____ _____    ______ ____
ROOT
ATOM      1  C   UNL     1       1.123  -0.816   4.042  0.00  0.00    +0.100 C 
ATOM      2  C   UNL     1       1.423  -2.277   3.638  0.00  0.00    +0.121 C 
ATOM      3  N   UNL     1       1.118  -3.070   4.852  0.00  0.00    -0.296 N 
ATOM      4  C   UNL     1      -0.100  -2.435   5.411  0.00  0.00    +0.115 C 
ATOM      5  C   UNL     1       0.123  -0.924   5.205  0.00  0.00    -0.004 C 
ATOM      6  C   UNL     1      -1.192  -0.243   4.837  0.00  0.00    -0.010 C 
ATOM      7  C   UNL     1      -2.149  -0.313   6.030  0.00  0.00    -0.082 C 
ATOM      8  N   UNL     1      -1.539   0.350   7.188  0.00  0.00    +0.379 N 
ATOM      9  C   UNL     1      -0.324  -0.367   7.594  0.00  0.00    -0.082 C 
ATOM     10  C   UNL     1       0.710  -0.299   6.467  0.00  0.00    -0.010 C 
ATOM     11  C   UNL     1       1.794  -4.129   5.338  0.00  0.00    +0.248 C 
ATOM     12  O   UNL     1       1.363  -4.738   6.298  0.00  0.00    -0.270 OA
ATOM     13  H   UNL     1      -1.302   1.300   6.944  0.00  0.00    -0.086 HD
ATOM     14  H   UNL     1      -2.196   0.357   7.955  0.00  0.00    -0.086 HD
ENDROOT
BRANCH  11  15
ATOM     15  C   UNL     1       3.062  -4.550   4.705  0.00  0.00    +0.054 A 
ATOM     16  C   UNL     1       3.220  -4.452   3.322  0.00  0.00    +0.059 A 
ATOM     17  C   UNL     1       4.410  -4.848   2.736  0.00  0.00    +0.121 A 
ATOM     18  C   UNL     1       5.443  -5.341   3.523  0.00  0.00    +0.047 A 
ATOM     19  C   UNL     1       5.289  -5.439   4.893  0.00  0.00    +0.019 A 
ATOM     20  C   UNL     1       4.108  -5.042   5.489  0.00  0.00    +0.030 A 
ATOM     21 BR   UNL     1       3.905  -5.171   7.365  0.00  0.00    -0.050 Br
BRANCH  17  22
ATOM     22  O   UNL     1       4.568  -4.755   1.389  0.00  0.00    -0.495 OA
ATOM     23  C   UNL     1       5.822  -5.181   0.852  0.00  0.00    +0.277 C 
ENDBRANCH  17  22
ENDBRANCH  11  15
BRANCH   1  25
ATOM     24  N   UNL     1       0.693   1.261   2.768  0.00  0.00    -0.308 N 
ATOM     25  C   UNL     1       0.506  -0.069   2.887  0.00  0.00    +0.219 C 
ATOM     26  O   UNL     1      -0.158  -0.664   2.065  0.00  0.00    -0.275 OA
ATOM     27  H   UNL     1       1.224   1.737   3.426  0.00  0.00    +0.149 HD
BRANCH  24  29
ATOM     28  C   UNL     1      -1.347   2.369   1.996  0.00  0.00    +0.033 C 
ATOM     29  C   UNL     1       0.093   1.987   1.646  0.00  0.00    +0.100 C 
BRANCH  29  30
ATOM     30  C   UNL     1       0.891   3.236   1.372  0.00  0.00    -0.025 A 
ATOM     31  C   UNL     1       1.396   3.998   2.414  0.00  0.00    +0.025 A 
ATOM     32  C   UNL     1       2.123   5.137   2.125  0.00  0.00    +0.111 A 
ATOM     33  N   UNL     1       2.338   5.501   0.875  0.00  0.00    -0.263 NA
ATOM     34  C   UNL     1       1.873   4.801  -0.141  0.00  0.00    +0.111 A 
ATOM     35  C   UNL     1       1.142   3.647   0.072  0.00  0.00    +0.025 A 
ENDBRANCH  29  30
ENDBRANCH  24  29
ENDBRANCH   1  25
TORSDOF 5
