REMARK  Name = ZINC59258790
REMARK  7 active torsions:
REMARK  status: ('A' for Active; 'I' for Inactive)
REMARK    1  A    between atoms: C_1  and  C_2
REMARK    2  A    between atoms: C_2  and  C_3
REMARK    3  A    between atoms: C_7  and  C_14
REMARK    4  A    between atoms: C_14  and  N_15
REMARK    5  A    between atoms: C_18  and  C_21
REMARK    6  A    between atoms: N_23  and  C_24
REMARK    7  A    between atoms: C_29  and  O_30
REMARK                            x       y       z     vdW  Elec       q    Type
REMARK                         _______ _______ _______ _____ _____    ______ ____
ROOT
ATOM      1  N   UNL     1       1.337  -3.449  -5.958  0.00  0.00    +0.382 N 
ATOM      2  C   UNL     1       0.337  -3.554  -4.889  0.00  0.00    -0.078 C 
ATOM      3  C   UNL     1      -0.180  -4.992  -4.808  0.00  0.00    -0.006 C 
ATOM      4  C   UNL     1      -0.819  -5.374  -6.146  0.00  0.00    +0.072 C 
ATOM      5  C   UNL     1       0.211  -5.190  -7.264  0.00  0.00    -0.006 C 
ATOM      6  C   UNL     1       0.714  -3.745  -7.254  0.00  0.00    -0.078 C 
ATOM      7  H   UNL     1       2.081  -4.108  -5.785  0.00  0.00    -0.081 HD
ENDROOT
BRANCH   4   8
ATOM      8  C   UNL     1      -1.261  -6.814  -6.100  0.00  0.00    +0.220 C 
ATOM      9  O   UNL     1      -1.083  -7.472  -5.096  0.00  0.00    -0.275 OA
ATOM     10  N   UNL     1      -1.854  -7.372  -7.174  0.00  0.00    -0.282 N 
ATOM     11  H   UNL     1      -2.055  -6.830  -7.953  0.00  0.00    +0.155 HD
BRANCH  10  12
ATOM     12  C   UNL     1      -2.179  -8.735  -7.165  0.00  0.00    +0.077 A 
ATOM     13  C   UNL     1      -2.585  -9.346  -5.988  0.00  0.00    +0.047 A 
ATOM     14  C   UNL     1      -2.906 -10.691  -5.982  0.00  0.00    +0.043 A 
ATOM     15  C   UNL     1      -2.824 -11.430  -7.149  0.00  0.00    +0.023 A 
ATOM     16  C   UNL     1      -2.421 -10.827  -8.326  0.00  0.00    +0.049 A 
ATOM     17  C   UNL     1      -2.103  -9.479  -8.341  0.00  0.00    +0.138 A 
ATOM     18 CL   UNL     1      -3.413 -11.454  -4.508  0.00  0.00    -0.083 Cl
BRANCH  17  19
ATOM     19  O   UNL     1      -1.712  -8.883  -9.499  0.00  0.00    -0.505 OA
ATOM     20  H   UNL     1      -0.757  -8.911  -9.653  0.00  0.00    +0.292 HD
ENDBRANCH  17  19
ENDBRANCH  10  12
ENDBRANCH   4   8
BRANCH   1  21
ATOM     21  C   UNL     1       1.887  -2.087  -5.981  0.00  0.00    -0.042 C 
BRANCH  21  26
ATOM     22  C   UNL     1       0.642  -0.487  -1.214  0.00  0.00    -0.044 A 
ATOM     23  C   UNL     1      -0.081  -0.716  -2.376  0.00  0.00    +0.004 A 
ATOM     24  C   UNL     1       0.547  -1.149  -3.509  0.00  0.00    +0.012 A 
ATOM     25  C   UNL     1       1.929  -1.362  -3.498  0.00  0.00    +0.019 A 
ATOM     26  C   UNL     1       2.633  -1.825  -4.698  0.00  0.00    -0.047 A 
ATOM     27  C   UNL     1       3.975  -2.012  -4.621  0.00  0.00    +0.094 A 
ATOM     28  C   UNL     1       4.650  -1.760  -3.408  0.00  0.00    +0.337 A 
ATOM     29  O   UNL     1       5.855  -1.932  -3.352  0.00  0.00    -0.245 OA
ATOM     30  O   UNL     1       3.999  -1.336  -2.313  0.00  0.00    -0.422 OA
ATOM     31  C   UNL     1       2.665  -1.131  -2.323  0.00  0.00    +0.140 A 
ATOM     32  C   UNL     1       2.006  -0.686  -1.183  0.00  0.00    +0.050 A 
BRANCH  22  34
ATOM     33  C   UNL     1      -0.102   1.520   0.038  0.00  0.00    +0.009 C 
ATOM     34  C   UNL     1      -0.070  -0.010   0.026  0.00  0.00    +0.032 C 
ENDBRANCH  22  34
ENDBRANCH  21  26
ENDBRANCH   1  21
TORSDOF 6
