REMARK  Name = ZINC20214218
REMARK  8 active torsions:
REMARK  status: ('A' for Active; 'I' for Inactive)
REMARK    1  A    between atoms: C_1  and  C_2
REMARK    2  A    between atoms: C_2  and  O_3
REMARK    3  A    between atoms: O_3  and  C_4
REMARK    4  A    between atoms: C_4  and  C_6
REMARK    5  A    between atoms: C_7  and  C_21
REMARK    6  A    between atoms: C_12  and  C_14
REMARK    7  A    between atoms: C_21  and  N_22
REMARK    8  A    between atoms: C_25  and  N_28
REMARK                            x       y       z     vdW  Elec       q    Type
REMARK                         _______ _______ _______ _____ _____    ______ ____
ROOT
ATOM      1  C   UNL     1      -0.377   4.329  -1.767  0.00  0.00    +0.079 C 
ATOM      2  C   UNL     1      -1.109   3.471  -1.024  0.00  0.00    +0.038 C 
ATOM      3  N   UNL     1      -1.935   3.924  -0.035  0.00  0.00    -0.271 N 
ATOM      4  C   UNL     1      -2.077   5.218   0.280  0.00  0.00    +0.304 C 
ATOM      5  O   UNL     1      -2.833   5.524   1.181  0.00  0.00    -0.252 OA
ATOM      6  N   UNL     1      -1.413   6.192  -0.373  0.00  0.00    -0.288 N 
ATOM      7  C   UNL     1      -0.499   5.808  -1.463  0.00  0.00    +0.144 C 
ATOM      8  H   UNL     1      -2.530   3.210   0.554  0.00  0.00    +0.156 HD
ATOM      9  H   UNL     1      -1.540   7.252  -0.110  0.00  0.00    +0.151 HD
ENDROOT
BRANCH   7  10
ATOM     10  C   UNL     1      -0.956   6.505  -2.719  0.00  0.00    -0.022 A 
ATOM     11  C   UNL     1      -2.291   6.478  -3.077  0.00  0.00    +0.007 A 
ATOM     12  C   UNL     1      -2.711   7.122  -4.226  0.00  0.00    +0.020 A 
ATOM     13  C   UNL     1      -1.793   7.783  -5.023  0.00  0.00    +0.041 A 
ATOM     14  C   UNL     1      -0.457   7.805  -4.666  0.00  0.00    +0.020 A 
ATOM     15  C   UNL     1      -0.039   7.166  -3.514  0.00  0.00    +0.007 A 
ATOM     16 CL   UNL     1      -2.319   8.586  -6.469  0.00  0.00    -0.084 Cl
ENDBRANCH   7  10
BRANCH   1  17
ATOM     17  C   UNL     1       0.476   3.862  -2.795  0.00  0.00    +0.339 C 
ATOM     18  O   UNL     1       1.675   3.783  -2.602  0.00  0.00    -0.245 OA
BRANCH  17  19
ATOM     19  O   UNL     1      -0.041   3.504  -3.989  0.00  0.00    -0.462 OA
BRANCH  19  21
ATOM     20  C   UNL     1       0.114   2.686  -6.258  0.00  0.00    +0.048 C 
ATOM     21  C   UNL     1       0.878   3.042  -4.981  0.00  0.00    +0.229 C 
ENDBRANCH  19  21
ENDBRANCH  17  19
ENDBRANCH   1  17
BRANCH   2  22
ATOM     22  C   UNL     1      -1.017   1.992  -1.294  0.00  0.00    +0.135 C 
BRANCH  22  23
ATOM     23  N   UNL     1      -0.443   1.315  -0.123  0.00  0.00    -0.297 NA
ATOM     24  C   UNL     1       0.951   1.724   0.090  0.00  0.00    +0.083 C 
ATOM     25  C   UNL     1       1.469   1.115   1.395  0.00  0.00    +0.000 C 
ATOM     26  C   UNL     1       1.372  -0.411   1.314  0.00  0.00    -0.066 C 
ATOM     27  C   UNL     1      -0.082  -0.808   1.044  0.00  0.00    +0.000 C 
ATOM     28  C   UNL     1      -0.555  -0.144  -0.251  0.00  0.00    +0.083 C 
BRANCH  26  29
ATOM     29  N   UNL     1       1.813  -1.001   2.585  0.00  0.00    +0.382 N 
ATOM     30  C   UNL     1       0.994  -0.515   3.703  0.00  0.00    -0.078 C 
ATOM     31  C   UNL     1       1.385  -1.256   4.984  0.00  0.00    -0.019 C 
ATOM     32  C   UNL     1       2.869  -1.018   5.273  0.00  0.00    -0.004 C 
ATOM     33  C   UNL     1       3.697  -1.487   4.074  0.00  0.00    -0.019 C 
ATOM     34  C   UNL     1       3.239  -0.739   2.820  0.00  0.00    -0.078 C 
ATOM     35  H   UNL     1       1.678  -2.090   2.520  0.00  0.00    -0.081 HD
ENDBRANCH  26  29
ENDBRANCH  22  23
ENDBRANCH   2  22
TORSDOF 7
