REMARK  Name = ZINC12495067
REMARK  8 active torsions:
REMARK  status: ('A' for Active; 'I' for Inactive)
REMARK    1  A    between atoms: C_1  and  C_2
REMARK    2  A    between atoms: C_3  and  C_25
REMARK    3  A    between atoms: C_5  and  N_10
REMARK    4  A    between atoms: C_6  and  C_7
REMARK    5  A    between atoms: N_10  and  C_11
REMARK    6  A    between atoms: C_11  and  N_13
REMARK    7  A    between atoms: C_14  and  C_16
REMARK    8  A    between atoms: C_21  and  N_22
REMARK                            x       y       z     vdW  Elec       q    Type
REMARK                         _______ _______ _______ _____ _____    ______ ____
ROOT
ATOM      1  C   UNL     1       0.898   1.768  -1.383  0.00  0.00    +0.141 C 
ATOM      2  S   UNL     1       0.936   3.453  -1.077  0.00  0.00    -0.018 S 
ENDROOT
BRANCH   1   3
ATOM      3  N   UNL     1      -0.209   1.056  -1.098  0.00  0.00    -0.263 N 
ATOM      4  C   UNL     1      -1.290   1.670  -0.576  0.00  0.00    +0.252 C 
ATOM      5  O   UNL     1      -1.263   2.866  -0.359  0.00  0.00    -0.270 OA
ATOM      6  H   UNL     1      -0.231   0.102  -1.271  0.00  0.00    +0.157 HD
BRANCH   4   7
ATOM      7  C   UNL     1      -2.507   0.890  -0.269  0.00  0.00    +0.067 A 
ATOM      8  C   UNL     1      -2.496  -0.501  -0.385  0.00  0.00    +0.015 A 
ATOM      9  C   UNL     1      -3.633  -1.224  -0.092  0.00  0.00    +0.001 A 
ATOM     10  C   UNL     1      -4.787  -0.572   0.306  0.00  0.00    +0.002 A 
ATOM     11  C   UNL     1      -4.807   0.807   0.418  0.00  0.00    +0.033 A 
ATOM     12  C   UNL     1      -3.674   1.541   0.133  0.00  0.00    +0.138 A 
BRANCH  12  13
ATOM     13  N   UNL     1      -3.697   3.017   0.253  0.00  0.00    +0.057 N 
ATOM     14  O   UNL     1      -4.104   3.538   1.275  0.00  0.00    -0.126 OA
ATOM     15  O   UNL     1      -3.308   3.708  -0.671  0.00  0.00    -0.126 OA
ENDBRANCH  12  13
ENDBRANCH   4   7
ENDBRANCH   1   3
BRANCH   1  16
ATOM     16  N   UNL     1       1.977   1.155  -1.910  0.00  0.00    -0.291 N 
ATOM     17  H   UNL     1       1.956   0.201  -2.083  0.00  0.00    +0.154 HD
BRANCH  16  22
ATOM     18  C   UNL     1       6.687   2.060  -3.527  0.00  0.00    +0.045 C 
ATOM     19  C   UNL     1       5.346   2.430  -2.948  0.00  0.00    -0.027 A 
ATOM     20  C   UNL     1       5.058   3.696  -2.598  0.00  0.00    -0.008 A 
ATOM     21  S   UNL     1       3.388   3.585  -1.992  0.00  0.00    -0.078 S 
ATOM     22  C   UNL     1       3.116   1.888  -2.203  0.00  0.00    +0.084 A 
ATOM     23  C   UNL     1       4.316   1.439  -2.744  0.00  0.00    +0.068 A 
ATOM     24  C   UNL     1       5.936   4.917  -2.700  0.00  0.00    +0.052 C 
BRANCH  23  25
ATOM     25  C   UNL     1       4.524   0.030  -3.090  0.00  0.00    +0.244 C 
ATOM     26  O   UNL     1       4.242  -0.371  -4.205  0.00  0.00    -0.270 OA
ATOM     27  N   UNL     1       5.028  -0.821  -2.175  0.00  0.00    -0.325 N 
ATOM     28  H   UNL     1       5.253  -0.501  -1.287  0.00  0.00    +0.145 HD
ATOM     29  H   UNL     1       5.166  -1.753  -2.404  0.00  0.00    +0.145 HD
ENDBRANCH  23  25
ENDBRANCH  16  22
ENDBRANCH   1  16
TORSDOF 6
