REMARK  Name = ZINC50360964
REMARK  7 active torsions:
REMARK  status: ('A' for Active; 'I' for Inactive)
REMARK    1  A    between atoms: C_1  and  C_2
REMARK    2  A    between atoms: C_2  and  S_3
REMARK    3  A    between atoms: S_3  and  N_6
REMARK    4  A    between atoms: N_6  and  C_7
REMARK    5  A    between atoms: C_10  and  N_13
REMARK    6  A    between atoms: N_13  and  C_14
REMARK    7  A    between atoms: C_14  and  C_15
REMARK                            x       y       z     vdW  Elec       q    Type
REMARK                         _______ _______ _______ _____ _____    ______ ____
ROOT
ATOM      1  C   UNL     1       1.598  -2.792   0.160  0.00  0.00    +0.048 A 
ATOM      2  C   UNL     1       1.660  -2.139  -1.063  0.00  0.00    +0.026 A 
ATOM      3  C   UNL     1       2.391  -2.684  -2.101  0.00  0.00    +0.025 A 
ATOM      4  C   UNL     1       3.064  -3.885  -1.920  0.00  0.00    +0.028 A 
ATOM      5  C   UNL     1       3.002  -4.538  -0.696  0.00  0.00    +0.025 A 
ATOM      6  C   UNL     1       2.275  -3.991   0.343  0.00  0.00    +0.026 A 
ENDROOT
BRANCH   1   7
ATOM      7  N   UNL     1       0.856  -2.240   1.212  0.00  0.00    -0.221 N 
ATOM      8  H   UNL     1      -0.002  -2.623   1.453  0.00  0.00    +0.173 HD
BRANCH   7   9
ATOM      9  S   UNL     1       1.444  -0.934   2.042  0.00  0.00    +0.043 S 
ATOM     10  O   UNL     1       0.454  -0.652   3.022  0.00  0.00    -0.155 OA
ATOM     11  O   UNL     1       1.763   0.021   1.039  0.00  0.00    -0.155 OA
BRANCH   9  13
ATOM     12  C   UNL     1       3.656  -0.368   3.548  0.00  0.00    +0.030 C 
ATOM     13  C   UNL     1       2.959  -1.532   2.840  0.00  0.00    +0.185 C 
ENDBRANCH   9  13
ENDBRANCH   7   9
ENDBRANCH   1   7
BRANCH   4  14
ATOM     14  N   UNL     1       3.805  -4.438  -2.971  0.00  0.00    -0.337 N 
ATOM     15  H   UNL     1       3.848  -3.982  -3.826  0.00  0.00    +0.147 HD
BRANCH  14  16
ATOM     16  C   UNL     1       4.515  -5.705  -2.780  0.00  0.00    +0.176 C 
BRANCH  16  17
ATOM     17  C   UNL     1       5.229  -6.078  -4.054  0.00  0.00    +0.124 A 
ATOM     18  C   UNL     1       6.486  -5.731  -4.381  0.00  0.00    +0.062 A 
ATOM     19  C   UNL     1       6.748  -6.290  -5.654  0.00  0.00    +0.070 A 
ATOM     20  C   UNL     1       5.633  -6.945  -6.028  0.00  0.00    +0.184 A 
ATOM     21  O   UNL     1       4.718  -6.817  -5.053  0.00  0.00    -0.450 OA
ATOM     22 BR   UNL     1       5.398  -7.891  -7.649  0.00  0.00    -0.007 Br
ATOM     23 BR   UNL     1       8.355  -6.144  -6.640  0.00  0.00    -0.046 Br
ENDBRANCH  16  17
ENDBRANCH  14  16
ENDBRANCH   4  14
TORSDOF 6
