REMARK  Name = ZINC04903604
REMARK  3 active torsions:
REMARK  status: ('A' for Active; 'I' for Inactive)
REMARK    1  A    between atoms: C_4  and  C_7
REMARK    2  A    between atoms: N_9  and  C_15
REMARK    3  A    between atoms: C_10  and  C_13
REMARK                            x       y       z     vdW  Elec       q    Type
REMARK                         _______ _______ _______ _____ _____    ______ ____
ROOT
ATOM      1  C   UNL     1       3.964   0.467   0.683  0.00  0.00    +0.069 C 
ATOM      2  N   UNL     1       2.791   0.952   0.908  0.00  0.00    -0.182 NA
ATOM      3  N   UNL     1       2.390   1.920  -0.011  0.00  0.00    -0.206 N 
ATOM      4  C   UNL     1       3.460   2.105  -1.004  0.00  0.00    +0.206 C 
ATOM      5  C   UNL     1       4.554   1.121  -0.545  0.00  0.00    +0.097 C 
ENDROOT
BRANCH   3   6
ATOM      6  C   UNL     1       1.170   2.599   0.005  0.00  0.00    +0.067 A 
ATOM      7  C   UNL     1       1.147   3.989   0.013  0.00  0.00    +0.027 A 
ATOM      8  C   UNL     1      -0.061   4.657   0.028  0.00  0.00    +0.017 A 
ATOM      9  C   UNL     1      -1.248   3.946   0.035  0.00  0.00    +0.019 A 
ATOM     10  C   UNL     1      -1.229   2.562   0.022  0.00  0.00    +0.032 A 
ATOM     11  C   UNL     1      -0.024   1.887   0.012  0.00  0.00    +0.042 A 
ATOM     12 BR   UNL     1       0.002  -0.004   0.002  0.00  0.00    -0.048 Br
ATOM     13 BR   UNL     1      -2.900   4.866   0.055  0.00  0.00    -0.050 Br
ENDBRANCH   3   6
BRANCH   1  17
ATOM     14  C   UNL     1       5.874  -2.508   3.031  0.00  0.00    +0.000 A 
ATOM     15  C   UNL     1       4.608  -2.066   3.376  0.00  0.00    +0.001 A 
ATOM     16  C   UNL     1       3.981  -1.100   2.617  0.00  0.00    +0.010 A 
ATOM     17  C   UNL     1       4.627  -0.566   1.499  0.00  0.00    -0.002 A 
ATOM     18  C   UNL     1       5.903  -1.020   1.155  0.00  0.00    +0.010 A 
ATOM     19  C   UNL     1       6.519  -1.984   1.926  0.00  0.00    +0.001 A 
ENDBRANCH   1  17
BRANCH   4  20
ATOM     20  C   UNL     1       3.963   3.488  -0.972  0.00  0.00    +0.087 C 
ATOM     21  N   UNL     1       4.351   4.556  -0.947  0.00  0.00    -0.195 NA
ENDBRANCH   4  20
TORSDOF 3
