REMARK  Name = ZINC05663374
REMARK  3 active torsions:
REMARK  status: ('A' for Active; 'I' for Inactive)
REMARK    1  A    between atoms: C_1  and  C_2
REMARK    2  A    between atoms: C_8  and  C_19
REMARK    3  A    between atoms: C_11  and  C_13
REMARK                            x       y       z     vdW  Elec       q    Type
REMARK                         _______ _______ _______ _____ _____    ______ ____
ROOT
ATOM      1  C   UNL     1       1.857  -3.226   0.443  0.00  0.00    +0.071 C 
ATOM      2  C   UNL     1       3.170  -2.529   0.198  0.00  0.00    +0.106 A 
ATOM      3  C   UNL     1       3.380  -1.121   0.050  0.00  0.00    +0.129 A 
ATOM      4  C   UNL     1       4.726  -1.017  -0.120  0.00  0.00    +0.163 A 
ATOM      5  O   UNL     1       5.208  -2.272  -0.110  0.00  0.00    -0.357 OA
ATOM      6  N   UNL     1       4.337  -3.086   0.080  0.00  0.00    -0.081 NA
ATOM      7  C   UNL     1       5.539   0.229  -0.278  0.00  0.00    +0.088 C 
ATOM      8  C   UNL     1       4.781   1.327  -0.982  0.00  0.00    +0.032 C 
ATOM      9  C   UNL     1       3.686   1.927  -0.145  0.00  0.00    +0.064 C 
ATOM     10  C   UNL     1       2.476   1.079  -0.016  0.00  0.00    +0.050 C 
ATOM     11  N   UNL     1       2.412  -0.184   0.076  0.00  0.00    -0.246 NA
ENDROOT
BRANCH  10  12
ATOM     12  C   UNL     1       1.187   1.793   0.000  0.00  0.00    -0.004 A 
ATOM     13  C   UNL     1       1.158   3.188   0.075  0.00  0.00    +0.010 A 
ATOM     14  C   UNL     1      -0.052   3.849   0.096  0.00  0.00    +0.001 A 
ATOM     15  C   UNL     1      -1.236   3.134   0.033  0.00  0.00    +0.000 A 
ATOM     16  C   UNL     1      -1.215   1.753  -0.041  0.00  0.00    +0.001 A 
ATOM     17  C   UNL     1      -0.012   1.078  -0.058  0.00  0.00    +0.010 A 
ENDBRANCH  10  12
BRANCH   8  18
ATOM     18  C   UNL     1       5.749   2.418  -1.361  0.00  0.00    -0.044 A 
ATOM     19  C   UNL     1       6.468   3.076  -0.380  0.00  0.00    +0.004 A 
ATOM     20  C   UNL     1       7.359   4.073  -0.728  0.00  0.00    +0.000 A 
ATOM     21  C   UNL     1       7.525   4.419  -2.056  0.00  0.00    +0.000 A 
ATOM     22  C   UNL     1       6.803   3.765  -3.037  0.00  0.00    +0.000 A 
ATOM     23  C   UNL     1       5.915   2.765  -2.689  0.00  0.00    +0.004 A 
ENDBRANCH   8  18
TORSDOF 2
