REMARK  Name = ZINC66595586
REMARK  5 active torsions:
REMARK  status: ('A' for Active; 'I' for Inactive)
REMARK    1  A    between atoms: C_1  and  C_2
REMARK    2  A    between atoms: C_2  and  C_7
REMARK    3  A    between atoms: C_7  and  N_8
REMARK    4  A    between atoms: N_11  and  N_12
REMARK    5  A    between atoms: C_13  and  C_15
REMARK                            x       y       z     vdW  Elec       q    Type
REMARK                         _______ _______ _______ _____ _____    ______ ____
ROOT
ATOM      1  N   UNL     1      -2.117  -0.054  -1.217  0.00  0.00    -0.298 N 
ATOM      2  C   UNL     1      -3.397  -0.406  -1.450  0.00  0.00    +0.316 C 
ATOM      3  O   UNL     1      -3.980  -1.132  -0.668  0.00  0.00    -0.251 OA
ATOM      4  N   UNL     1      -4.032   0.047  -2.549  0.00  0.00    -0.218 N 
ATOM      5  H   UNL     1      -1.653   0.525  -1.841  0.00  0.00    +0.150 HD
ATOM      6  H   UNL     1      -4.953  -0.206  -2.717  0.00  0.00    +0.174 HD
ENDROOT
BRANCH   4   7
ATOM      7  N   UNL     1      -3.360   0.884  -3.450  0.00  0.00    -0.228 N 
ATOM      8  C   UNL     1      -3.994   1.337  -4.550  0.00  0.00    +0.276 C 
ATOM      9  O   UNL     1      -5.150   1.020  -4.760  0.00  0.00    -0.267 OA
ATOM     10  H   UNL     1      -2.439   1.137  -3.283  0.00  0.00    +0.173 HD
BRANCH   8  11
ATOM     11  C   UNL     1      -3.291   2.213  -5.493  0.00  0.00    +0.104 A 
ATOM     12  C   UNL     1      -3.815   2.753  -6.649  0.00  0.00    +0.047 A 
ATOM     13  C   UNL     1      -2.805   3.521  -7.238  0.00  0.00    +0.036 A 
ATOM     14  C   UNL     1      -1.706   3.438  -6.449  0.00  0.00    +0.098 A 
ATOM     15  N   UNL     1      -1.991   2.650  -5.383  0.00  0.00    -0.356 N 
ATOM     16  H   UNL     1      -1.379   2.430  -4.663  0.00  0.00    +0.166 HD
ATOM     17 BR   UNL     1      -2.947   4.500  -8.850  0.00  0.00    -0.049 Br
ENDBRANCH   8  11
ENDBRANCH   4   7
BRANCH   1  18
ATOM     18  C   UNL     1      -1.428  -0.547  -0.022  0.00  0.00    +0.112 C 
BRANCH  18  20
ATOM     19  C   UNL     1      -0.019   1.526   0.010  0.00  0.00    +0.013 C 
ATOM     20  C   UNL     1       0.002  -0.004   0.002  0.00  0.00    -0.016 C 
ATOM     21  C   UNL     1       0.783  -0.515  -1.226  0.00  0.00    +0.008 C 
ATOM     22  C   UNL     1       2.213  -0.768  -0.688  0.00  0.00    +0.001 C 
ATOM     23  C   UNL     1       1.950  -1.339   0.728  0.00  0.00    +0.001 C 
ATOM     24  C   UNL     1       0.744  -0.528   1.244  0.00  0.00    +0.008 C 
ENDBRANCH  18  20
ENDBRANCH   1  18
TORSDOF 4
