REMARK  Name = ZINC55063721
REMARK  11 active torsions:
REMARK  status: ('A' for Active; 'I' for Inactive)
REMARK    1  A    between atoms: C_1  and  C_2
REMARK    2  A    between atoms: C_2  and  C_3
REMARK    3  A    between atoms: C_3  and  C_5
REMARK    4  A    between atoms: C_3  and  N_6
REMARK    5  A    between atoms: N_9  and  C_12
REMARK    6  A    between atoms: C_12  and  C_14
REMARK    7  A    between atoms: C_12  and  C_20
REMARK    8  A    between atoms: C_17  and  C_19
REMARK    9  A    between atoms: C_20  and  C_22
REMARK   10  A    between atoms: C_20  and  N_24
REMARK   11  A    between atoms: C_22  and  C_23
REMARK                            x       y       z     vdW  Elec       q    Type
REMARK                         _______ _______ _______ _____ _____    ______ ____
ROOT
ATOM      1  C   UNL     1       5.390   2.245  -2.357  0.00  0.00    +0.079 C 
ENDROOT
BRANCH   1   5
ATOM      2  N   UNL     1       2.307  -0.569  -1.691  0.00  0.00    +0.383 N 
ATOM      3  C   UNL     1       3.234  -0.812  -2.804  0.00  0.00    -0.063 C 
ATOM      4  C   UNL     1       4.514  -0.002  -2.588  0.00  0.00    +0.066 C 
ATOM      5  N   UNL     1       4.179   1.427  -2.509  0.00  0.00    -0.300 NA
ATOM      6  C   UNL     1       3.231   1.682  -1.414  0.00  0.00    +0.066 C 
ATOM      7  C   UNL     1       1.962   0.858  -1.641  0.00  0.00    -0.063 C 
ATOM      8  H   UNL     1       2.745  -0.840  -0.824  0.00  0.00    -0.081 HD
BRANCH   2   9
ATOM      9  C   UNL     1       1.085  -1.361  -1.891  0.00  0.00    -0.072 C 
ATOM     10  C   UNL     1       0.493  -1.047  -3.266  0.00  0.00    -0.013 C 
BRANCH   9  12
ATOM     11  C   UNL     1       1.916  -3.186  -0.400  0.00  0.00    +0.002 C 
ATOM     12  C   UNL     1       1.424  -2.851  -1.810  0.00  0.00    -0.019 C 
ENDBRANCH   9  12
ENDBRANCH   2   9
ENDBRANCH   1   5
BRANCH   1  13
ATOM     13  C   UNL     1       6.182   1.754  -1.173  0.00  0.00    +0.006 A 
ATOM     14  C   UNL     1       7.498   1.439  -1.097  0.00  0.00    +0.013 A 
ATOM     15  C   UNL     1       8.015   1.005   0.109  0.00  0.00    +0.011 A 
ATOM     16  C   UNL     1       7.191   0.908   1.181  0.00  0.00    -0.013 A 
ATOM     17  S   UNL     1       5.632   1.446   0.497  0.00  0.00    -0.097 S 
ATOM     18  C   UNL     1       7.510   0.467   2.586  0.00  0.00    +0.051 C 
ENDBRANCH   1  13
BRANCH   1  19
ATOM     19  C   UNL     1       4.995   3.706  -2.137  0.00  0.00    -0.053 C 
BRANCH  19  20
ATOM     20  N   UNL     1       4.223   4.184  -3.292  0.00  0.00    +0.381 N 
ATOM     21  H   UNL     1       3.391   3.623  -3.396  0.00  0.00    -0.090 HD
ATOM     22  H   UNL     1       3.962   5.148  -3.147  0.00  0.00    -0.090 HD
ATOM     23  H   UNL     1       4.785   4.110  -4.126  0.00  0.00    -0.090 HD
ENDBRANCH  19  20
BRANCH  19  24
ATOM     24  C   UNL     1       6.256   4.557  -1.979  0.00  0.00    -0.018 C 
ATOM     25  C   UNL     1       5.862   5.995  -1.635  0.00  0.00    +0.002 C 
ENDBRANCH  19  24
ENDBRANCH   1  19
TORSDOF 7
