REMARK  Name = ZINC40347006
REMARK  5 active torsions:
REMARK  status: ('A' for Active; 'I' for Inactive)
REMARK    1  A    between atoms: C_3  and  N_19
REMARK    2  A    between atoms: C_4  and  S_8
REMARK    3  A    between atoms: S_8  and  N_11
REMARK    4  A    between atoms: N_11  and  C_12
REMARK    5  A    between atoms: C_12  and  C_13
REMARK                            x       y       z     vdW  Elec       q    Type
REMARK                         _______ _______ _______ _____ _____    ______ ____
ROOT
ATOM      1  S   UNL     1       3.893  -0.771  -0.018  0.00  0.00    +0.060 S 
ATOM      2  O   UNL     1       4.626  -0.285   1.098  0.00  0.00    -0.153 OA
ATOM      3  O   UNL     1       3.454  -2.119  -0.113  0.00  0.00    -0.153 OA
ENDROOT
BRANCH   1   7
ATOM      4  C   UNL     1       0.193   1.822  -0.367  0.00  0.00    +0.017 A 
ATOM      5  C   UNL     1       0.420   0.824  -1.294  0.00  0.00    +0.026 A 
ATOM      6  C   UNL     1       1.554   0.027  -1.190  0.00  0.00    +0.051 A 
ATOM      7  C   UNL     1       2.455   0.237  -0.154  0.00  0.00    +0.127 A 
ATOM      8  C   UNL     1       2.221   1.237   0.770  0.00  0.00    +0.045 A 
ATOM      9  C   UNL     1       1.092   2.029   0.664  0.00  0.00    +0.020 A 
ATOM     10 BR   UNL     1       0.776   3.396   1.931  0.00  0.00    -0.050 Br
BRANCH   6  11
ATOM     11  N   UNL     1       1.786  -0.984  -2.126  0.00  0.00    -0.356 N 
ATOM     12  H   UNL     1       1.114  -1.190  -2.795  0.00  0.00    +0.142 HD
ATOM     13  H   UNL     1       2.620  -1.479  -2.108  0.00  0.00    +0.142 HD
ENDBRANCH   6  11
ENDBRANCH   1   7
BRANCH   1  14
ATOM     14  N   UNL     1       4.823  -0.480  -1.357  0.00  0.00    -0.185 NA
ATOM     15  H   UNL     1       4.982  -1.189  -2.001  0.00  0.00    +0.148 HD
BRANCH  14  16
ATOM     16  C   UNL     1       5.406   0.847  -1.571  0.00  0.00    +0.148 C 
BRANCH  16  17
ATOM     17  C   UNL     1       6.486   0.759  -2.618  0.00  0.00    +0.006 A 
ATOM     18  C   UNL     1       6.386   0.906  -3.961  0.00  0.00    +0.013 A 
ATOM     19  C   UNL     1       7.525   0.782  -4.736  0.00  0.00    +0.023 A 
ATOM     20  C   UNL     1       8.707   0.515  -4.128  0.00  0.00    +0.055 A 
ATOM     21  S   UNL     1       8.230   0.440  -2.409  0.00  0.00    -0.085 S 
ATOM     22 BR   UNL     1      10.419   0.289  -4.899  0.00  0.00    -0.043 Br
ENDBRANCH  16  17
ENDBRANCH  14  16
ENDBRANCH   1  14
TORSDOF 5
