REMARK  Name = ZINC10407199
REMARK  4 active torsions:
REMARK  status: ('A' for Active; 'I' for Inactive)
REMARK    1  A    between atoms: C_7  and  C_11
REMARK    2  A    between atoms: N_19  and  C_20
REMARK    3  A    between atoms: C_23  and  S_26
REMARK    4  A    between atoms: S_26  and  N_29
REMARK                            x       y       z     vdW  Elec       q    Type
REMARK                         _______ _______ _______ _____ _____    ______ ____
ROOT
ATOM      1  C   UNL     1      -1.419   6.556   0.547  0.00  0.00    +0.024 C 
ATOM      2  C   UNL     1      -0.642   7.297  -0.543  0.00  0.00    +0.027 C 
ATOM      3  C   UNL     1      -1.525   8.400  -1.135  0.00  0.00    +0.110 C 
ATOM      4  N   UNL     1      -2.000   9.261  -0.043  0.00  0.00    -0.285 N 
ATOM      5  C   UNL     1      -2.682   8.640   1.101  0.00  0.00    +0.110 C 
ATOM      6  C   UNL     1      -1.786   7.533   1.667  0.00  0.00    +0.027 C 
ATOM      7  C   UNL     1      -1.815  10.595  -0.090  0.00  0.00    +0.306 C 
ATOM      8  O   UNL     1      -2.293  11.306   0.773  0.00  0.00    -0.252 OA
ATOM      9  N   UNL     1      -1.101  11.141  -1.094  0.00  0.00    -0.269 N 
ATOM     10  H   UNL     1      -0.786  10.585  -1.824  0.00  0.00    +0.156 HD
ENDROOT
BRANCH   1  17
ATOM     11  C   UNL     1      -1.944   1.903   0.766  0.00  0.00    +0.001 A 
ATOM     12  C   UNL     1      -0.879   1.268   1.391  0.00  0.00    +0.002 A 
ATOM     13  C   UNL     1       0.191   1.993   1.867  0.00  0.00    +0.026 A 
ATOM     14  C   UNL     1       0.204   3.377   1.727  0.00  0.00    +0.047 A 
ATOM     15  C   UNL     1      -0.879   4.017   1.098  0.00  0.00    +0.003 A 
ATOM     16  C   UNL     1      -1.953   3.262   0.623  0.00  0.00    +0.010 A 
ATOM     17  C   UNL     1      -0.566   5.448   1.108  0.00  0.00    -0.019 A 
ATOM     18  C   UNL     1       0.626   5.584   1.710  0.00  0.00    +0.087 A 
ATOM     19  N   UNL     1       1.102   4.358   2.086  0.00  0.00    -0.360 N 
ATOM     20  H   UNL     1       1.945   4.202   2.539  0.00  0.00    +0.165 HD
ENDBRANCH   1  17
BRANCH   9  21
ATOM     21  C   UNL     1      -0.812  12.511  -1.083  0.00  0.00    +0.035 A 
ATOM     22  C   UNL     1      -0.613  13.170   0.123  0.00  0.00    +0.025 A 
ATOM     23  C   UNL     1      -0.324  14.521   0.130  0.00  0.00    +0.030 A 
ATOM     24  C   UNL     1      -0.243  15.218  -1.061  0.00  0.00    +0.105 A 
ATOM     25  C   UNL     1      -0.446  14.565  -2.263  0.00  0.00    +0.030 A 
ATOM     26  C   UNL     1      -0.731  13.214  -2.277  0.00  0.00    +0.025 A 
BRANCH  24  27
ATOM     27  S   UNL     1       0.120  16.942  -1.048  0.00  0.00    +0.056 S 
ATOM     28  O   UNL     1       0.805  17.204   0.170  0.00  0.00    -0.153 OA
ATOM     29  O   UNL     1       0.678  17.250  -2.317  0.00  0.00    -0.153 OA
BRANCH  27  30
ATOM     30  N   UNL     1      -1.325  17.746  -0.959  0.00  0.00    -0.204 NA
ATOM     31  H   UNL     1      -1.374  18.610  -0.520  0.00  0.00    +0.144 HD
ATOM     32  H   UNL     1      -2.123  17.354  -1.347  0.00  0.00    +0.144 HD
ENDBRANCH  27  30
ENDBRANCH  24  27
ENDBRANCH   9  21
TORSDOF 4
