REMARK  Name = ZINC35982503
REMARK  7 active torsions:
REMARK  status: ('A' for Active; 'I' for Inactive)
REMARK    1  A    between atoms: C_1  and  C_2
REMARK    2  A    between atoms: C_7  and  N_8
REMARK    3  A    between atoms: C_9  and  C_11
REMARK    4  A    between atoms: C_11  and  N_12
REMARK    5  A    between atoms: N_12  and  C_13
REMARK    6  A    between atoms: C_14  and  C_16
REMARK    7  A    between atoms: C_16  and  N_17
REMARK                            x       y       z     vdW  Elec       q    Type
REMARK                         _______ _______ _______ _____ _____    ______ ____
ROOT
ATOM      1  N   UNL     1      -0.240  -0.903   5.989  0.00  0.00    -0.294 N 
ATOM      2  C   UNL     1       0.988  -1.366   6.640  0.00  0.00    +0.132 C 
ATOM      3  C   UNL     1      -1.438  -1.359   6.407  0.00  0.00    +0.234 C 
ATOM      4  O   UNL     1      -2.454  -0.976   5.868  0.00  0.00    -0.274 OA
ENDROOT
BRANCH   1   5
ATOM      5  C   UNL     1      -0.167   0.054   4.882  0.00  0.00    +0.203 C 
BRANCH   5   7
ATOM      6  N   UNL     1       0.026  -0.014   2.417  0.00  0.00    -0.284 N 
ATOM      7  C   UNL     1      -0.056  -0.694   3.578  0.00  0.00    +0.235 C 
ATOM      8  O   UNL     1      -0.040  -1.906   3.574  0.00  0.00    -0.274 OA
ATOM      9  H   UNL     1       0.079   0.955   2.425  0.00  0.00    +0.155 HD
BRANCH   6  16
ATOM     10  C   UNL     1      -1.265   1.183   0.182  0.00  0.00    +0.046 C 
ATOM     11  C   UNL     1      -0.584  -0.158   0.085  0.00  0.00    -0.028 A 
ATOM     12  C   UNL     1      -0.570  -0.840  -1.116  0.00  0.00    +0.020 A 
ATOM     13  C   UNL     1       0.055  -2.071  -1.206  0.00  0.00    +0.018 A 
ATOM     14  C   UNL     1       0.666  -2.623  -0.094  0.00  0.00    +0.017 A 
ATOM     15  C   UNL     1       0.655  -1.945   1.109  0.00  0.00    +0.024 A 
ATOM     16  C   UNL     1       0.034  -0.706   1.201  0.00  0.00    +0.036 A 
ATOM     17 BR   UNL     1       0.072  -3.002  -2.852  0.00  0.00    -0.050 Br
ENDBRANCH   6  16
ENDBRANCH   5   7
ENDBRANCH   1   5
BRANCH   3  18
ATOM     18  C   UNL     1      -1.514  -2.343   7.546  0.00  0.00    +0.213 C 
BRANCH  18  19
ATOM     19  N   UNL     1      -2.915  -2.680   7.808  0.00  0.00    -0.215 N 
ATOM     20  C   UNL     1      -3.711  -2.006   8.667  0.00  0.00    +0.251 C 
ATOM     21  O   UNL     1      -3.415  -1.043   9.342  0.00  0.00    -0.272 OA
ATOM     22  C   UNL     1      -5.043  -2.705   8.605  0.00  0.00    +0.138 C 
ATOM     23  C   UNL     1      -5.452  -3.248   9.980  0.00  0.00    +0.045 C 
ATOM     24  C   UNL     1      -6.991  -3.120   9.937  0.00  0.00    +0.038 C 
ATOM     25  C   UNL     1      -7.270  -2.007   8.948  0.00  0.00    -0.042 A 
ATOM     26  C   UNL     1      -6.143  -1.770   8.178  0.00  0.00    -0.012 A 
ATOM     27  C   UNL     1      -6.173  -0.789   7.202  0.00  0.00    +0.006 A 
ATOM     28  C   UNL     1      -7.319  -0.046   6.995  0.00  0.00    +0.000 A 
ATOM     29  C   UNL     1      -8.442  -0.282   7.764  0.00  0.00    +0.000 A 
ATOM     30  C   UNL     1      -8.417  -1.261   8.738  0.00  0.00    +0.004 A 
ATOM     31  N   UNL     1      -4.847  -3.788   7.640  0.00  0.00    -0.281 N 
ATOM     32  C   UNL     1      -3.569  -3.691   7.221  0.00  0.00    +0.310 C 
ATOM     33  O   UNL     1      -3.066  -4.439   6.406  0.00  0.00    -0.252 OA
ATOM     34  H   UNL     1      -5.505  -4.442   7.357  0.00  0.00    +0.152 HD
ENDBRANCH  18  19
ENDBRANCH   3  18
TORSDOF 5
