REMARK  Name = ZINC27642006
REMARK  8 active torsions:
REMARK  status: ('A' for Active; 'I' for Inactive)
REMARK    1  A    between atoms: C_4  and  C_7
REMARK    2  A    between atoms: C_8  and  C_9
REMARK    3  A    between atoms: N_10  and  N_11
REMARK    4  A    between atoms: N_13  and  C_30
REMARK    5  A    between atoms: C_16  and  C_19
REMARK    6  A    between atoms: C_19  and  C_20
REMARK    7  A    between atoms: N_22  and  C_23
REMARK    8  A    between atoms: C_30  and  C_31
REMARK                            x       y       z     vdW  Elec       q    Type
REMARK                         _______ _______ _______ _____ _____    ______ ____
ROOT
ATOM      1  N   UNL     1       0.572   3.604  -1.280  0.00  0.00    -0.127 NA
ATOM      2  C   UNL     1      -0.364   2.777  -1.705  0.00  0.00    +0.186 C 
ATOM      3  N   UNL     1      -0.726   1.558  -1.175  0.00  0.00    -0.241 N 
ATOM      4  C   UNL     1      -1.685   0.815  -1.700  0.00  0.00    +0.235 C 
ATOM      5  O   UNL     1      -1.996  -0.260  -1.232  0.00  0.00    -0.274 OA
ATOM      6  C   UNL     1      -2.375   1.393  -2.924  0.00  0.00    +0.149 C 
ATOM      7  S   UNL     1      -1.458   2.974  -3.103  0.00  0.00    -0.075 S 
ENDROOT
BRANCH   1   9
ATOM      8  C   UNL     1       2.206   4.124   0.180  0.00  0.00    +0.135 C 
ATOM      9  N   UNL     1       1.277   3.302  -0.243  0.00  0.00    -0.155 NA
BRANCH   8  11
ATOM     10  C   UNL     1       3.937   4.642   1.751  0.00  0.00    +0.009 C 
ATOM     11  C   UNL     1       2.978   3.794   1.315  0.00  0.00    +0.022 C 
BRANCH  10  15
ATOM     12  C   UNL     1       6.256   3.648   5.160  0.00  0.00    +0.000 A 
ATOM     13  C   UNL     1       6.484   4.842   4.497  0.00  0.00    +0.001 A 
ATOM     14  C   UNL     1       5.734   5.172   3.388  0.00  0.00    +0.008 A 
ATOM     15  C   UNL     1       4.741   4.297   2.933  0.00  0.00    -0.025 A 
ATOM     16  C   UNL     1       4.513   3.096   3.613  0.00  0.00    +0.008 A 
ATOM     17  C   UNL     1       5.276   2.777   4.717  0.00  0.00    +0.001 A 
ENDBRANCH  10  15
ENDBRANCH   8  11
ENDBRANCH   1   9
BRANCH   6  18
ATOM     18  C   UNL     1      -3.862   1.642  -2.663  0.00  0.00    +0.120 C 
BRANCH  18  19
ATOM     19  C   UNL     1      -4.488   2.271  -3.881  0.00  0.00    +0.219 C 
ATOM     20  O   UNL     1      -3.811   2.498  -4.862  0.00  0.00    -0.275 OA
ATOM     21  N   UNL     1      -5.800   2.581  -3.881  0.00  0.00    -0.285 N 
ATOM     22  H   UNL     1      -6.430   2.306  -3.022  0.00  0.00    +0.155 HD
BRANCH  21  23
ATOM     23  C   UNL     1      -6.360   3.252  -4.974  0.00  0.00    +0.033 A 
ATOM     24  C   UNL     1      -7.377   4.176  -4.776  0.00  0.00    +0.025 A 
ATOM     25  C   UNL     1      -7.925   4.841  -5.855  0.00  0.00    +0.022 A 
ATOM     26  C   UNL     1      -7.469   4.578  -7.135  0.00  0.00    +0.041 A 
ATOM     27  C   UNL     1      -6.459   3.654  -7.336  0.00  0.00    +0.022 A 
ATOM     28  C   UNL     1      -5.904   2.990  -6.260  0.00  0.00    +0.025 A 
ATOM     29 CL   UNL     1      -8.165   5.410  -8.491  0.00  0.00    -0.084 Cl
ENDBRANCH  21  23
ENDBRANCH  18  19
ENDBRANCH   6  18
BRANCH   3  30
ATOM     30  C   UNL     1      -0.020   1.065   0.010  0.00  0.00    +0.189 C 
BRANCH  30  31
ATOM     31  C   UNL     1      -0.728   1.542   1.252  0.00  0.00    +0.123 A 
ATOM     32  C   UNL     1      -1.715   0.890   1.894  0.00  0.00    +0.046 A 
ATOM     33  C   UNL     1      -2.084   1.692   2.998  0.00  0.00    +0.041 A 
ATOM     34  C   UNL     1      -1.301   2.785   2.966  0.00  0.00    +0.195 A 
ATOM     35  O   UNL     1      -0.478   2.686   1.909  0.00  0.00    -0.466 OA
ENDBRANCH  30  31
ENDBRANCH   3  30
TORSDOF 8
