REMARK  Name = ZINC21255838
REMARK  2 active torsions:
REMARK  status: ('A' for Active; 'I' for Inactive)
REMARK    1  A    between atoms: C_4  and  C_7
REMARK    2  A    between atoms: C_12  and  C_18
REMARK                            x       y       z     vdW  Elec       q    Type
REMARK                         _______ _______ _______ _____ _____    ______ ____
ROOT
ATOM      1  C   UNL     1       2.035   5.305  -1.126  0.00  0.00    +0.032 C 
ATOM      2  C   UNL     1       2.406   3.974  -0.469  0.00  0.00    +0.059 C 
ATOM      3  C   UNL     1       1.154   3.266  -0.016  0.00  0.00    +0.018 C 
ATOM      4  C   UNL     1       0.065   3.964   0.369  0.00  0.00    +0.020 C 
ATOM      5  C   UNL     1      -1.174   3.233   0.830  0.00  0.00    +0.063 C 
ATOM      6  C   UNL     1      -1.331   1.942   0.019  0.00  0.00    +0.109 C 
ATOM      7  C   UNL     1      -0.014   1.208   0.009  0.00  0.00    +0.218 C 
ATOM      8  O   UNL     1       0.002  -0.004   0.002  0.00  0.00    -0.275 OA
ATOM      9  N   UNL     1       1.141   1.894   0.001  0.00  0.00    -0.289 N 
ATOM     10  C   UNL     1       0.053   5.369   0.351  0.00  0.00    +0.162 C 
ATOM     11  O   UNL     1      -0.942   5.963   0.716  0.00  0.00    -0.292 OA
ATOM     12  C   UNL     1       1.254   6.149  -0.113  0.00  0.00    +0.088 C 
ATOM     13  H   UNL     1       2.089   1.336   0.009  0.00  0.00    +0.155 HD
ENDROOT
BRANCH   5  14
ATOM     14  C   UNL     1      -1.047   2.901   2.294  0.00  0.00    -0.039 A 
ATOM     15  C   UNL     1      -0.009   2.100   2.733  0.00  0.00    +0.005 A 
ATOM     16  C   UNL     1       0.112   1.800   4.077  0.00  0.00    +0.020 A 
ATOM     17  C   UNL     1      -0.812   2.292   4.981  0.00  0.00    +0.041 A 
ATOM     18  C   UNL     1      -1.853   3.090   4.540  0.00  0.00    +0.020 A 
ATOM     19  C   UNL     1      -1.970   3.394   3.197  0.00  0.00    +0.005 A 
ATOM     20 CL   UNL     1      -0.665   1.910   6.668  0.00  0.00    -0.084 Cl
ENDBRANCH   5  14
BRANCH   1  24
ATOM     21  C   UNL     1       5.587   7.376  -2.281  0.00  0.00    +0.000 A 
ATOM     22  C   UNL     1       4.643   7.040  -3.233  0.00  0.00    +0.000 A 
ATOM     23  C   UNL     1       3.493   6.370  -2.859  0.00  0.00    +0.004 A 
ATOM     24  C   UNL     1       3.288   6.035  -1.533  0.00  0.00    -0.044 A 
ATOM     25  C   UNL     1       4.231   6.376  -0.581  0.00  0.00    +0.004 A 
ATOM     26  C   UNL     1       5.382   7.042  -0.956  0.00  0.00    +0.000 A 
ENDBRANCH   1  24
TORSDOF 2
