REMARK  Name = ZINC39682066
REMARK  6 active torsions:
REMARK  status: ('A' for Active; 'I' for Inactive)
REMARK    1  A    between atoms: C_1  and  C_2
REMARK    2  A    between atoms: C_4  and  C_7
REMARK    3  A    between atoms: C_7  and  N_8
REMARK    4  A    between atoms: C_9  and  C_11
REMARK    5  A    between atoms: C_22  and  C_24
REMARK    6  A    between atoms: C_24  and  C_25
REMARK                            x       y       z     vdW  Elec       q    Type
REMARK                         _______ _______ _______ _____ _____    ______ ____
ROOT
ATOM      1  C   UNL     1      -3.944  -4.371   3.033  0.00  0.00    +0.100 C 
ATOM      2  C   UNL     1      -4.338  -3.032   3.695  0.00  0.00    +0.121 C 
ATOM      3  N   UNL     1      -5.803  -2.933   3.499  0.00  0.00    -0.300 N 
ATOM      4  C   UNL     1      -6.297  -4.315   3.709  0.00  0.00    +0.115 C 
ATOM      5  C   UNL     1      -5.232  -5.212   3.048  0.00  0.00    -0.004 C 
ATOM      6  C   UNL     1      -5.026  -6.481   3.870  0.00  0.00    -0.010 C 
ATOM      7  C   UNL     1      -6.300  -7.328   3.821  0.00  0.00    -0.082 C 
ATOM      8  N   UNL     1      -6.610  -7.669   2.427  0.00  0.00    +0.379 N 
ATOM      9  C   UNL     1      -6.899  -6.448   1.666  0.00  0.00    -0.082 C 
ATOM     10  C   UNL     1      -5.650  -5.563   1.623  0.00  0.00    -0.010 C 
ATOM     11  C   UNL     1      -6.524  -1.835   3.198  0.00  0.00    +0.220 C 
ATOM     12  O   UNL     1      -7.728  -1.916   3.068  0.00  0.00    -0.275 OA
ATOM     13  H   UNL     1      -5.821  -8.143   2.014  0.00  0.00    -0.086 HD
ATOM     14  H   UNL     1      -7.415  -8.277   2.402  0.00  0.00    -0.086 HD
ENDROOT
BRANCH   1  16
ATOM     15  N   UNL     1      -2.597  -4.984   1.052  0.00  0.00    -0.309 N 
ATOM     16  C   UNL     1      -3.484  -4.141   1.617  0.00  0.00    +0.219 C 
ATOM     17  O   UNL     1      -3.911  -3.198   0.986  0.00  0.00    -0.275 OA
ATOM     18  H   UNL     1      -2.256  -5.739   1.556  0.00  0.00    +0.149 HD
BRANCH  15  19
ATOM     19  C   UNL     1      -2.149  -4.761  -0.325  0.00  0.00    +0.160 C 
BRANCH  19  23
ATOM     20  C   UNL     1       2.451  -6.720  -0.521  0.00  0.00    +0.073 C 
ATOM     21  C   UNL     1       0.965  -6.671  -0.767  0.00  0.00    +0.076 A 
ATOM     22  N   UNL     1       0.115  -5.734  -0.427  0.00  0.00    -0.248 NA
ATOM     23  C   UNL     1      -1.167  -5.835  -0.715  0.00  0.00    +0.066 A 
ATOM     24  C   UNL     1      -1.563  -6.952  -1.378  0.00  0.00    +0.071 A 
ATOM     25  S   UNL     1      -0.003  -7.803  -1.551  0.00  0.00    -0.080 S 
ENDBRANCH  19  23
ENDBRANCH  15  19
ENDBRANCH   1  16
BRANCH  11  26
ATOM     26  C   UNL     1      -5.835  -0.506   3.021  0.00  0.00    +0.131 C 
BRANCH  26  27
ATOM     27  C   UNL     1      -6.859   0.550   2.692  0.00  0.00    -0.039 A 
ATOM     28  C   UNL     1      -7.191   0.802   1.374  0.00  0.00    +0.005 A 
ATOM     29  C   UNL     1      -8.129   1.771   1.071  0.00  0.00    +0.020 A 
ATOM     30  C   UNL     1      -8.736   2.488   2.087  0.00  0.00    +0.041 A 
ATOM     31  C   UNL     1      -8.402   2.235   3.405  0.00  0.00    +0.020 A 
ATOM     32  C   UNL     1      -7.468   1.262   3.707  0.00  0.00    +0.005 A 
ATOM     33 CL   UNL     1      -9.914   3.705   1.707  0.00  0.00    -0.084 Cl
ENDBRANCH  26  27
ENDBRANCH  11  26
TORSDOF 5
