REMARK  Name = ZINC09112441
REMARK  7 active torsions:
REMARK  status: ('A' for Active; 'I' for Inactive)
REMARK    1  A    between atoms: C_1  and  C_2
REMARK    2  A    between atoms: C_2  and  N_4
REMARK    3  A    between atoms: N_9  and  C_10
REMARK    4  A    between atoms: C_10  and  O_24
REMARK    5  A    between atoms: C_12  and  O_22
REMARK    6  A    between atoms: N_14  and  C_16
REMARK    7  A    between atoms: O_22  and  C_23
REMARK                            x       y       z     vdW  Elec       q    Type
REMARK                         _______ _______ _______ _____ _____    ______ ____
ROOT
ATOM      1  C   UNL     1      -1.466  -1.272  -0.144  0.00  0.00    +0.240 C 
ATOM      2  C   UNL     1      -0.162  -0.652  -0.401  0.00  0.00    +0.150 C 
ATOM      3  C   UNL     1       1.048  -1.323  -0.593  0.00  0.00    +0.163 C 
ATOM      4  C   UNL     1       2.030  -0.378  -0.803  0.00  0.00    +0.144 C 
ATOM      5  N   UNL     1       1.461   0.854  -0.747  0.00  0.00    -0.225 N 
ATOM      6  N   UNL     1       0.092   0.695  -0.496  0.00  0.00    -0.252 N 
ATOM      7  H   UNL     1      -0.561   1.407  -0.410  0.00  0.00    +0.171 HD
ENDROOT
BRANCH   1  13
ATOM      8  N   UNL     1      -4.545   2.724  -3.829  0.00  0.00    -0.181 NA
ATOM      9  C   UNL     1      -4.040   1.918  -2.852  0.00  0.00    +0.057 C 
ATOM     10  C   UNL     1      -4.682   1.838  -1.610  0.00  0.00    +0.027 C 
ATOM     11  C   UNL     1      -4.178   1.032  -0.632  0.00  0.00    +0.030 C 
ATOM     12  C   UNL     1      -3.016   0.283  -0.871  0.00  0.00    +0.068 C 
ATOM     13  N   UNL     1      -2.513  -0.520   0.102  0.00  0.00    -0.212 NA
ATOM     14  C   UNL     1      -2.370   0.369  -2.114  0.00  0.00    +0.030 C 
ATOM     15  C   UNL     1      -2.879   1.171  -3.092  0.00  0.00    +0.027 C 
BRANCH   8  17
ATOM     16  C   UNL     1      -6.098   4.443  -4.621  0.00  0.00    +0.111 C 
ATOM     17  C   UNL     1      -5.433   3.649  -3.526  0.00  0.00    +0.234 C 
ATOM     18  O   UNL     1      -5.716   3.863  -2.360  0.00  0.00    -0.274 OA
ENDBRANCH   8  17
ENDBRANCH   1  13
BRANCH   5  19
ATOM     19  C   UNL     1       2.126   2.070  -0.912  0.00  0.00    +0.053 A 
ATOM     20  C   UNL     1       1.443   3.267  -0.732  0.00  0.00    +0.025 A 
ATOM     21  C   UNL     1       2.105   4.468  -0.890  0.00  0.00    +0.002 A 
ATOM     22  C   UNL     1       3.443   4.481  -1.238  0.00  0.00    +0.000 A 
ATOM     23  C   UNL     1       4.125   3.292  -1.424  0.00  0.00    +0.002 A 
ATOM     24  C   UNL     1       3.470   2.087  -1.262  0.00  0.00    +0.025 A 
ENDBRANCH   5  19
BRANCH   3  25
ATOM     25  O   UNL     1       1.227  -2.672  -0.574  0.00  0.00    -0.492 OA
ATOM     26  C   UNL     1       2.554  -3.154  -0.793  0.00  0.00    +0.277 C 
ENDBRANCH   3  25
BRANCH   1  27
ATOM     27  O   UNL     1      -1.590  -2.621  -0.161  0.00  0.00    -0.491 OA
ATOM     28  H   UNL     1      -2.486  -2.936   0.019  0.00  0.00    +0.294 HD
ENDBRANCH   1  27
TORSDOF 5
