REMARK  Name = ZINC09361365
REMARK  13 active torsions:
REMARK  status: ('A' for Active; 'I' for Inactive)
REMARK    1  A    between atoms: C_1  and  C_2
REMARK    2  A    between atoms: C_2  and  O_3
REMARK    3  A    between atoms: O_3  and  C_4
REMARK    4  A    between atoms: C_7  and  C_12
REMARK    5  A    between atoms: C_9  and  O_10
REMARK    6  A    between atoms: O_10  and  C_11
REMARK    7  A    between atoms: C_19  and  N_35
REMARK    8  A    between atoms: C_20  and  C_33
REMARK    9  A    between atoms: C_21  and  C_23
REMARK   10  A    between atoms: C_27  and  O_31
REMARK   11  A    between atoms: C_28  and  O_29
REMARK   12  A    between atoms: O_29  and  C_30
REMARK   13  A    between atoms: O_31  and  C_32
REMARK                            x       y       z     vdW  Elec       q    Type
REMARK                         _______ _______ _______ _____ _____    ______ ____
ROOT
ATOM      1  C   UNL     1       0.483  -6.440  -2.340  0.00  0.00    +0.100 A 
ATOM      2  C   UNL     1       1.045  -7.250  -1.350  0.00  0.00    +0.054 A 
ATOM      3  C   UNL     1       0.934  -8.550  -1.753  0.00  0.00    +0.223 A 
ATOM      4  N   UNL     1       0.321  -8.555  -2.955  0.00  0.00    -0.246 N 
ATOM      5  H   UNL     1       0.107  -9.340  -3.483  0.00  0.00    +0.192 HD
ATOM      6  N   UNL     1       0.041  -7.225  -3.305  0.00  0.00    -0.171 NA
ATOM      7  O   UNL     1       1.390  -9.589  -1.010  0.00  0.00    -0.423 OA
ATOM      8  C   UNL     1       2.209  -9.306   0.023  0.00  0.00    +0.200 C 
ATOM      9  C   UNL     1       2.392  -8.062   0.519  0.00  0.00    +0.098 C 
ATOM     10  C   UNL     1       1.681  -6.856  -0.042  0.00  0.00    +0.105 C 
ENDROOT
BRANCH   1  14
ATOM     11  C   UNL     1       0.231  -2.191  -2.251  0.00  0.00    +0.162 A 
ATOM     12  C   UNL     1       1.402  -2.825  -1.865  0.00  0.00    +0.050 A 
ATOM     13  C   UNL     1       1.486  -4.202  -1.893  0.00  0.00    +0.014 A 
ATOM     14  C   UNL     1       0.393  -4.959  -2.310  0.00  0.00    +0.006 A 
ATOM     15  C   UNL     1      -0.785  -4.323  -2.698  0.00  0.00    +0.059 A 
ATOM     16  C   UNL     1      -0.867  -2.943  -2.663  0.00  0.00    +0.162 A 
BRANCH  16  17
ATOM     17  O   UNL     1      -2.016  -2.320  -3.037  0.00  0.00    -0.491 OA
ATOM     18  C   UNL     1      -3.102  -3.153  -3.448  0.00  0.00    +0.277 C 
ENDBRANCH  16  17
BRANCH  11  19
ATOM     19  O   UNL     1       0.151  -0.834  -2.222  0.00  0.00    -0.489 OA
BRANCH  19  21
ATOM     20  C   UNL     1       1.037   1.379  -1.823  0.00  0.00    +0.048 C 
ATOM     21  C   UNL     1       1.314  -0.125  -1.789  0.00  0.00    +0.226 C 
ENDBRANCH  19  21
ENDBRANCH  11  19
ENDBRANCH   1  14
BRANCH  10  22
ATOM     22  C   UNL     1       0.618  -6.398   0.923  0.00  0.00    +0.011 A 
ATOM     23  C   UNL     1       0.820  -5.263   1.686  0.00  0.00    +0.008 A 
ATOM     24  C   UNL     1      -0.154  -4.840   2.572  0.00  0.00    +0.004 A 
ATOM     25  C   UNL     1      -1.333  -5.550   2.699  0.00  0.00    +0.049 A 
ATOM     26  C   UNL     1      -1.542  -6.688   1.937  0.00  0.00    +0.162 A 
ATOM     27  C   UNL     1      -0.564  -7.111   1.040  0.00  0.00    +0.166 A 
BRANCH  27  28
ATOM     28  O   UNL     1      -0.766  -8.224   0.286  0.00  0.00    -0.491 OA
ATOM     29  C   UNL     1      -0.536  -9.485   0.917  0.00  0.00    +0.277 C 
ENDBRANCH  27  28
BRANCH  26  30
ATOM     30  O   UNL     1      -2.701  -7.388   2.061  0.00  0.00    -0.491 OA
ATOM     31  C   UNL     1      -3.661  -6.893   2.996  0.00  0.00    +0.277 C 
ENDBRANCH  26  30
ENDBRANCH  10  22
BRANCH   8  32
ATOM     32  N   UNL     1       2.898 -10.341   0.604  0.00  0.00    -0.328 N 
ATOM     33  H   UNL     1       2.787 -11.245   0.270  0.00  0.00    +0.145 HD
ATOM     34  H   UNL     1       3.495 -10.169   1.349  0.00  0.00    +0.145 HD
ENDBRANCH   8  32
BRANCH   9  35
ATOM     35  C   UNL     1       3.292  -7.883   1.618  0.00  0.00    +0.101 C 
ATOM     36  N   UNL     1       4.007  -7.741   2.490  0.00  0.00    -0.191 NA
ENDBRANCH   9  35
TORSDOF 9
