REMARK  Name = ZINC11592085
REMARK  7 active torsions:
REMARK  status: ('A' for Active; 'I' for Inactive)
REMARK    1  A    between atoms: C_1  and  C_2
REMARK    2  A    between atoms: C_8  and  C_10
REMARK    3  A    between atoms: C_10  and  C_12
REMARK    4  A    between atoms: C_10  and  S_13
REMARK    5  A    between atoms: S_13  and  C_14
REMARK    6  A    between atoms: C_17  and  C_20
REMARK    7  A    between atoms: N_18  and  N_19
REMARK                            x       y       z     vdW  Elec       q    Type
REMARK                         _______ _______ _______ _____ _____    ______ ____
ROOT
ATOM      1  C   UNL     1       0.129   6.123  -5.766  0.00  0.00    +0.209 A 
ATOM      2  N   UNL     1      -1.174   6.010  -5.651  0.00  0.00    -0.121 NA
ATOM      3  N   UNL     1      -1.743   6.286  -6.769  0.00  0.00    -0.126 NA
ATOM      4  C   UNL     1      -0.836   6.594  -7.670  0.00  0.00    +0.188 A 
ATOM      5  N   UNL     1       0.392   6.504  -7.053  0.00  0.00    -0.223 N 
ENDROOT
BRANCH   4   6
ATOM      6  C   UNL     1      -1.086   6.969  -9.071  0.00  0.00    +0.058 A 
ATOM      7  C   UNL     1      -2.263   7.343  -9.670  0.00  0.00    +0.019 A 
ATOM      8  C   UNL     1      -2.251   7.657 -11.010  0.00  0.00    +0.008 A 
ATOM      9  C   UNL     1      -1.084   7.576 -11.700  0.00  0.00    +0.046 A 
ATOM     10  S   UNL     1       0.062   7.048 -10.437  0.00  0.00    -0.093 S 
ENDBRANCH   4   6
BRANCH   5  11
ATOM     11  N   UNL     1       1.616   6.743  -7.610  0.00  0.00    -0.295 N 
ATOM     12  H   UNL     1       2.000   5.902  -8.013  0.00  0.00    +0.163 HD
ATOM     13  H   UNL     1       1.563   7.482  -8.295  0.00  0.00    +0.163 HD
ENDBRANCH   5  11
BRANCH   1  14
ATOM     14  S   UNL     1       1.318   5.843  -4.496  0.00  0.00    -0.072 S 
BRANCH  14  15
ATOM     15  C   UNL     1       0.220   5.393  -3.130  0.00  0.00    +0.137 C 
ATOM     16  C   UNL     1      -0.652   6.595  -2.759  0.00  0.00    +0.029 C 
BRANCH  15  24
ATOM     17  C   UNL     1      -1.481   3.611   2.696  0.00  0.00    +0.007 C 
ATOM     18  C   UNL     1      -0.774   3.349   1.365  0.00  0.00    -0.011 C 
ATOM     19  C   UNL     1       0.637   3.941   1.411  0.00  0.00    +0.022 C 
ATOM     20  C   UNL     1       1.354   3.646   0.090  0.00  0.00    +0.108 C 
ATOM     21  N   UNL     1       0.527   4.144  -1.018  0.00  0.00    -0.301 N 
ATOM     22  C   UNL     1      -0.873   3.707  -1.105  0.00  0.00    +0.108 C 
ATOM     23  C   UNL     1      -1.566   4.001   0.229  0.00  0.00    +0.022 C 
ATOM     24  C   UNL     1       1.043   4.983  -1.937  0.00  0.00    +0.229 C 
ATOM     25  O   UNL     1       2.171   5.409  -1.803  0.00  0.00    -0.274 OA
ENDBRANCH  15  24
ENDBRANCH  14  15
ENDBRANCH   1  14
TORSDOF 5
