REMARK  Name = ZINC02248082
REMARK  6 active torsions:
REMARK  status: ('A' for Active; 'I' for Inactive)
REMARK    1  A    between atoms: C_1  and  C_2
REMARK    2  A    between atoms: C_7  and  N_24
REMARK    3  A    between atoms: C_8  and  C_13
REMARK    4  A    between atoms: N_17  and  C_21
REMARK    5  A    between atoms: C_21  and  C_22
REMARK    6  A    between atoms: N_27  and  C_30
REMARK                            x       y       z     vdW  Elec       q    Type
REMARK                         _______ _______ _______ _____ _____    ______ ____
ROOT
ATOM      1  C   UNL     1      -3.279  -2.401   4.842  0.00  0.00    +0.045 C 
ATOM      2  C   UNL     1      -4.007  -2.735   3.565  0.00  0.00    -0.034 A 
ATOM      3  C   UNL     1      -5.007  -3.717   3.566  0.00  0.00    +0.008 A 
ATOM      4  C   UNL     1      -5.660  -4.012   2.406  0.00  0.00    +0.047 A 
ATOM      5  C   UNL     1      -5.322  -3.327   1.226  0.00  0.00    +0.142 A 
ATOM      6  N   UNL     1      -5.967  -3.622   0.097  0.00  0.00    -0.214 NA
ATOM      7  C   UNL     1      -5.689  -3.008  -1.044  0.00  0.00    +0.136 A 
ATOM      8  C   UNL     1      -4.683  -2.013  -1.073  0.00  0.00    +0.081 A 
ATOM      9  C   UNL     1      -4.001  -1.712   0.129  0.00  0.00    +0.267 A 
ATOM     10  O   UNL     1      -3.124  -0.866   0.149  0.00  0.00    -0.267 OA
ATOM     11  N   UNL     1      -4.342  -2.375   1.256  0.00  0.00    -0.267 N 
ATOM     12  C   UNL     1      -3.694  -2.087   2.421  0.00  0.00    +0.099 A 
ENDROOT
BRANCH   8  13
ATOM     13  C   UNL     1      -4.364  -1.340  -2.276  0.00  0.00    +0.037 C 
ATOM     14  C   UNL     1      -4.621  -0.006  -2.400  0.00  0.00    +0.077 C 
ATOM     15  C   UNL     1      -5.254   0.884  -1.486  0.00  0.00    +0.259 C 
ATOM     16  O   UNL     1      -5.660   0.489  -0.407  0.00  0.00    -0.269 OA
ATOM     17  N   UNL     1      -5.389   2.150  -1.840  0.00  0.00    -0.252 N 
ATOM     18  C   UNL     1      -4.944   2.587  -3.040  0.00  0.00    +0.121 C 
ATOM     19  S   UNL     1      -5.019   4.163  -3.703  0.00  0.00    -0.027 S 
ATOM     20  S   UNL     1      -4.257   1.101  -3.756  0.00  0.00    -0.061 S 
BRANCH  17  21
ATOM     21  C   UNL     1      -6.035   3.092  -0.923  0.00  0.00    +0.141 C 
BRANCH  21  22
ATOM     22  C   UNL     1      -4.996   3.712  -0.026  0.00  0.00    -0.015 C 
ATOM     23  C   UNL     1      -4.881   5.016   0.039  0.00  0.00    +0.005 C 
ENDBRANCH  21  22
ENDBRANCH  17  21
ENDBRANCH   8  13
BRANCH   7  24
ATOM     24  N   UNL     1      -6.374  -3.336  -2.194  0.00  0.00    -0.312 N 
ATOM     25  C   UNL     1      -7.189  -2.207  -2.662  0.00  0.00    +0.125 C 
ATOM     26  C   UNL     1      -7.870  -2.584  -3.980  0.00  0.00    +0.124 C 
ATOM     27  N   UNL     1      -8.699  -3.780  -3.775  0.00  0.00    -0.327 N 
ATOM     28  C   UNL     1      -7.883  -4.909  -3.308  0.00  0.00    +0.124 C 
ATOM     29  C   UNL     1      -7.203  -4.532  -1.989  0.00  0.00    +0.125 C 
BRANCH  27  30
ATOM     30  C   UNL     1      -9.394  -4.113  -4.942  0.00  0.00    +0.030 A 
ATOM     31  C   UNL     1      -9.250  -5.376  -5.501  0.00  0.00    +0.026 A 
ATOM     32  C   UNL     1      -9.941  -5.705  -6.650  0.00  0.00    +0.040 A 
ATOM     33  C   UNL     1     -10.769  -4.772  -7.252  0.00  0.00    +0.124 A 
ATOM     34  C   UNL     1     -10.910  -3.510  -6.700  0.00  0.00    +0.040 A 
ATOM     35  C   UNL     1     -10.225  -3.179  -5.547  0.00  0.00    +0.026 A 
ATOM     36  F   UNL     1     -11.440  -5.094  -8.379  0.00  0.00    -0.205 F 
ENDBRANCH  27  30
ENDBRANCH   7  24
TORSDOF 5
