REMARK  Name = ZINC09237148
REMARK  6 active torsions:
REMARK  status: ('A' for Active; 'I' for Inactive)
REMARK    1  A    between atoms: C_1  and  C_2
REMARK    2  A    between atoms: C_4  and  C_38
REMARK    3  A    between atoms: C_9  and  C_27
REMARK    4  A    between atoms: C_11  and  C_18
REMARK    5  A    between atoms: C_21  and  N_24
REMARK    6  A    between atoms: C_27  and  C_29
REMARK                            x       y       z     vdW  Elec       q    Type
REMARK                         _______ _______ _______ _____ _____    ______ ____
ROOT
ATOM      1  C   UNL     1      -6.614   4.206   0.300  0.00  0.00    +0.044 C 
ATOM      2  C   UNL     1      -5.594   3.417   1.079  0.00  0.00    -0.050 A 
ATOM      3  C   UNL     1      -5.702   3.311   2.454  0.00  0.00    +0.008 A 
ATOM      4  C   UNL     1      -4.772   2.588   3.172  0.00  0.00    -0.029 A 
ATOM      5  C   UNL     1      -3.716   1.960   2.518  0.00  0.00    +0.039 A 
ATOM      6  C   UNL     1      -3.615   2.076   1.135  0.00  0.00    -0.027 A 
ATOM      7  C   UNL     1      -4.546   2.797   0.422  0.00  0.00    +0.008 A 
ATOM      8  C   UNL     1      -2.388   1.301   0.747  0.00  0.00    +0.052 C 
ATOM      9  C   UNL     1      -1.358   2.206   0.044  0.00  0.00    +0.069 C 
ATOM     10  C   UNL     1      -1.859   2.160  -1.426  0.00  0.00    +0.016 C 
ATOM     11  C   UNL     1      -2.417   0.728  -1.561  0.00  0.00    -0.047 C 
ATOM     12  C   UNL     1      -1.989  -1.014   0.183  0.00  0.00    -0.005 C 
ATOM     13  S   UNL     1      -1.540  -1.726  -1.453  0.00  0.00    -0.181 S 
ATOM     14  C   UNL     1      -1.397  -0.119  -2.356  0.00  0.00    +0.052 C 
ATOM     15  C   UNL     1      -1.842   0.758   2.038  0.00  0.00    +0.212 C 
ATOM     16  O   UNL     1      -0.853   0.070   2.174  0.00  0.00    -0.277 OA
ATOM     17  N   UNL     1      -2.666   1.185   3.015  0.00  0.00    -0.286 N 
ATOM     18  C   UNL     1      -4.901   2.478   4.670  0.00  0.00    +0.045 C 
ATOM     19  H   UNL     1      -2.543   0.978   3.955  0.00  0.00    +0.155 HD
ATOM     20  N   UNL     1      -2.735   0.247  -0.190  0.00  0.00    +0.401 N 
ATOM     21  H   UNL     1      -3.742   0.057  -0.134  0.00  0.00    -0.078 HD
ENDROOT
BRANCH  10  22
ATOM     22  C   UNL     1      -0.716   2.378  -2.384  0.00  0.00    -0.045 A 
ATOM     23  C   UNL     1       0.481   1.714  -2.195  0.00  0.00    +0.006 A 
ATOM     24  C   UNL     1       1.528   1.911  -3.076  0.00  0.00    +0.033 A 
ATOM     25  C   UNL     1       1.380   2.779  -4.142  0.00  0.00    +0.126 A 
ATOM     26  C   UNL     1       0.184   3.447  -4.328  0.00  0.00    +0.033 A 
ATOM     27  C   UNL     1      -0.864   3.247  -3.449  0.00  0.00    +0.006 A 
BRANCH  25  28
ATOM     28  N   UNL     1       2.502   2.993  -5.083  0.00  0.00    +0.056 N 
ATOM     29  O   UNL     1       2.372   3.757  -6.023  0.00  0.00    -0.126 OA
ATOM     30  O   UNL     1       3.555   2.404  -4.919  0.00  0.00    -0.126 OA
ENDBRANCH  25  28
ENDBRANCH  10  22
BRANCH   9  31
ATOM     31  C   UNL     1       0.032   1.635   0.161  0.00  0.00    +0.166 C 
ATOM     32  O   UNL     1       0.190   0.434   0.225  0.00  0.00    -0.292 OA
BRANCH  31  33
ATOM     33  C   UNL     1       1.196   2.534   0.190  0.00  0.00    +0.018 A 
ATOM     34  C   UNL     1       1.018   3.918   0.110  0.00  0.00    +0.011 A 
ATOM     35  C   UNL     1       2.114   4.754   0.144  0.00  0.00    +0.001 A 
ATOM     36  C   UNL     1       3.389   4.226   0.245  0.00  0.00    +0.000 A 
ATOM     37  C   UNL     1       3.574   2.856   0.319  0.00  0.00    +0.001 A 
ATOM     38  C   UNL     1       2.488   2.007   0.292  0.00  0.00    +0.011 A 
ENDBRANCH  31  33
ENDBRANCH   9  31
TORSDOF 4
