REMARK  Name = ZINC05099911
REMARK  9 active torsions:
REMARK  status: ('A' for Active; 'I' for Inactive)
REMARK    1  A    between atoms: C_1  and  C_2
REMARK    2  A    between atoms: C_2  and  O_3
REMARK    3  A    between atoms: O_3  and  C_4
REMARK    4  A    between atoms: C_7  and  C_10
REMARK    5  A    between atoms: C_13  and  S_16
REMARK    6  A    between atoms: N_14  and  N_15
REMARK    7  A    between atoms: S_16  and  C_17
REMARK    8  A    between atoms: C_17  and  C_18
REMARK    9  A    between atoms: C_23  and  C_24
REMARK                            x       y       z     vdW  Elec       q    Type
REMARK                         _______ _______ _______ _____ _____    ______ ____
ROOT
ATOM      1  C   UNL     1       0.002  -0.004   0.002  0.00  0.00    +0.182 A 
ATOM      2  N   UNL     1       1.035  -0.772   0.262  0.00  0.00    -0.127 NA
ATOM      3  N   UNL     1       0.698  -2.008   0.164  0.00  0.00    -0.121 NA
ATOM      4  C   UNL     1      -0.571  -2.106  -0.163  0.00  0.00    +0.209 A 
ATOM      5  N   UNL     1      -1.060  -0.835  -0.273  0.00  0.00    -0.224 N 
ENDROOT
BRANCH   1   9
ATOM      6  C   UNL     1      -0.056   4.245   0.025  0.00  0.00    +0.121 A 
ATOM      7  C   UNL     1       1.157   3.568   0.010  0.00  0.00    +0.046 A 
ATOM      8  C   UNL     1       1.180   2.190   0.003  0.00  0.00    +0.015 A 
ATOM      9  C   UNL     1      -0.018   1.474   0.010  0.00  0.00    +0.021 A 
ATOM     10  C   UNL     1      -1.235   2.157   0.020  0.00  0.00    +0.015 A 
ATOM     11  C   UNL     1      -1.250   3.536   0.033  0.00  0.00    +0.046 A 
BRANCH   6  12
ATOM     12  O   UNL     1      -0.074   5.603   0.033  0.00  0.00    -0.492 OA
BRANCH  12  14
ATOM     13  C   UNL     1      -1.176   7.754   0.054  0.00  0.00    +0.048 C 
ATOM     14  C   UNL     1      -1.356   6.234   0.048  0.00  0.00    +0.225 C 
ENDBRANCH  12  14
ENDBRANCH   6  12
ENDBRANCH   1   9
BRANCH   5  15
ATOM     15  N   UNL     1      -2.335  -0.466  -0.593  0.00  0.00    -0.295 N 
ATOM     16  H   UNL     1      -2.442  -0.360  -1.591  0.00  0.00    +0.163 HD
ATOM     17  H   UNL     1      -3.005  -1.125  -0.225  0.00  0.00    +0.163 HD
ENDBRANCH   5  15
BRANCH   4  18
ATOM     18  S   UNL     1      -1.475  -3.598  -0.408  0.00  0.00    -0.080 S 
BRANCH  18  19
ATOM     19  C   UNL     1      -0.172  -4.812  -0.083  0.00  0.00    +0.112 C 
BRANCH  19  20
ATOM     20  C   UNL     1      -0.732  -6.203  -0.238  0.00  0.00    -0.034 A 
ATOM     21  C   UNL     1      -1.282  -6.852   0.852  0.00  0.00    +0.005 A 
ATOM     22  C   UNL     1      -1.799  -8.126   0.708  0.00  0.00    +0.000 A 
ATOM     23  C   UNL     1      -1.757  -8.755  -0.522  0.00  0.00    +0.000 A 
ATOM     24  C   UNL     1      -1.202  -8.107  -1.610  0.00  0.00    +0.003 A 
ATOM     25  C   UNL     1      -0.690  -6.831  -1.468  0.00  0.00    -0.046 A 
ATOM     26  C   UNL     1      -0.085  -6.126  -2.654  0.00  0.00    +0.044 C 
ENDBRANCH  19  20
ENDBRANCH  18  19
ENDBRANCH   4  18
TORSDOF 7
