REMARK  Name = ZINC13536752
REMARK  4 active torsions:
REMARK  status: ('A' for Active; 'I' for Inactive)
REMARK    1  A    between atoms: C_13  and  C_14
REMARK    2  A    between atoms: C_17  and  O_20
REMARK    3  A    between atoms: O_20  and  C_21
REMARK    4  A    between atoms: C_21  and  C_22
REMARK                            x       y       z     vdW  Elec       q    Type
REMARK                         _______ _______ _______ _____ _____    ______ ____
ROOT
ATOM      1  C   UNL     1       2.059   1.566   1.762  0.00  0.00    +0.002 A 
ATOM      2  C   UNL     1       0.942   2.195   1.232  0.00  0.00    +0.002 A 
ATOM      3  C   UNL     1      -0.192   1.467   0.928  0.00  0.00    +0.028 A 
ATOM      4  C   UNL     1      -0.210   0.101   1.155  0.00  0.00    +0.077 A 
ATOM      5  C   UNL     1       0.914  -0.542   1.689  0.00  0.00    +0.091 A 
ATOM      6  C   UNL     1       2.055   0.207   1.992  0.00  0.00    +0.030 A 
ATOM      7  N   UNL     1       0.608  -1.861   1.797  0.00  0.00    -0.221 NA
ATOM      8  C   UNL     1      -0.607  -2.059   1.372  0.00  0.00    +0.182 A 
ATOM      9  N   UNL     1      -1.191  -0.888   0.952  0.00  0.00    -0.253 N 
ATOM     10  C   UNL     1      -2.448  -0.927   0.484  0.00  0.00    +0.272 A 
ATOM     11  O   UNL     1      -3.007   0.084   0.102  0.00  0.00    -0.266 OA
ATOM     12  C   UNL     1      -3.127  -2.229   0.450  0.00  0.00    +0.081 A 
ATOM     13  C   UNL     1      -4.381  -2.537   0.028  0.00  0.00    +0.028 C 
ATOM     14  S   UNL     1      -1.858  -3.298   1.111  0.00  0.00    -0.046 S 
ENDROOT
BRANCH  13  15
ATOM     15  C   UNL     1      -4.797  -3.941  -0.073  0.00  0.00    -0.024 A 
ATOM     16  C   UNL     1      -3.836  -4.960  -0.086  0.00  0.00    +0.011 A 
ATOM     17  C   UNL     1      -4.233  -6.275  -0.175  0.00  0.00    +0.046 A 
ATOM     18  C   UNL     1      -5.583  -6.593  -0.264  0.00  0.00    +0.121 A 
ATOM     19  C   UNL     1      -6.541  -5.585  -0.258  0.00  0.00    +0.046 A 
ATOM     20  C   UNL     1      -6.156  -4.267  -0.163  0.00  0.00    +0.011 A 
BRANCH  18  21
ATOM     21  O   UNL     1      -5.968  -7.891  -0.357  0.00  0.00    -0.483 OA
BRANCH  21  22
ATOM     22  C   UNL     1      -4.933  -8.876  -0.358  0.00  0.00    +0.324 C 
BRANCH  22  23
ATOM     23  C   UNL     1      -5.546 -10.249  -0.468  0.00  0.00    +0.248 C 
ATOM     24  O   UNL     1      -6.750 -10.371  -0.538  0.00  0.00    -0.272 OA
ATOM     25  N   UNL     1      -4.755 -11.340  -0.488  0.00  0.00    -0.327 N 
ATOM     26  H   UNL     1      -3.792 -11.242  -0.432  0.00  0.00    +0.145 HD
ATOM     27  H   UNL     1      -5.149 -12.223  -0.559  0.00  0.00    +0.145 HD
ENDBRANCH  22  23
ENDBRANCH  21  22
ENDBRANCH  18  21
ENDBRANCH  13  15
TORSDOF 4
