REMARK  Name = ZINC38681799
REMARK  15 active torsions:
REMARK  status: ('A' for Active; 'I' for Inactive)
REMARK    1  A    between atoms: C_1  and  C_2
REMARK    2  A    between atoms: C_2  and  C_3
REMARK    3  A    between atoms: C_3  and  O_4
REMARK    4  A    between atoms: O_4  and  C_5
REMARK    5  A    between atoms: C_10  and  C_11
REMARK    6  A    between atoms: C_16  and  O_25
REMARK    7  A    between atoms: C_20  and  N_24
REMARK    8  A    between atoms: C_21  and  C_22
REMARK    9  A    between atoms: O_25  and  C_26
REMARK   10  A    between atoms: C_26  and  C_28
REMARK   11  A    between atoms: C_28  and  C_30
REMARK   12  A    between atoms: C_28  and  O_31
REMARK   13  A    between atoms: O_31  and  C_32
REMARK   14  A    between atoms: C_35  and  C_38
REMARK   15  A    between atoms: C_38  and  C_39
REMARK                            x       y       z     vdW  Elec       q    Type
REMARK                         _______ _______ _______ _____ _____    ______ ____
ROOT
ATOM      1  C   UNL     1       0.990  -4.959  -1.318  0.00  0.00    +0.101 C 
ATOM      2  C   UNL     1      -0.136  -5.780  -1.889  0.00  0.00    +0.008 A 
ATOM      3  C   UNL     1      -1.372  -5.191  -2.091  0.00  0.00    +0.012 A 
ATOM      4  C   UNL     1      -2.416  -5.928  -2.614  0.00  0.00    +0.047 A 
ATOM      5  C   UNL     1      -2.228  -7.264  -2.940  0.00  0.00    +0.135 A 
ATOM      6  C   UNL     1      -0.991  -7.856  -2.740  0.00  0.00    +0.093 A 
ATOM      7  C   UNL     1       0.058  -7.113  -2.214  0.00  0.00    +0.138 A 
ATOM      8  O   UNL     1       1.262  -7.707  -2.023  0.00  0.00    -0.441 OA
ATOM      9  C   UNL     1       2.155  -7.158  -1.183  0.00  0.00    +0.199 C 
ATOM     10  C   UNL     1       2.081  -5.861  -0.812  0.00  0.00    +0.098 C 
ENDROOT
BRANCH   1  16
ATOM     11  C   UNL     1       1.516  -2.681  -2.223  0.00  0.00    +0.125 A 
ATOM     12  C   UNL     1       2.032  -1.853  -3.210  0.00  0.00    +0.046 A 
ATOM     13  C   UNL     1       2.570  -2.402  -4.358  0.00  0.00    +0.004 A 
ATOM     14  C   UNL     1       2.593  -3.775  -4.524  0.00  0.00    +0.001 A 
ATOM     15  C   UNL     1       2.079  -4.601  -3.543  0.00  0.00    +0.008 A 
ATOM     16  C   UNL     1       1.545  -4.058  -2.390  0.00  0.00    +0.007 A 
BRANCH  11  17
ATOM     17  O   UNL     1       0.987  -2.144  -1.092  0.00  0.00    -0.492 OA
BRANCH  17  18
ATOM     18  C   UNL     1       0.990  -0.718  -0.988  0.00  0.00    +0.229 C 
BRANCH  18  20
ATOM     19  C   UNL     1       0.362   1.223   0.454  0.00  0.00    +0.007 C 
ATOM     20  C   UNL     1       0.359  -0.303   0.342  0.00  0.00    +0.038 C 
ENDBRANCH  18  20
ENDBRANCH  17  18
ENDBRANCH  11  17
ENDBRANCH   1  16
BRANCH   9  21
ATOM     21  N   UNL     1       3.171  -7.937  -0.689  0.00  0.00    -0.328 N 
ATOM     22  H   UNL     1       3.237  -8.869  -0.948  0.00  0.00    +0.145 HD
ATOM     23  H   UNL     1       3.824  -7.554  -0.082  0.00  0.00    +0.145 HD
ENDBRANCH   9  21
BRANCH  10  24
ATOM     24  C   UNL     1       3.065  -5.336   0.086  0.00  0.00    +0.101 C 
ATOM     25  N   UNL     1       3.846  -4.919   0.798  0.00  0.00    -0.191 NA
ENDBRANCH  10  24
BRANCH   5  26
ATOM     26  O   UNL     1      -3.255  -7.991  -3.455  0.00  0.00    -0.423 OA
BRANCH  26  27
ATOM     27  C   UNL     1      -3.762  -8.983  -2.707  0.00  0.00    +0.353 C 
ATOM     28  O   UNL     1      -3.372  -9.146  -1.574  0.00  0.00    -0.246 OA
BRANCH  27  29
ATOM     29  C   UNL     1      -4.816  -9.895  -3.279  0.00  0.00    +0.279 C 
ATOM     30  C   UNL     1      -4.221 -10.701  -4.435  0.00  0.00    +0.064 C 
BRANCH  29  31
ATOM     31  O   UNL     1      -5.276 -10.788  -2.262  0.00  0.00    -0.478 OA
BRANCH  31  32
ATOM     32  C   UNL     1      -6.509 -11.335  -2.433  0.00  0.00    +0.122 A 
ATOM     33  C   UNL     1      -6.989 -12.264  -1.522  0.00  0.00    +0.046 A 
ATOM     34  C   UNL     1      -8.242 -12.818  -1.697  0.00  0.00    +0.007 A 
ATOM     35  C   UNL     1      -9.017 -12.448  -2.781  0.00  0.00    -0.047 A 
ATOM     36  C   UNL     1      -8.541 -11.523  -3.691  0.00  0.00    +0.007 A 
ATOM     37  C   UNL     1      -7.291 -10.961  -3.516  0.00  0.00    +0.046 A 
BRANCH  35  38
ATOM     38  C   UNL     1     -10.384 -13.055  -2.970  0.00  0.00    +0.032 C 
ATOM     39  C   UNL     1     -11.427 -12.194  -2.254  0.00  0.00    +0.009 C 
ENDBRANCH  35  38
ENDBRANCH  31  32
ENDBRANCH  29  31
ENDBRANCH  27  29
ENDBRANCH  26  27
ENDBRANCH   5  26
TORSDOF 12
