REMARK  Name = ZINC12624638
REMARK  11 active torsions:
REMARK  status: ('A' for Active; 'I' for Inactive)
REMARK    1  A    between atoms: C_1  and  C_2
REMARK    2  A    between atoms: C_6  and  O_8
REMARK    3  A    between atoms: O_8  and  C_9
REMARK    4  A    between atoms: C_9  and  C_10
REMARK    5  A    between atoms: N_12  and  C_13
REMARK    6  A    between atoms: C_13  and  C_15
REMARK    7  A    between atoms: C_13  and  C_26
REMARK    8  A    between atoms: C_15  and  C_16
REMARK    9  A    between atoms: C_26  and  O_28
REMARK   10  A    between atoms: O_28  and  C_29
REMARK   11  A    between atoms: C_29  and  C_30
REMARK                            x       y       z     vdW  Elec       q    Type
REMARK                         _______ _______ _______ _____ _____    ______ ____
ROOT
ATOM      1  C   UNL     1       4.174   0.620   1.404  0.00  0.00    +0.186 C 
ENDROOT
BRANCH   1   4
ATOM      2  C   UNL     1       2.646   2.151   2.524  0.00  0.00    +0.251 C 
ATOM      3  O   UNL     1       1.831   1.254   2.576  0.00  0.00    -0.272 OA
ATOM      4  N   UNL     1       3.849   1.937   1.957  0.00  0.00    -0.299 N 
ATOM      5  H   UNL     1       4.501   2.654   1.916  0.00  0.00    +0.150 HD
BRANCH   2   6
ATOM      6  C   UNL     1       2.312   3.506   3.093  0.00  0.00    +0.324 C 
BRANCH   6   7
ATOM      7  O   UNL     1       0.989   3.483   3.634  0.00  0.00    -0.483 OA
BRANCH   7  13
ATOM      8  C   UNL     1      -2.596   5.908   5.889  0.00  0.00    +0.044 C 
ATOM      9  C   UNL     1      -1.211   5.855   5.299  0.00  0.00    -0.047 A 
ATOM     10  C   UNL     1      -0.405   6.979   5.324  0.00  0.00    +0.003 A 
ATOM     11  C   UNL     1       0.866   6.933   4.783  0.00  0.00    +0.004 A 
ATOM     12  C   UNL     1       1.337   5.762   4.221  0.00  0.00    +0.045 A 
ATOM     13  C   UNL     1       0.530   4.635   4.190  0.00  0.00    +0.121 A 
ATOM     14  C   UNL     1      -0.746   4.683   4.734  0.00  0.00    +0.049 A 
ENDBRANCH   7  13
ENDBRANCH   6   7
ENDBRANCH   2   6
ENDBRANCH   1   4
BRANCH   1  15
ATOM     15  C   UNL     1       5.669   0.430   1.402  0.00  0.00    +0.328 C 
ATOM     16  O   UNL     1       6.389   1.305   1.820  0.00  0.00    -0.249 OA
BRANCH  15  17
ATOM     17  O   UNL     1       6.200  -0.711   0.936  0.00  0.00    -0.459 OA
BRANCH  17  18
ATOM     18  C   UNL     1       7.647  -0.824   0.964  0.00  0.00    +0.269 C 
BRANCH  18  19
ATOM     19  C   UNL     1       8.058  -2.163   0.406  0.00  0.00    +0.008 A 
ATOM     20  C   UNL     1       7.095  -3.053  -0.032  0.00  0.00    +0.010 A 
ATOM     21  C   UNL     1       7.471  -4.281  -0.544  0.00  0.00    +0.020 A 
ATOM     22  C   UNL     1       8.810  -4.619  -0.619  0.00  0.00    +0.042 A 
ATOM     23  C   UNL     1       9.774  -3.728  -0.181  0.00  0.00    +0.040 A 
ATOM     24  C   UNL     1       9.398  -2.498   0.327  0.00  0.00    +0.049 A 
ATOM     25 CL   UNL     1      10.606  -1.376   0.870  0.00  0.00    -0.083 Cl
ATOM     26 CL   UNL     1       9.282  -6.161  -1.262  0.00  0.00    -0.083 Cl
ENDBRANCH  18  19
ENDBRANCH  17  18
ENDBRANCH  15  17
ENDBRANCH   1  15
BRANCH   1  27
ATOM     27  C   UNL     1       3.646   0.524  -0.029  0.00  0.00    +0.071 C 
BRANCH  27  28
ATOM     28  C   UNL     1       2.140   0.591  -0.015  0.00  0.00    -0.020 A 
ATOM     29  C   UNL     1       1.295  -0.452  -0.013  0.00  0.00    +0.087 A 
ATOM     30  N   UNL     1       0.002  -0.004   0.002  0.00  0.00    -0.360 N 
ATOM     31  H   UNL     1      -0.784  -0.572   0.006  0.00  0.00    +0.165 HD
ATOM     32  C   UNL     1      -0.017   1.373   0.010  0.00  0.00    +0.047 A 
ATOM     33  C   UNL     1       1.322   1.806  -0.001  0.00  0.00    +0.003 A 
ATOM     34  C   UNL     1       1.612   3.171   0.004  0.00  0.00    +0.010 A 
ATOM     35  C   UNL     1       0.593   4.082   0.019  0.00  0.00    +0.001 A 
ATOM     36  C   UNL     1      -0.729   3.659   0.029  0.00  0.00    +0.002 A 
ATOM     37  C   UNL     1      -1.038   2.317   0.029  0.00  0.00    +0.026 A 
ENDBRANCH  27  28
ENDBRANCH   1  27
TORSDOF 10
