REMARK  Name = ZINC59384821
REMARK  8 active torsions:
REMARK  status: ('A' for Active; 'I' for Inactive)
REMARK    1  A    between atoms: C_1  and  C_2
REMARK    2  A    between atoms: C_3  and  C_17
REMARK    3  A    between atoms: C_4  and  C_10
REMARK    4  A    between atoms: N_19  and  N_20
REMARK    5  A    between atoms: C_21  and  C_22
REMARK    6  A    between atoms: C_25  and  O_30
REMARK    7  A    between atoms: C_26  and  O_28
REMARK    8  A    between atoms: O_28  and  C_29
REMARK                            x       y       z     vdW  Elec       q    Type
REMARK                         _______ _______ _______ _____ _____    ______ ____
ROOT
ATOM      1  C   UNL     1      -0.039   1.491   0.091  0.00  0.00    +0.061 C 
ATOM      2  C   UNL     1      -0.009  -0.015   0.030  0.00  0.00    +0.017 C 
ATOM      3  C   UNL     1      -1.170  -0.703   0.033  0.00  0.00    +0.057 C 
ATOM      4  C   UNL     1      -1.094  -2.215  -0.031  0.00  0.00    +0.139 C 
ATOM      5  N   UNL     1       0.250  -2.813  -0.091  0.00  0.00    -0.315 N 
ATOM      6  C   UNL     1       1.319  -1.992  -0.086  0.00  0.00    +0.135 C 
ATOM      7  S   UNL     1       2.887  -2.675  -0.155  0.00  0.00    -0.019 S 
ATOM      8  N   UNL     1       1.193  -0.660  -0.034  0.00  0.00    -0.300 N 
ATOM      9  H   UNL     1       0.363  -3.776  -0.132  0.00  0.00    +0.149 HD
ATOM     10  H   UNL     1       2.002  -0.124  -0.037  0.00  0.00    +0.154 HD
ENDROOT
BRANCH   4  11
ATOM     11  C   UNL     1      -1.794  -2.766   1.185  0.00  0.00    -0.023 A 
ATOM     12  C   UNL     1      -1.188  -2.691   2.425  0.00  0.00    +0.007 A 
ATOM     13  C   UNL     1      -1.829  -3.196   3.540  0.00  0.00    +0.020 A 
ATOM     14  C   UNL     1      -3.078  -3.778   3.415  0.00  0.00    +0.041 A 
ATOM     15  C   UNL     1      -3.684  -3.854   2.173  0.00  0.00    +0.020 A 
ATOM     16  C   UNL     1      -3.044  -3.342   1.060  0.00  0.00    +0.007 A 
ATOM     17 CL   UNL     1      -3.884  -4.414   4.815  0.00  0.00    -0.084 Cl
ENDBRANCH   4  11
BRANCH   3  18
ATOM     18  C   UNL     1      -2.417  -0.034   0.093  0.00  0.00    +0.263 C 
ATOM     19  O   UNL     1      -3.077   0.117  -0.919  0.00  0.00    -0.269 OA
ATOM     20  N   UNL     1      -2.873   0.436   1.271  0.00  0.00    -0.203 N 
ATOM     21  H   UNL     1      -2.316   0.382   2.063  0.00  0.00    +0.178 HD
BRANCH  20  22
ATOM     22  N   UNL     1      -4.153   1.001   1.352  0.00  0.00    -0.187 NA
ATOM     23  C   UNL     1      -4.592   1.453   2.486  0.00  0.00    +0.138 C 
BRANCH  23  24
ATOM     24  C   UNL     1      -5.938   2.047   2.571  0.00  0.00    -0.002 A 
ATOM     25  C   UNL     1      -6.745   2.120   1.433  0.00  0.00    +0.013 A 
ATOM     26  C   UNL     1      -8.004   2.676   1.514  0.00  0.00    +0.050 A 
ATOM     27  C   UNL     1      -8.473   3.166   2.725  0.00  0.00    +0.158 A 
ATOM     28  C   UNL     1      -7.674   3.097   3.864  0.00  0.00    +0.162 A 
ATOM     29  C   UNL     1      -6.413   2.535   3.792  0.00  0.00    +0.058 A 
BRANCH  28  30
ATOM     30  O   UNL     1      -8.137   3.578   5.049  0.00  0.00    -0.491 OA
ATOM     31  C   UNL     1      -7.265   3.474   6.176  0.00  0.00    +0.277 C 
ENDBRANCH  28  30
BRANCH  27  32
ATOM     32  O   UNL     1      -9.715   3.714   2.800  0.00  0.00    -0.503 OA
ATOM     33  H   UNL     1     -10.413   3.079   3.011  0.00  0.00    +0.292 HD
ENDBRANCH  27  32
ENDBRANCH  23  24
ENDBRANCH  20  22
ENDBRANCH   3  18
TORSDOF 6
