REMARK  Name = ZINC37188023
REMARK  2 active torsions:
REMARK  status: ('A' for Active; 'I' for Inactive)
REMARK    1  A    between atoms: C_7  and  N_12
REMARK    2  A    between atoms: N_12  and  C_13
REMARK                            x       y       z     vdW  Elec       q    Type
REMARK                         _______ _______ _______ _____ _____    ______ ____
ROOT
ATOM      1  C   UNL     1      -0.201   1.536   0.168  0.00  0.00    +0.025 A 
ATOM      2  C   UNL     1       0.930   2.326   0.247  0.00  0.00    +0.043 A 
ATOM      3  C   UNL     1       2.179   1.738   0.346  0.00  0.00    +0.043 A 
ATOM      4  C   UNL     1       2.292   0.361   0.363  0.00  0.00    +0.084 A 
ATOM      5  C   UNL     1       1.154  -0.436   0.283  0.00  0.00    +0.140 A 
ATOM      6  C   UNL     1      -0.093   0.155   0.188  0.00  0.00    -0.017 A 
ATOM      7  C   UNL     1      -1.351  -0.672   0.110  0.00  0.00    -0.034 C 
ATOM      8  C   UNL     1      -1.001  -2.107  -0.292  0.00  0.00    +0.030 C 
ATOM      9  C   UNL     1       0.159  -2.585   0.591  0.00  0.00    +0.228 C 
ATOM     10  O   UNL     1       1.307  -1.787   0.298  0.00  0.00    -0.490 OA
ATOM     11 CL   UNL     1       3.859  -0.376   0.485  0.00  0.00    -0.080 Cl
ATOM     12 CL   UNL     1       0.785   4.056   0.222  0.00  0.00    -0.083 Cl
ENDROOT
BRANCH   7  13
ATOM     13  N   UNL     1      -2.256  -0.092  -0.892  0.00  0.00    +0.387 N 
ATOM     14  H   UNL     1      -2.417   0.880  -0.677  0.00  0.00    -0.085 HD
ATOM     15  H   UNL     1      -1.838  -0.170  -1.807  0.00  0.00    -0.085 HD
BRANCH  13  16
ATOM     16  C   UNL     1      -3.534  -0.816  -0.874  0.00  0.00    -0.048 C 
ATOM     17  C   UNL     1      -4.233  -0.585   0.476  0.00  0.00    +0.008 C 
ATOM     18  C   UNL     1      -5.699  -1.089   0.355  0.00  0.00    +0.164 C 
ATOM     19  S   UNL     1      -6.124  -0.488  -1.334  0.00  0.00    -0.033 S 
ATOM     20  O   UNL     1      -6.724   0.797  -1.230  0.00  0.00    -0.174 OA
ATOM     21  O   UNL     1      -6.802  -1.521  -2.035  0.00  0.00    -0.174 OA
ATOM     22  C   UNL     1      -4.431  -0.302  -2.026  0.00  0.00    +0.150 C 
ENDBRANCH  13  16
ENDBRANCH   7  13
TORSDOF 2
