REMARK  Name = ZINC35745113
REMARK  18 active torsions:
REMARK  status: ('A' for Active; 'I' for Inactive)
REMARK    1  A    between atoms: C_1  and  C_2
REMARK    2  A    between atoms: C_2  and  C_3
REMARK    3  A    between atoms: C_2  and  C_4
REMARK    4  A    between atoms: C_4  and  N_5
REMARK    5  A    between atoms: N_5  and  C_6
REMARK    6  A    between atoms: N_5  and  C_15
REMARK    7  A    between atoms: C_6  and  C_7
REMARK    8  A    between atoms: C_12  and  O_13
REMARK    9  A    between atoms: O_13  and  C_14
REMARK   10  A    between atoms: C_15  and  C_16
REMARK   11  A    between atoms: C_19  and  C_21
REMARK   12  A    between atoms: C_21  and  C_22
REMARK   13  A    between atoms: C_21  and  C_30
REMARK   14  A    between atoms: C_21  and  O_38
REMARK   15  A    between atoms: C_25  and  O_28
REMARK   16  A    between atoms: O_28  and  C_29
REMARK   17  A    between atoms: C_33  and  O_36
REMARK   18  A    between atoms: O_36  and  C_37
REMARK                            x       y       z     vdW  Elec       q    Type
REMARK                         _______ _______ _______ _____ _____    ______ ____
ROOT
ATOM      1  C   UNL     1      -1.846  -0.723   0.255  0.00  0.00    +0.089 A 
ATOM      2  C   UNL     1      -2.047  -1.155  -1.003  0.00  0.00    +0.043 A 
ATOM      3  C   UNL     1      -2.943  -0.245  -1.611  0.00  0.00    +0.048 A 
ATOM      4  C   UNL     1      -3.236   0.688  -0.688  0.00  0.00    +0.146 A 
ATOM      5  O   UNL     1      -2.573   0.391   0.442  0.00  0.00    -0.463 OA
ENDROOT
BRANCH   1   6
ATOM      6  C   UNL     1      -0.960  -1.380   1.282  0.00  0.00    -0.003 C 
BRANCH   6   7
ATOM      7  N   UNL     1       0.425  -0.925   1.096  0.00  0.00    +0.387 N 
ATOM      8  H   UNL     1       0.710  -1.094   0.143  0.00  0.00    -0.081 HD
BRANCH   7   9
ATOM      9  C   UNL     1       1.308  -1.663   2.009  0.00  0.00    -0.075 C 
BRANCH   9  11
ATOM     10  C   UNL     1       1.973  -3.287   0.231  0.00  0.00    +0.005 C 
ATOM     11  C   UNL     1       1.333  -3.140   1.613  0.00  0.00    -0.034 C 
ATOM     12  C   UNL     1       2.148  -3.930   2.638  0.00  0.00    +0.005 C 
ENDBRANCH   9  11
ENDBRANCH   7   9
BRANCH   7  13
ATOM     13  C   UNL     1       0.511   0.512   1.386  0.00  0.00    -0.039 C 
BRANCH  13  14
ATOM     14  C   UNL     1       1.902   1.004   1.079  0.00  0.00    -0.022 A 
ATOM     15  C   UNL     1       2.817   1.173   2.100  0.00  0.00    +0.005 A 
ATOM     16  C   UNL     1       4.093   1.625   1.818  0.00  0.00    +0.000 A 
ATOM     17  C   UNL     1       4.457   1.908   0.514  0.00  0.00    +0.004 A 
ATOM     18  C   UNL     1       3.546   1.740  -0.510  0.00  0.00    +0.046 A 
ATOM     19  C   UNL     1       2.267   1.282  -0.231  0.00  0.00    +0.121 A 
BRANCH  19  20
ATOM     20  O   UNL     1       1.370   1.110  -1.238  0.00  0.00    -0.495 OA
ATOM     21  C   UNL     1       1.815   1.415  -2.561  0.00  0.00    +0.277 C 
ENDBRANCH  19  20
ENDBRANCH  13  14
ENDBRANCH   7  13
ENDBRANCH   6   7
ENDBRANCH   1   6
BRANCH   4  22
ATOM     22  C   UNL     1      -4.157   1.865  -0.885  0.00  0.00    +0.174 C 
BRANCH  22  23
ATOM     23  C   UNL     1      -4.801   2.225   0.428  0.00  0.00    -0.004 A 
ATOM     24  C   UNL     1      -6.166   2.076   0.591  0.00  0.00    +0.011 A 
ATOM     25  C   UNL     1      -6.760   2.406   1.794  0.00  0.00    +0.046 A 
ATOM     26  C   UNL     1      -5.985   2.886   2.840  0.00  0.00    +0.120 A 
ATOM     27  C   UNL     1      -4.615   3.034   2.674  0.00  0.00    +0.046 A 
ATOM     28  C   UNL     1      -4.026   2.698   1.471  0.00  0.00    +0.011 A 
BRANCH  26  29
ATOM     29  O   UNL     1      -6.566   3.212   4.024  0.00  0.00    -0.495 OA
ATOM     30  C   UNL     1      -5.707   3.700   5.056  0.00  0.00    +0.277 C 
ENDBRANCH  26  29
ENDBRANCH  22  23
BRANCH  22  31
ATOM     31  C   UNL     1      -3.365   3.041  -1.396  0.00  0.00    -0.004 A 
ATOM     32  C   UNL     1      -2.108   3.302  -0.883  0.00  0.00    +0.011 A 
ATOM     33  C   UNL     1      -1.380   4.380  -1.349  0.00  0.00    +0.046 A 
ATOM     34  C   UNL     1      -1.912   5.201  -2.332  0.00  0.00    +0.120 A 
ATOM     35  C   UNL     1      -3.174   4.938  -2.845  0.00  0.00    +0.046 A 
ATOM     36  C   UNL     1      -3.895   3.855  -2.380  0.00  0.00    +0.011 A 
BRANCH  34  37
ATOM     37  O   UNL     1      -1.199   6.263  -2.792  0.00  0.00    -0.495 OA
ATOM     38  C   UNL     1      -1.810   7.065  -3.805  0.00  0.00    +0.277 C 
ENDBRANCH  34  37
ENDBRANCH  22  31
BRANCH  22  39
ATOM     39  O   UNL     1      -5.168   1.524  -1.835  0.00  0.00    -0.372 OA
ATOM     40  H   UNL     1      -5.718   0.773  -1.572  0.00  0.00    +0.212 HD
ENDBRANCH  22  39
ENDBRANCH   4  22
TORSDOF 13
