REMARK  Name = ZINC39843250
REMARK  6 active torsions:
REMARK  status: ('A' for Active; 'I' for Inactive)
REMARK    1  A    between atoms: C_1  and  C_2
REMARK    2  A    between atoms: C_5  and  C_8
REMARK    3  A    between atoms: C_8  and  C_10
REMARK    4  A    between atoms: C_10  and  C_11
REMARK    5  A    between atoms: N_17  and  N_18
REMARK    6  A    between atoms: C_19  and  C_20
REMARK                            x       y       z     vdW  Elec       q    Type
REMARK                         _______ _______ _______ _____ _____    ______ ____
ROOT
ATOM      1  C   UNL     1       0.093  -6.508   0.992  0.00  0.00    +0.147 C 
ATOM      2  C   UNL     1       0.083  -7.318   2.280  0.00  0.00    +0.232 C 
ATOM      3  O   UNL     1      -0.824  -7.283   3.084  0.00  0.00    -0.274 OA
ATOM      4  N   UNL     1       1.167  -8.065   2.435  0.00  0.00    -0.263 N 
ATOM      5  C   UNL     1       2.177  -8.089   1.517  0.00  0.00    +0.183 C 
ATOM      6  N   UNL     1       3.300  -8.801   1.578  0.00  0.00    -0.127 NA
ATOM      7  S   UNL     1       1.709  -7.035   0.292  0.00  0.00    -0.075 S 
ATOM      8  H   UNL     1       1.246  -8.615   3.230  0.00  0.00    +0.157 HD
ENDROOT
BRANCH   6   9
ATOM      9  N   UNL     1       4.168  -8.719   0.627  0.00  0.00    -0.155 NA
ATOM     10  C   UNL     1       5.284  -9.426   0.687  0.00  0.00    +0.141 C 
BRANCH  10  11
ATOM     11  C   UNL     1       6.218  -9.338  -0.337  0.00  0.00    +0.000 C 
ATOM     12  C   UNL     1       7.439 -10.018  -0.431  0.00  0.00    +0.004 A 
ATOM     13  C   UNL     1       8.079 -10.946   0.414  0.00  0.00    +0.010 A 
ATOM     14  C   UNL     1       9.290 -11.455   0.063  0.00  0.00    +0.001 A 
ATOM     15  C   UNL     1       9.922 -11.081  -1.123  0.00  0.00    +0.002 A 
ATOM     16  C   UNL     1       9.363 -10.193  -1.983  0.00  0.00    +0.026 A 
ATOM     17  C   UNL     1       8.101  -9.621  -1.682  0.00  0.00    +0.043 A 
ATOM     18  N   UNL     1       7.358  -8.751  -2.342  0.00  0.00    -0.380 N 
ATOM     19  C   UNL     1       6.127  -8.493  -1.589  0.00  0.00    +0.150 C 
ATOM     20  H   UNL     1       7.589  -8.348  -3.193  0.00  0.00    +0.160 HD
ENDBRANCH  10  11
ENDBRANCH   6   9
BRANCH   1  21
ATOM     21  C   UNL     1       0.075  -5.006   1.280  0.00  0.00    +0.103 C 
BRANCH  21  22
ATOM     22  C   UNL     1       0.058  -4.245  -0.021  0.00  0.00    +0.165 C 
ATOM     23  O   UNL     1       0.060  -4.846  -1.075  0.00  0.00    -0.292 OA
BRANCH  22  28
ATOM     24  C   UNL     1      -0.018   1.503   0.010  0.00  0.00    +0.044 C 
ATOM     25  C   UNL     1       0.002  -0.004   0.002  0.00  0.00    -0.050 A 
ATOM     26  C   UNL     1       0.006  -0.686  -1.202  0.00  0.00    +0.004 A 
ATOM     27  C   UNL     1       0.024  -2.064  -1.218  0.00  0.00    +0.011 A 
ATOM     28  C   UNL     1       0.039  -2.774  -0.013  0.00  0.00    +0.017 A 
ATOM     29  C   UNL     1       0.036  -2.078   1.200  0.00  0.00    +0.011 A 
ATOM     30  C   UNL     1       0.023  -0.699   1.199  0.00  0.00    +0.004 A 
ENDBRANCH  22  28
ENDBRANCH  21  22
ENDBRANCH   1  21
TORSDOF 5
