REMARK  Name = ZINC12317153
REMARK  11 active torsions:
REMARK  status: ('A' for Active; 'I' for Inactive)
REMARK    1  A    between atoms: C_1  and  C_2
REMARK    2  A    between atoms: C_2  and  N_3
REMARK    3  A    between atoms: C_11  and  C_12
REMARK    4  A    between atoms: C_12  and  N_70
REMARK    5  A    between atoms: C_13  and  C_14
REMARK    6  A    between atoms: C_13  and  N_70
REMARK    7  A    between atoms: C_14  and  O_15
REMARK    8  A    between atoms: O_15  and  C_16
REMARK    9  A    between atoms: C_17  and  C_18
REMARK   10  A    between atoms: C_17  and  N_70
REMARK   11  A    between atoms: C_24  and  N_72
REMARK                            x       y       z     vdW  Elec       q    Type
REMARK                         _______ _______ _______ _____ _____    ______ ____
ROOT
ATOM      1  N   UNL     1      -0.749  -2.459  -1.147  0.00  0.00    +0.386 N 
ATOM      2  H   UNL     1      -1.397  -2.073  -1.843  0.00  0.00    -0.081 HD
ENDROOT
BRANCH   1   3
ATOM      3  C   UNL     1      -0.603  -3.911  -1.380  0.00  0.00    -0.003 C 
BRANCH   3  12
ATOM      4  N   UNL     1      -1.049  -4.299  -3.854  0.00  0.00    -0.329 N 
ATOM      5  C   UNL     1      -0.286  -4.474  -4.991  0.00  0.00    +0.069 A 
ATOM      6  C   UNL     1      -0.582  -4.681  -6.331  0.00  0.00    +0.028 A 
ATOM      7  C   UNL     1       0.442  -4.827  -7.242  0.00  0.00    +0.002 A 
ATOM      8  C   UNL     1       1.765  -4.769  -6.828  0.00  0.00    +0.002 A 
ATOM      9  C   UNL     1       2.075  -4.567  -5.513  0.00  0.00    +0.030 A 
ATOM     10  C   UNL     1       1.054  -4.415  -4.572  0.00  0.00    +0.089 A 
ATOM     11  N   UNL     1       1.040  -4.207  -3.230  0.00  0.00    -0.234 NA
ATOM     12  C   UNL     1      -0.190  -4.136  -2.812  0.00  0.00    +0.094 A 
BRANCH   4  14
ATOM     13  C   UNL     1      -3.022  -2.860  -3.982  0.00  0.00    +0.027 C 
ATOM     14  C   UNL     1      -2.512  -4.288  -3.783  0.00  0.00    +0.120 C 
ENDBRANCH   4  14
ENDBRANCH   3  12
ENDBRANCH   1   3
BRANCH   1  15
ATOM     15  C   UNL     1       0.562  -1.790  -1.289  0.00  0.00    -0.050 C 
BRANCH  15  16
ATOM     16  C   UNL     1       1.528  -2.267  -0.203  0.00  0.00    +0.141 C 
BRANCH  16  17
ATOM     17  O   UNL     1       1.857  -3.639  -0.427  0.00  0.00    -0.385 OA
ATOM     18  C   UNL     1       2.671  -4.217   0.595  0.00  0.00    +0.193 C 
ENDBRANCH  16  17
ENDBRANCH  15  16
ENDBRANCH   1  15
BRANCH   1  19
ATOM     19  C   UNL     1      -1.296  -2.216   0.205  0.00  0.00    -0.077 C 
BRANCH  19  20
ATOM     20  C   UNL     1      -1.730  -0.753   0.305  0.00  0.00    -0.044 C 
ATOM     21  C   UNL     1      -2.864  -0.487  -0.689  0.00  0.00    -0.002 C 
ATOM     22  C   UNL     1      -3.334   0.963  -0.539  0.00  0.00    -0.018 C 
ATOM     23  C   UNL     1      -3.779   1.204   0.905  0.00  0.00    -0.078 C 
ATOM     24  C   UNL     1      -2.222  -0.462   1.725  0.00  0.00    -0.077 C 
ATOM     25  N   UNL     1      -2.636   0.955   1.808  0.00  0.00    +0.382 N 
ATOM     26  H   UNL     1      -1.849   1.549   1.521  0.00  0.00    -0.081 HD
BRANCH  25  27
ATOM     27  C   UNL     1      -3.008   1.291   3.198  0.00  0.00    -0.060 C 
ATOM     28  C   UNL     1      -3.474   2.760   3.288  0.00  0.00    +0.020 C 
ATOM     29  C   UNL     1      -2.960   3.257   4.622  0.00  0.00    -0.046 A 
ATOM     30  C   UNL     1      -3.328   4.364   5.369  0.00  0.00    +0.004 A 
ATOM     31  C   UNL     1      -2.712   4.623   6.577  0.00  0.00    +0.000 A 
ATOM     32  C   UNL     1      -1.724   3.776   7.044  0.00  0.00    +0.000 A 
ATOM     33  C   UNL     1      -1.356   2.672   6.300  0.00  0.00    +0.004 A 
ATOM     34  C   UNL     1      -1.973   2.410   5.088  0.00  0.00    -0.046 A 
ATOM     35  C   UNL     1      -1.755   1.285   4.099  0.00  0.00    +0.020 C 
ENDBRANCH  25  27
ENDBRANCH  19  20
ENDBRANCH   1  19
TORSDOF 9
