REMARK  Name = ZINC64613082
REMARK  7 active torsions:
REMARK  status: ('A' for Active; 'I' for Inactive)
REMARK    1  A    between atoms: C_1  and  O_2
REMARK    2  A    between atoms: O_2  and  C_3
REMARK    3  A    between atoms: C_8  and  N_9
REMARK    4  A    between atoms: N_9  and  S_10
REMARK    5  A    between atoms: S_10  and  C_13
REMARK    6  A    between atoms: C_16  and  C_18
REMARK    7  A    between atoms: C_22  and  C_25
REMARK                            x       y       z     vdW  Elec       q    Type
REMARK                         _______ _______ _______ _____ _____    ______ ____
ROOT
ATOM      1  C   UNL     1      -0.640  -5.060   1.234  0.00  0.00    +0.111 C 
ATOM      2  C   UNL     1      -0.070  -5.590   2.311  0.00  0.00    +0.135 C 
ATOM      3  N   UNL     1      -0.979  -5.978   3.236  0.00  0.00    -0.258 NA
ATOM      4  C   UNL     1      -2.199  -5.754   2.881  0.00  0.00    +0.069 C 
ATOM      5  C   UNL     1      -2.131  -5.110   1.510  0.00  0.00    +0.113 C 
ENDROOT
BRANCH   4   6
ATOM      6  C   UNL     1      -3.443  -6.065   3.673  0.00  0.00    +0.248 C 
ATOM      7  N   UNL     1      -3.208  -7.210   4.592  0.00  0.00    -0.222 NA
ATOM      8  N   UNL     1      -4.551  -7.758   4.813  0.00  0.00    -0.223 NA
ATOM      9  C   UNL     1      -5.363  -7.314   3.661  0.00  0.00    +0.233 C 
ATOM     10  O   UNL     1      -4.494  -6.545   2.805  0.00  0.00    -0.332 OA
ATOM     11  H   UNL     1      -2.603  -7.897   4.166  0.00  0.00    +0.144 HD
ATOM     12  H   UNL     1      -4.941  -7.421   5.681  0.00  0.00    +0.144 HD
BRANCH   9  13
ATOM     13  C   UNL     1      -5.897  -8.510   2.916  0.00  0.00    -0.003 A 
ATOM     14  C   UNL     1      -5.183  -9.694   2.907  0.00  0.00    +0.010 A 
ATOM     15  C   UNL     1      -5.672 -10.791   2.225  0.00  0.00    +0.039 A 
ATOM     16  C   UNL     1      -6.877 -10.705   1.549  0.00  0.00    +0.123 A 
ATOM     17  C   UNL     1      -7.592  -9.519   1.558  0.00  0.00    +0.039 A 
ATOM     18  C   UNL     1      -7.103  -8.424   2.246  0.00  0.00    +0.010 A 
ATOM     19  F   UNL     1      -7.356 -11.777   0.881  0.00  0.00    -0.205 F 
ENDBRANCH   9  13
ENDBRANCH   4   6
BRANCH   1  20
ATOM     20  S   UNL     1       0.164  -4.429  -0.201  0.00  0.00    +0.090 S 
ATOM     21  O   UNL     1      -0.635  -4.809  -1.314  0.00  0.00    -0.149 OA
ATOM     22  O   UNL     1       1.535  -4.786  -0.090  0.00  0.00    -0.149 OA
BRANCH  20  23
ATOM     23  N   UNL     1       0.097  -2.776  -0.113  0.00  0.00    -0.094 NA
BRANCH  23  29
ATOM     24  C   UNL     1       0.606  -0.608  -1.057  0.00  0.00    +0.145 A 
ATOM     25  C   UNL     1       1.173   0.159  -2.062  0.00  0.00    +0.049 A 
ATOM     26  C   UNL     1       1.786  -0.456  -3.138  0.00  0.00    +0.024 A 
ATOM     27  C   UNL     1       1.837  -1.836  -3.215  0.00  0.00    +0.043 A 
ATOM     28  C   UNL     1       1.274  -2.608  -2.215  0.00  0.00    +0.050 A 
ATOM     29  C   UNL     1       0.662  -1.998  -1.129  0.00  0.00    +0.117 A 
ATOM     30 CL   UNL     1       2.608  -2.601  -4.569  0.00  0.00    -0.083 Cl
BRANCH  24  32
ATOM     31  C   UNL     1      -0.017   1.425   0.010  0.00  0.00    +0.277 C 
ATOM     32  O   UNL     1       0.002  -0.004   0.002  0.00  0.00    -0.493 OA
ENDBRANCH  24  32
ENDBRANCH  23  29
ENDBRANCH  20  23
ENDBRANCH   1  20
TORSDOF 6
