REMARK  Name = ZINC09566028
REMARK  8 active torsions:
REMARK  status: ('A' for Active; 'I' for Inactive)
REMARK    1  A    between atoms: C_1  and  C_2
REMARK    2  A    between atoms: C_2  and  S_3
REMARK    3  A    between atoms: S_3  and  C_6
REMARK    4  A    between atoms: C_9  and  C_12
REMARK    5  A    between atoms: C_12  and  C_13
REMARK    6  A    between atoms: C_13  and  N_15
REMARK    7  A    between atoms: N_17  and  C_27
REMARK    8  A    between atoms: C_19  and  C_26
REMARK                            x       y       z     vdW  Elec       q    Type
REMARK                         _______ _______ _______ _____ _____    ______ ____
ROOT
ATOM      1  C   UNL     1       2.842  -0.034  -1.176  0.00  0.00    +0.243 C 
ATOM      2  O   UNL     1       1.921  -0.817  -1.051  0.00  0.00    -0.273 OA
ENDROOT
BRANCH   1   3
ATOM      3  N   UNL     1       2.673   1.246  -0.864  0.00  0.00    -0.156 NA
ATOM      4  C   UNL     1       1.763   1.974  -1.509  0.00  0.00    +0.166 A 
ATOM      5  N   UNL     1       1.046   1.640  -2.614  0.00  0.00    -0.324 N 
ATOM      6  C   UNL     1       0.140   2.537  -3.150  0.00  0.00    +0.062 A 
ATOM      7  C   UNL     1      -0.688   2.372  -4.271  0.00  0.00    -0.008 A 
ATOM      8  C   UNL     1      -1.544   3.374  -4.666  0.00  0.00    +0.046 A 
ATOM      9  C   UNL     1      -1.619   4.570  -3.970  0.00  0.00    +0.021 A 
ATOM     10  C   UNL     1      -0.817   4.756  -2.857  0.00  0.00    +0.018 A 
ATOM     11  C   UNL     1       0.038   3.755  -2.462  0.00  0.00    +0.039 A 
ATOM     12  S   UNL     1       1.207   3.574  -1.139  0.00  0.00    -0.052 S 
ATOM     13 CL   UNL     1      -2.547   3.137  -6.063  0.00  0.00    -0.083 Cl
ATOM     14  C   UNL     1      -0.635   1.086  -5.054  0.00  0.00    +0.047 C 
ATOM     15  C   UNL     1       1.238   0.331  -3.243  0.00  0.00    +0.151 C 
ENDBRANCH   1   3
BRANCH   1  16
ATOM     16  C   UNL     1       4.177  -0.516  -1.684  0.00  0.00    +0.133 C 
BRANCH  16  20
ATOM     17  C   UNL     1       3.971  -4.709  -2.472  0.00  0.00    +0.088 A 
ATOM     18  C   UNL     1       3.659  -3.803  -3.468  0.00  0.00    +0.027 A 
ATOM     19  C   UNL     1       3.725  -2.446  -3.213  0.00  0.00    +0.006 A 
ATOM     20  C   UNL     1       4.104  -1.995  -1.962  0.00  0.00    -0.038 A 
ATOM     21  C   UNL     1       4.422  -2.901  -0.968  0.00  0.00    +0.006 A 
ATOM     22  C   UNL     1       4.351  -4.259  -1.222  0.00  0.00    +0.027 A 
BRANCH  17  23
ATOM     23  S   UNL     1       3.886  -6.439  -2.797  0.00  0.00    -0.003 S 
ATOM     24  O   UNL     1       3.649  -7.034  -1.528  0.00  0.00    -0.169 OA
ATOM     25  O   UNL     1       2.934  -6.564  -3.845  0.00  0.00    -0.169 OA
BRANCH  23  27
ATOM     26  C   UNL     1       5.581  -8.380  -3.714  0.00  0.00    +0.028 C 
ATOM     27  C   UNL     1       5.539  -6.883  -3.397  0.00  0.00    +0.168 C 
ENDBRANCH  23  27
ENDBRANCH  17  23
ENDBRANCH  16  20
ENDBRANCH   1  16
TORSDOF 5
