REMARK  Name = ZINC52933490
REMARK  8 active torsions:
REMARK  status: ('A' for Active; 'I' for Inactive)
REMARK    1  A    between atoms: C_1  and  C_2
REMARK    2  A    between atoms: C_2  and  C_3
REMARK    3  A    between atoms: C_7  and  C_8
REMARK    4  A    between atoms: N_10  and  C_11
REMARK    5  A    between atoms: C_11  and  C_12
REMARK    6  A    between atoms: C_12  and  C_13
REMARK    7  A    between atoms: C_16  and  S_19
REMARK    8  A    between atoms: S_19  and  N_22
REMARK                            x       y       z     vdW  Elec       q    Type
REMARK                         _______ _______ _______ _____ _____    ______ ____
ROOT
ATOM      1  C   UNL     1      -3.349  -0.727   5.890  0.00  0.00    +0.054 C 
ENDROOT
BRANCH   1   2
ATOM      2  C   UNL     1      -4.788  -0.469   6.255  0.00  0.00    -0.046 A 
ATOM      3  C   UNL     1      -5.173   0.777   6.713  0.00  0.00    +0.005 A 
ATOM      4  C   UNL     1      -6.493   1.013   7.047  0.00  0.00    +0.029 A 
ATOM      5  C   UNL     1      -7.428   0.003   6.924  0.00  0.00    +0.105 A 
ATOM      6  C   UNL     1      -7.044  -1.243   6.466  0.00  0.00    +0.029 A 
ATOM      7  C   UNL     1      -5.724  -1.478   6.127  0.00  0.00    +0.005 A 
BRANCH   5   8
ATOM      8  S   UNL     1      -9.111   0.303   7.352  0.00  0.00    +0.056 S 
ATOM      9  O   UNL     1      -9.682  -0.960   7.666  0.00  0.00    -0.153 OA
ATOM     10  O   UNL     1      -9.109   1.387   8.271  0.00  0.00    -0.153 OA
BRANCH   8  11
ATOM     11  N   UNL     1      -9.875   0.842   5.985  0.00  0.00    -0.204 NA
ATOM     12  H   UNL     1      -9.379   0.934   5.157  0.00  0.00    +0.144 HD
ATOM     13  H   UNL     1     -10.819   1.065   6.013  0.00  0.00    +0.144 HD
ENDBRANCH   8  11
ENDBRANCH   5   8
ENDBRANCH   1   2
BRANCH   1  14
ATOM     14  C   UNL     1      -3.130  -0.393   4.413  0.00  0.00    +0.109 C 
BRANCH  14  17
ATOM     15  C   UNL     1      -1.304  -0.418   2.800  0.00  0.00    +0.251 C 
ATOM     16  O   UNL     1      -2.081  -0.007   1.958  0.00  0.00    -0.270 OA
ATOM     17  N   UNL     1      -1.730  -0.643   4.058  0.00  0.00    -0.311 N 
ATOM     18  H   UNL     1      -1.111  -0.971   4.729  0.00  0.00    +0.149 HD
BRANCH  15  23
ATOM     19  C   UNL     1       0.731  -0.503   1.223  0.00  0.00    -0.028 A 
ATOM     20  C   UNL     1       2.068  -0.819   1.198  0.00  0.00    +0.012 A 
ATOM     21  C   UNL     1       2.662  -1.262   2.333  0.00  0.00    +0.046 A 
ATOM     22  S   UNL     1       1.426  -1.266   3.470  0.00  0.00    -0.092 S 
ATOM     23  C   UNL     1       0.096  -0.668   2.445  0.00  0.00    +0.077 A 
BRANCH  19  25
ATOM     24  C   UNL     1      -0.019   1.526   0.010  0.00  0.00    +0.009 C 
ATOM     25  C   UNL     1       0.002  -0.004   0.002  0.00  0.00    +0.033 C 
ENDBRANCH  19  25
ENDBRANCH  15  23
ENDBRANCH  14  17
ENDBRANCH   1  14
TORSDOF 7
