REMARK  Name = ZINC01764217
REMARK  8 active torsions:
REMARK  status: ('A' for Active; 'I' for Inactive)
REMARK    1  A    between atoms: C_1  and  C_2
REMARK    2  A    between atoms: C_2  and  C_28
REMARK    3  A    between atoms: C_4  and  C_26
REMARK    4  A    between atoms: C_4  and  C_27
REMARK    5  A    between atoms: N_5  and  C_12
REMARK    6  A    between atoms: C_12  and  N_14
REMARK    7  A    between atoms: C_15  and  C_17
REMARK    8  A    between atoms: C_20  and  N_23
REMARK                            x       y       z     vdW  Elec       q    Type
REMARK                         _______ _______ _______ _____ _____    ______ ____
ROOT
ATOM      1  C   UNL     1       0.648   2.077  -0.070  0.00  0.00    +0.021 C 
ATOM      2  C   UNL     1       0.162   0.625  -0.122  0.00  0.00    +0.022 C 
ATOM      3  C   UNL     1       0.591  -0.022  -1.429  0.00  0.00    +0.041 C 
ATOM      4  C   UNL     1       1.909  -0.781  -1.330  0.00  0.00    +0.037 C 
ATOM      5  N   UNL     1       1.832  -1.728  -0.207  0.00  0.00    -0.276 N 
ATOM      6  C   UNL     1       1.414  -1.250   1.040  0.00  0.00    +0.040 A 
ATOM      7  C   UNL     1       0.625  -0.108   1.104  0.00  0.00    -0.016 A 
ATOM      8  C   UNL     1       0.244   0.378   2.347  0.00  0.00    +0.006 A 
ATOM      9  C   UNL     1       0.608  -0.283   3.504  0.00  0.00    +0.000 A 
ATOM     10  C   UNL     1       1.354  -1.443   3.433  0.00  0.00    +0.002 A 
ATOM     11  C   UNL     1       1.753  -1.927   2.201  0.00  0.00    +0.024 A 
ATOM     12  C   UNL     1       3.094   0.164  -1.136  0.00  0.00    +0.032 C 
ATOM     13  C   UNL     1       2.126  -1.581  -2.626  0.00  0.00    +0.032 C 
ENDROOT
BRANCH   2  14
ATOM     14  C   UNL     1      -1.345   0.652  -0.100  0.00  0.00    -0.037 A 
ATOM     15  C   UNL     1      -2.012   1.854   0.048  0.00  0.00    +0.004 A 
ATOM     16  C   UNL     1      -3.394   1.879   0.068  0.00  0.00    +0.000 A 
ATOM     17  C   UNL     1      -4.109   0.703  -0.061  0.00  0.00    +0.000 A 
ATOM     18  C   UNL     1      -3.441  -0.498  -0.210  0.00  0.00    +0.000 A 
ATOM     19  C   UNL     1      -2.059  -0.523  -0.234  0.00  0.00    +0.004 A 
ENDBRANCH   2  14
BRANCH   5  20
ATOM     20  C   UNL     1       2.147  -3.024  -0.402  0.00  0.00    +0.144 C 
ATOM     21  S   UNL     1       2.970  -3.500  -1.825  0.00  0.00    -0.018 S 
BRANCH  20  22
ATOM     22  N   UNL     1       1.813  -3.945   0.524  0.00  0.00    -0.263 N 
ATOM     23  C   UNL     1       2.059  -5.250   0.295  0.00  0.00    +0.250 C 
ATOM     24  O   UNL     1       2.582  -5.596  -0.746  0.00  0.00    -0.270 OA
ATOM     25  H   UNL     1       1.396  -3.668   1.355  0.00  0.00    +0.157 HD
BRANCH  23  26
ATOM     26  C   UNL     1       1.693  -6.260   1.310  0.00  0.00    +0.037 A 
ATOM     27  C   UNL     1       1.087  -5.866   2.504  0.00  0.00    +0.015 A 
ATOM     28  C   UNL     1       0.749  -6.814   3.448  0.00  0.00    +0.033 A 
ATOM     29  C   UNL     1       1.008  -8.152   3.212  0.00  0.00    +0.126 A 
ATOM     30  C   UNL     1       1.609  -8.550   2.031  0.00  0.00    +0.033 A 
ATOM     31  C   UNL     1       1.947  -7.613   1.076  0.00  0.00    +0.015 A 
BRANCH  29  32
ATOM     32  N   UNL     1       0.643  -9.164   4.229  0.00  0.00    +0.056 N 
ATOM     33  O   UNL     1       0.118  -8.820   5.262  0.00  0.00    -0.126 OA
ATOM     34  O   UNL     1       0.868 -10.334   4.026  0.00  0.00    -0.126 OA
ENDBRANCH  29  32
ENDBRANCH  23  26
ENDBRANCH  20  22
ENDBRANCH   5  20
TORSDOF 5
