REMARK  Name = ZINC17101889
REMARK  4 active torsions:
REMARK  status: ('A' for Active; 'I' for Inactive)
REMARK    1  A    between atoms: C_1  and  C_2
REMARK    2  A    between atoms: C_2  and  C_3
REMARK    3  A    between atoms: C_6  and  N_9
REMARK    4  A    between atoms: C_13  and  C_14
REMARK                            x       y       z     vdW  Elec       q    Type
REMARK                         _______ _______ _______ _____ _____    ______ ____
ROOT
ATOM      1  N   UNL     1       3.816   2.454   1.441  0.00  0.00    -0.190 N 
ATOM      2  C   UNL     1       3.732   3.723   0.991  0.00  0.00    +0.263 C 
ATOM      3  O   UNL     1       2.727   4.385   1.171  0.00  0.00    -0.269 OA
ATOM      4  C   UNL     1       4.890   4.286   0.275  0.00  0.00    +0.100 C 
ATOM      5  C   UNL     1       4.876   5.584  -0.218  0.00  0.00    +0.028 C 
ATOM      6  C   UNL     1       6.063   3.411   0.103  0.00  0.00    +0.257 C 
ATOM      7  O   UNL     1       7.057   3.805  -0.478  0.00  0.00    -0.270 OA
ATOM      8  N   UNL     1       6.005   2.161   0.607  0.00  0.00    -0.235 N 
ATOM      9  C   UNL     1       4.919   1.716   1.254  0.00  0.00    +0.320 C 
ATOM     10  O   UNL     1       4.933   0.581   1.689  0.00  0.00    -0.251 OA
ATOM     11  H   UNL     1       6.769   1.572   0.503  0.00  0.00    +0.159 HD
ENDROOT
BRANCH   5  12
ATOM     12  C   UNL     1       3.680   6.330  -0.206  0.00  0.00    +0.001 A 
ATOM     13  C   UNL     1       2.422   5.891  -0.580  0.00  0.00    +0.091 A 
ATOM     14  N   UNL     1       1.533   6.890  -0.429  0.00  0.00    -0.360 N 
ATOM     15  H   UNL     1       0.587   6.820  -0.628  0.00  0.00    +0.165 HD
ATOM     16  C   UNL     1       2.153   8.029   0.047  0.00  0.00    +0.047 A 
ATOM     17  C   UNL     1       3.515   7.736   0.215  0.00  0.00    +0.008 A 
ATOM     18  C   UNL     1       4.386   8.710   0.693  0.00  0.00    +0.025 A 
ATOM     19  C   UNL     1       3.903   9.964   1.004  0.00  0.00    +0.019 A 
ATOM     20  C   UNL     1       2.557  10.255   0.842  0.00  0.00    +0.017 A 
ATOM     21  C   UNL     1       1.685   9.300   0.363  0.00  0.00    +0.027 A 
ATOM     22 BR   UNL     1       5.082  11.292   1.655  0.00  0.00    -0.050 Br
ENDBRANCH   5  12
BRANCH   1  26
ATOM     23  C   UNL     1       0.578   0.798   3.477  0.00  0.00    -0.048 A 
ATOM     24  C   UNL     1       1.275   1.855   4.033  0.00  0.00    +0.005 A 
ATOM     25  C   UNL     1       2.349   2.406   3.361  0.00  0.00    +0.024 A 
ATOM     26  C   UNL     1       2.727   1.898   2.126  0.00  0.00    +0.046 A 
ATOM     27  C   UNL     1       2.025   0.837   1.570  0.00  0.00    +0.024 A 
ATOM     28  C   UNL     1       0.953   0.290   2.247  0.00  0.00    +0.005 A 
BRANCH  23  30
ATOM     29  C   UNL     1      -1.876   0.926   3.808  0.00  0.00    +0.009 C 
ATOM     30  C   UNL     1      -0.593   0.199   4.213  0.00  0.00    +0.032 C 
ENDBRANCH  23  30
ENDBRANCH   1  26
TORSDOF 3
