REMARK  Name = ZINC15303684
REMARK  3 active torsions:
REMARK  status: ('A' for Active; 'I' for Inactive)
REMARK    1  A    between atoms: C_1  and  C_2
REMARK    2  A    between atoms: C_3  and  C_12
REMARK    3  A    between atoms: C_21  and  C_23
REMARK                            x       y       z     vdW  Elec       q    Type
REMARK                         _______ _______ _______ _____ _____    ______ ____
ROOT
ATOM      1  C   UNL     1      -1.409   2.245  -0.002  0.00  0.00    +0.030 C 
ATOM      2  C   UNL     1      -1.449   3.261   0.902  0.00  0.00    +0.081 A 
ATOM      3  C   UNL     1      -2.456   4.244   1.109  0.00  0.00    +0.268 A 
ATOM      4  O   UNL     1      -3.461   4.247   0.421  0.00  0.00    -0.266 OA
ATOM      5  N   UNL     1      -2.288   5.164   2.065  0.00  0.00    -0.275 N 
ATOM      6  C   UNL     1      -1.132   5.112   2.822  0.00  0.00    +0.178 A 
ATOM      7  N   UNL     1      -0.853   5.941   3.780  0.00  0.00    -0.223 NA
ATOM      8  C   UNL     1      -1.658   6.966   4.167  0.00  0.00    +0.076 C 
ATOM      9  C   UNL     1      -2.822   7.192   3.534  0.00  0.00    -0.016 C 
ATOM     10  C   UNL     1      -3.228   6.265   2.413  0.00  0.00    +0.152 C 
ATOM     11  C   UNL     1      -3.708   8.342   3.923  0.00  0.00    +0.040 C 
ATOM     12  C   UNL     1      -3.654   8.581   5.430  0.00  0.00    +0.040 C 
ATOM     13  C   UNL     1      -2.223   8.661   5.890  0.00  0.00    -0.038 A 
ATOM     14  C   UNL     1      -1.258   7.857   5.285  0.00  0.00    +0.004 A 
ATOM     15  C   UNL     1       0.052   7.874   5.750  0.00  0.00    +0.010 A 
ATOM     16  C   UNL     1       0.400   8.719   6.786  0.00  0.00    +0.001 A 
ATOM     17  C   UNL     1      -0.553   9.537   7.364  0.00  0.00    +0.000 A 
ATOM     18  C   UNL     1      -1.864   9.507   6.919  0.00  0.00    +0.004 A 
ATOM     19  S   UNL     1      -0.256   3.713   2.153  0.00  0.00    -0.046 S 
ENDROOT
BRANCH   1  22
ATOM     20  C   UNL     1       1.578   3.113  -0.100  0.00  0.00    +0.064 C 
ATOM     21  C   UNL     1       1.061   1.697  -0.081  0.00  0.00    +0.021 A 
ATOM     22  C   UNL     1      -0.258   1.341  -0.036  0.00  0.00    +0.004 A 
ATOM     23  C   UNL     1      -0.292  -0.134  -0.034  0.00  0.00    +0.007 A 
ATOM     24  C   UNL     1      -1.317  -1.076   0.001  0.00  0.00    +0.010 A 
ATOM     25  C   UNL     1      -1.009  -2.419  -0.010  0.00  0.00    +0.001 A 
ATOM     26  C   UNL     1       0.314  -2.833  -0.055  0.00  0.00    +0.002 A 
ATOM     27  C   UNL     1       1.338  -1.912  -0.090  0.00  0.00    +0.026 A 
ATOM     28  C   UNL     1       1.047  -0.551  -0.080  0.00  0.00    +0.047 A 
ATOM     29  N   UNL     1       1.835   0.582  -0.108  0.00  0.00    -0.358 N 
ATOM     30  H   UNL     1       2.804   0.581  -0.141  0.00  0.00    +0.166 HD
ENDBRANCH   1  22
BRANCH  10  31
ATOM     31  C   UNL     1      -3.442   7.099   1.176  0.00  0.00    -0.002 A 
ATOM     32  C   UNL     1      -4.722   7.453   0.794  0.00  0.00    +0.007 A 
ATOM     33  C   UNL     1      -4.919   8.218  -0.340  0.00  0.00    +0.000 A 
ATOM     34  C   UNL     1      -3.835   8.630  -1.093  0.00  0.00    +0.001 A 
ATOM     35  C   UNL     1      -2.554   8.277  -0.712  0.00  0.00    +0.020 A 
ATOM     36  C   UNL     1      -2.357   7.516   0.427  0.00  0.00    +0.046 A 
ATOM     37 CL   UNL     1      -0.748   7.078   0.910  0.00  0.00    -0.083 Cl
ENDBRANCH  10  31
TORSDOF 2
