REMARK  Name = ZINC03110391
REMARK  5 active torsions:
REMARK  status: ('A' for Active; 'I' for Inactive)
REMARK    1  A    between atoms: C_1  and  C_2
REMARK    2  A    between atoms: N_15  and  N_16
REMARK    3  A    between atoms: C_17  and  C_19
REMARK    4  A    between atoms: C_19  and  N_51
REMARK    5  A    between atoms: C_20  and  N_51
REMARK                            x       y       z     vdW  Elec       q    Type
REMARK                         _______ _______ _______ _____ _____    ______ ____
ROOT
ATOM      1  C   UNL     1      -3.707  -0.703  -3.867  0.00  0.00    +0.088 C 
ATOM      2  C   UNL     1      -4.723  -0.225  -2.862  0.00  0.00    +0.129 A 
ATOM      3  N   UNL     1      -5.916  -0.757  -2.853  0.00  0.00    -0.225 NA
ATOM      4  C   UNL     1      -6.837  -0.353  -1.983  0.00  0.00    +0.116 A 
ATOM      5  C   UNL     1      -6.578   0.649  -1.035  0.00  0.00    +0.077 A 
ATOM      6  C   UNL     1      -7.686   0.989  -0.143  0.00  0.00    -0.023 A 
ATOM      7  C   UNL     1      -8.840   0.312  -0.316  0.00  0.00    -0.004 A 
ATOM      8  S   UNL     1      -8.524  -0.802  -1.658  0.00  0.00    -0.073 S 
ATOM      9  C   UNL     1     -10.111   0.472   0.462  0.00  0.00    +0.043 C 
ATOM     10  C   UNL     1      -9.800   1.265   1.739  0.00  0.00    +0.005 C 
ATOM     11  C   UNL     1      -8.965   2.493   1.365  0.00  0.00    +0.005 C 
ATOM     12  C   UNL     1      -7.563   2.058   0.940  0.00  0.00    +0.037 C 
ATOM     13  C   UNL     1      -5.258   1.207  -1.068  0.00  0.00    +0.280 A 
ATOM     14  O   UNL     1      -4.936   2.084  -0.285  0.00  0.00    -0.265 OA
ATOM     15  N   UNL     1      -4.380   0.747  -1.978  0.00  0.00    -0.210 N 
ENDROOT
BRANCH  15  16
ATOM     16  N   UNL     1      -3.087   1.286  -2.019  0.00  0.00    -0.220 N 
ATOM     17  C   UNL     1      -2.186   0.947  -1.076  0.00  0.00    +0.214 C 
ATOM     18  O   UNL     1      -2.493   0.175  -0.193  0.00  0.00    -0.276 OA
ATOM     19  H   UNL     1      -2.841   1.904  -2.725  0.00  0.00    +0.176 HD
BRANCH  17  20
ATOM     20  C   UNL     1      -0.795   1.527  -1.120  0.00  0.00    +0.017 C 
BRANCH  20  21
ATOM     21  N   UNL     1      -0.015   0.998   0.015  0.00  0.00    +0.387 N 
ATOM     22  H   UNL     1       0.032  -0.025  -0.054  0.00  0.00    -0.085 HD
ATOM     23  H   UNL     1      -0.475   1.261   0.894  0.00  0.00    -0.085 HD
BRANCH  21  24
ATOM     24  C   UNL     1       1.353   1.550  -0.003  0.00  0.00    -0.071 C 
ATOM     25  C   UNL     1       2.234   0.702  -0.922  0.00  0.00    -0.016 C 
ATOM     26  C   UNL     1       3.654   1.270  -0.933  0.00  0.00    -0.002 C 
ATOM     27  C   UNL     1       4.225   1.243   0.486  0.00  0.00    -0.000 C 
ATOM     28  C   UNL     1       3.344   2.091   1.406  0.00  0.00    -0.002 C 
ATOM     29  C   UNL     1       1.923   1.523   1.417  0.00  0.00    -0.016 C 
ENDBRANCH  21  24
ENDBRANCH  20  21
ENDBRANCH  17  20
ENDBRANCH  15  16
TORSDOF 4
