REMARK  Name = ZINC59640051
REMARK  4 active torsions:
REMARK  status: ('A' for Active; 'I' for Inactive)
REMARK    1  A    between atoms: C_1  and  N_2
REMARK    2  A    between atoms: N_9  and  N_10
REMARK    3  A    between atoms: C_11  and  C_12
REMARK    4  A    between atoms: C_15  and  O_19
REMARK                            x       y       z     vdW  Elec       q    Type
REMARK                         _______ _______ _______ _____ _____    ______ ____
ROOT
ATOM      1  C   UNL     1      -0.018   1.461   0.010  0.00  0.00    +0.127 C 
ATOM      2  N   UNL     1       0.002  -0.004   0.002  0.00  0.00    -0.330 N 
ATOM      3  C   UNL     1       0.602  -0.684  -1.047  0.00  0.00    +0.159 A 
ATOM      4  C   UNL     1       0.622  -2.082  -1.068  0.00  0.00    +0.181 A 
ATOM      5  C   UNL     1       1.231  -2.716  -2.135  0.00  0.00    +0.156 A 
ATOM      6  N   UNL     1       1.774  -1.986  -3.099  0.00  0.00    -0.219 NA
ATOM      7  C   UNL     1       1.740  -0.663  -3.052  0.00  0.00    +0.237 A 
ATOM      8  N   UNL     1       1.161  -0.016  -2.050  0.00  0.00    -0.195 NA
ATOM      9  N   UNL     1       2.320   0.064  -4.079  0.00  0.00    -0.205 N 
ATOM     10  F   UNL     1       0.059  -2.796  -0.069  0.00  0.00    -0.200 F 
ATOM     11  H   UNL     1      -0.404  -0.499   0.731  0.00  0.00    +0.147 HD
ATOM     12  H   UNL     1       2.302   1.034  -4.057  0.00  0.00    +0.177 HD
ENDROOT
BRANCH   9  13
ATOM     13  N   UNL     1       2.932  -0.601  -5.149  0.00  0.00    -0.188 NA
ATOM     14  C   UNL     1       3.475   0.080  -6.112  0.00  0.00    +0.138 C 
BRANCH  14  15
ATOM     15  C   UNL     1       4.120  -0.621  -7.238  0.00  0.00    -0.003 A 
ATOM     16  C   UNL     1       4.141  -2.018  -7.274  0.00  0.00    +0.028 A 
ATOM     17  C   UNL     1       4.745  -2.669  -8.330  0.00  0.00    +0.061 A 
ATOM     18  C   UNL     1       5.330  -1.938  -9.356  0.00  0.00    +0.145 A 
ATOM     19  C   UNL     1       5.311  -0.549  -9.324  0.00  0.00    +0.061 A 
ATOM     20  C   UNL     1       4.705   0.110  -8.275  0.00  0.00    +0.028 A 
ATOM     21 BR   UNL     1       6.110   0.439 -10.725  0.00  0.00    -0.046 Br
ATOM     22 BR   UNL     1       4.775  -4.559  -8.380  0.00  0.00    -0.046 Br
BRANCH  18  23
ATOM     23  O   UNL     1       5.924  -2.583 -10.394  0.00  0.00    -0.505 OA
ATOM     24  H   UNL     1       5.329  -2.771 -11.133  0.00  0.00    +0.292 HD
ENDBRANCH  18  23
ENDBRANCH  14  15
ENDBRANCH   9  13
TORSDOF 3
