REMARK  Name = ZINC07130540
REMARK  6 active torsions:
REMARK  status: ('A' for Active; 'I' for Inactive)
REMARK    1  A    between atoms: C_1  and  C_2
REMARK    2  A    between atoms: C_9  and  C_11
REMARK    3  A    between atoms: C_14  and  S_16
REMARK    4  A    between atoms: S_16  and  C_17
REMARK    5  A    between atoms: C_17  and  C_19
REMARK    6  A    between atoms: C_17  and  C_20
REMARK                            x       y       z     vdW  Elec       q    Type
REMARK                         _______ _______ _______ _____ _____    ______ ____
ROOT
ATOM      1  C   UNL     1      -1.170   2.287   0.020  0.00  0.00    +0.256 A 
ATOM      2  N   UNL     1      -2.436   1.940   0.025  0.00  0.00    -0.106 NA
ATOM      3  N   UNL     1      -3.169   2.997   0.035  0.00  0.00    -0.101 NA
ATOM      4  C   UNL     1      -2.402   4.061   0.036  0.00  0.00    +0.278 A 
ATOM      5  O   UNL     1      -1.123   3.638   0.033  0.00  0.00    -0.410 OA
ENDROOT
BRANCH   1  13
ATOM      6  C   UNL     1       2.921  -4.091  -0.354  0.00  0.00    +0.008 C 
ATOM      7  C   UNL     1       2.732  -2.580  -0.504  0.00  0.00    -0.009 C 
ATOM      8  C   UNL     1       3.792  -1.853   0.328  0.00  0.00    +0.009 C 
ATOM      9  C   UNL     1       3.766  -0.361  -0.035  0.00  0.00    +0.043 C 
ATOM     10  C   UNL     1       2.344   0.102  -0.019  0.00  0.00    -0.006 A 
ATOM     11  C   UNL     1       1.221  -0.671  -0.013  0.00  0.00    -0.036 A 
ATOM     12  C   UNL     1       0.002  -0.004   0.002  0.00  0.00    +0.024 A 
ATOM     13  C   UNL     1      -0.017   1.375   0.010  0.00  0.00    +0.076 A 
ATOM     14  S   UNL     1       1.727   1.764  -0.005  0.00  0.00    -0.088 S 
ATOM     15  C   UNL     1       1.333  -2.193  -0.024  0.00  0.00    +0.039 C 
ENDBRANCH   1  13
BRANCH   4  16
ATOM     16  S   UNL     1      -2.945   5.738   0.047  0.00  0.00    -0.053 S 
BRANCH  16  17
ATOM     17  C   UNL     1      -4.738   5.487   0.056  0.00  0.00    +0.139 C 
ATOM     18  C   UNL     1      -5.166   4.819  -1.252  0.00  0.00    +0.029 C 
BRANCH  17  19
ATOM     19  C   UNL     1      -5.431   6.819   0.191  0.00  0.00    +0.234 C 
ATOM     20  O   UNL     1      -4.872   7.832  -0.172  0.00  0.00    -0.274 OA
ATOM     21  N   UNL     1      -6.671   6.883   0.714  0.00  0.00    -0.239 N 
ATOM     22  C   UNL     1      -7.290   8.074   0.835  0.00  0.00    +0.303 C 
ATOM     23  O   UNL     1      -6.731   9.090   0.471  0.00  0.00    -0.253 OA
ATOM     24  N   UNL     1      -8.531   8.139   1.358  0.00  0.00    -0.313 N 
ATOM     25  H   UNL     1      -7.118   6.072   1.004  0.00  0.00    +0.159 HD
ATOM     26  H   UNL     1      -8.977   7.328   1.648  0.00  0.00    +0.146 HD
ATOM     27  H   UNL     1      -8.977   8.996   1.444  0.00  0.00    +0.146 HD
ENDBRANCH  17  19
ENDBRANCH  16  17
ENDBRANCH   4  16
TORSDOF 4
