REMARK  Name = ZINC20911975
REMARK  8 active torsions:
REMARK  status: ('A' for Active; 'I' for Inactive)
REMARK    1  A    between atoms: C_7  and  C_14
REMARK    2  A    between atoms: N_9  and  C_10
REMARK    3  A    between atoms: C_10  and  C_11
REMARK    4  A    between atoms: C_14  and  N_15
REMARK    5  A    between atoms: N_18  and  C_25
REMARK    6  A    between atoms: C_19  and  C_22
REMARK    7  A    between atoms: C_22  and  C_23
REMARK    8  A    between atoms: C_23  and  O_24
REMARK                            x       y       z     vdW  Elec       q    Type
REMARK                         _______ _______ _______ _____ _____    ______ ____
ROOT
ATOM      1  C   UNL     1      -6.351   3.192   0.787  0.00  0.00    +0.121 C 
ENDROOT
BRANCH   1   8
ATOM      2  C   UNL     1      -5.933   1.725  -3.645  0.00  0.00    +0.001 A 
ATOM      3  C   UNL     1      -4.899   0.815  -3.819  0.00  0.00    +0.002 A 
ATOM      4  C   UNL     1      -4.117   0.428  -2.752  0.00  0.00    +0.026 A 
ATOM      5  C   UNL     1      -4.364   0.954  -1.488  0.00  0.00    +0.050 A 
ATOM      6  C   UNL     1      -5.413   1.876  -1.318  0.00  0.00    +0.004 A 
ATOM      7  C   UNL     1      -6.193   2.253  -2.413  0.00  0.00    +0.010 A 
ATOM      8  C   UNL     1      -5.411   2.233   0.103  0.00  0.00    -0.008 A 
ATOM      9  C   UNL     1      -4.418   1.539   0.681  0.00  0.00    +0.092 A 
ATOM     10  N   UNL     1      -3.777   0.774  -0.256  0.00  0.00    -0.338 N 
BRANCH  10  11
ATOM     11  C   UNL     1      -2.642  -0.111   0.015  0.00  0.00    +0.217 C 
BRANCH  11  12
ATOM     12  C   UNL     1      -1.356   0.618  -0.281  0.00  0.00    +0.230 C 
ATOM     13  O   UNL     1      -1.386   1.763  -0.679  0.00  0.00    -0.274 OA
ATOM     14  N   UNL     1      -0.173  -0.004  -0.104  0.00  0.00    -0.328 N 
ATOM     15  H   UNL     1       0.765   0.528  -0.320  0.00  0.00    +0.145 HD
ATOM     16  H   UNL     1      -0.146  -1.042   0.257  0.00  0.00    +0.145 HD
ENDBRANCH  11  12
ENDBRANCH  10  11
ENDBRANCH   1   8
BRANCH   1  17
ATOM     17  N   UNL     1      -7.627   2.518   1.059  0.00  0.00    -0.301 NA
ATOM     18  C   UNL     1      -7.406   1.188   1.643  0.00  0.00    +0.066 C 
ATOM     19  C   UNL     1      -8.753   0.488   1.837  0.00  0.00    -0.062 C 
ATOM     20  N   UNL     1      -9.607   1.308   2.709  0.00  0.00    +0.385 N 
ATOM     21  C   UNL     1      -9.828   2.638   2.125  0.00  0.00    -0.052 C 
ATOM     22  C   UNL     1      -8.480   3.338   1.931  0.00  0.00    +0.069 C 
ATOM     23  H   UNL     1      -9.085   1.441   3.668  0.00  0.00    -0.081 HD
BRANCH  20  24
ATOM     24  C   UNL     1     -10.883   0.634   2.981  0.00  0.00    -0.068 C 
ATOM     25  C   UNL     1     -11.523   1.210   4.261  0.00  0.00    -0.015 C 
ATOM     26  C   UNL     1     -12.172  -0.018   4.946  0.00  0.00    -0.002 C 
ATOM     27  C   UNL     1     -11.145  -1.145   4.675  0.00  0.00    -0.002 C 
ATOM     28  C   UNL     1     -10.643  -0.863   3.244  0.00  0.00    -0.015 C 
ENDBRANCH  20  24
BRANCH  21  29
ATOM     29  C   UNL     1     -10.704   3.470   3.064  0.00  0.00    +0.014 C 
BRANCH  29  30
ATOM     30  C   UNL     1     -10.855   4.884   2.502  0.00  0.00    +0.154 C 
BRANCH  30  31
ATOM     31  O   UNL     1     -11.770   5.624   3.312  0.00  0.00    -0.395 OA
ATOM     32  H   UNL     1     -12.007   6.668   3.062  0.00  0.00    +0.209 HD
ENDBRANCH  30  31
ENDBRANCH  29  30
ENDBRANCH  21  29
ENDBRANCH   1  17
TORSDOF 8
