REMARK  Name = ZINC01935850
REMARK  11 active torsions:
REMARK  status: ('A' for Active; 'I' for Inactive)
REMARK    1  A    between atoms: C_1  and  C_2
REMARK    2  A    between atoms: C_2  and  O_3
REMARK    3  A    between atoms: O_3  and  C_4
REMARK    4  A    between atoms: C_4  and  C_6
REMARK    5  A    between atoms: C_7  and  C_33
REMARK    6  A    between atoms: C_8  and  C_32
REMARK    7  A    between atoms: C_10  and  N_11
REMARK    8  A    between atoms: C_12  and  C_14
REMARK    9  A    between atoms: C_14  and  S_15
REMARK   10  A    between atoms: S_15  and  C_16
REMARK   11  A    between atoms: C_18  and  C_25
REMARK                            x       y       z     vdW  Elec       q    Type
REMARK                         _______ _______ _______ _____ _____    ______ ____
ROOT
ATOM      1  C   UNL     1      -0.620  -2.747  -4.975  0.00  0.00    +0.172 C 
ENDROOT
BRANCH   1   3
ATOM      2  N   UNL     1      -0.312  -2.433  -2.541  0.00  0.00    -0.279 N 
ATOM      3  C   UNL     1      -0.551  -3.276  -3.565  0.00  0.00    +0.228 C 
ATOM      4  O   UNL     1      -0.710  -4.459  -3.353  0.00  0.00    -0.275 OA
ATOM      5  H   UNL     1      -0.185  -1.487  -2.711  0.00  0.00    +0.155 HD
BRANCH   2  10
ATOM      6  C   UNL     1      -0.015  -2.215  -0.068  0.00  0.00    +0.091 A 
ATOM      7  C   UNL     1       0.003  -2.983   1.155  0.00  0.00    -0.025 A 
ATOM      8  C   UNL     1      -0.217  -4.306   1.053  0.00  0.00    -0.008 A 
ATOM      9  S   UNL     1      -0.441  -4.551  -0.697  0.00  0.00    -0.078 S 
ATOM     10  C   UNL     1      -0.249  -2.919  -1.244  0.00  0.00    +0.086 A 
ATOM     11  C   UNL     1      -0.258  -5.334   2.154  0.00  0.00    +0.052 C 
ATOM     12  C   UNL     1       0.253  -2.329   2.490  0.00  0.00    +0.045 C 
BRANCH   6  13
ATOM     13  C   UNL     1       0.206  -0.767  -0.070  0.00  0.00    +0.342 C 
ATOM     14  O   UNL     1      -0.737  -0.007   0.040  0.00  0.00    -0.245 OA
BRANCH  13  15
ATOM     15  O   UNL     1       1.457  -0.277  -0.194  0.00  0.00    -0.461 OA
BRANCH  15  17
ATOM     16  C   UNL     1       3.080   1.533  -0.337  0.00  0.00    +0.048 C 
ATOM     17  C   UNL     1       1.601   1.168  -0.188  0.00  0.00    +0.229 C 
ENDBRANCH  15  17
ENDBRANCH  13  15
ENDBRANCH   6  13
ENDBRANCH   2  10
ENDBRANCH   1   3
BRANCH   1  18
ATOM     18  S   UNL     1      -0.951  -4.112  -6.116  0.00  0.00    -0.096 S 
BRANCH  18  19
ATOM     19  C   UNL     1      -0.979  -3.235  -7.643  0.00  0.00    +0.109 A 
ATOM     20  C   UNL     1      -1.209  -3.925  -8.865  0.00  0.00    +0.047 A 
ATOM     21  C   UNL     1      -1.457  -5.343  -9.101  0.00  0.00    +0.001 A 
ATOM     22  C   UNL     1      -1.657  -5.767 -10.371  0.00  0.00    +0.056 A 
ATOM     23  S   UNL     1      -1.529  -4.272 -11.333  0.00  0.00    -0.076 S 
ATOM     24  C   UNL     1      -1.213  -3.120 -10.023  0.00  0.00    +0.113 A 
ATOM     25  N   UNL     1      -1.006  -1.819  -9.956  0.00  0.00    -0.228 NA
ATOM     26  C   UNL     1      -0.793  -1.235  -8.793  0.00  0.00    +0.223 A 
ATOM     27  N   UNL     1      -0.780  -1.926  -7.668  0.00  0.00    -0.229 NA
BRANCH  21  28
ATOM     28  C   UNL     1      -1.486  -6.302  -7.971  0.00  0.00    -0.017 A 
ATOM     29  C   UNL     1      -0.607  -7.385  -7.950  0.00  0.00    +0.010 A 
ATOM     30  C   UNL     1      -0.633  -8.271  -6.894  0.00  0.00    +0.020 A 
ATOM     31  C   UNL     1      -1.538  -8.095  -5.861  0.00  0.00    +0.041 A 
ATOM     32  C   UNL     1      -2.417  -7.025  -5.879  0.00  0.00    +0.020 A 
ATOM     33  C   UNL     1      -2.395  -6.129  -6.928  0.00  0.00    +0.010 A 
ATOM     34 CL   UNL     1      -1.571  -9.218  -4.538  0.00  0.00    -0.084 Cl
ENDBRANCH  21  28
ENDBRANCH  18  19
ENDBRANCH   1  18
TORSDOF 8
