REMARK  Name = ZINC15011072
REMARK  9 active torsions:
REMARK  status: ('A' for Active; 'I' for Inactive)
REMARK    1  A    between atoms: C_1  and  C_2
REMARK    2  A    between atoms: C_2  and  N_3
REMARK    3  A    between atoms: C_7  and  C_8
REMARK    4  A    between atoms: C_12  and  O_15
REMARK    5  A    between atoms: C_13  and  O_14
REMARK    6  A    between atoms: O_15  and  C_16
REMARK    7  A    between atoms: C_16  and  C_17
REMARK    8  A    between atoms: N_21  and  C_22
REMARK    9  A    between atoms: C_25  and  C_28
REMARK                            x       y       z     vdW  Elec       q    Type
REMARK                         _______ _______ _______ _____ _____    ______ ____
ROOT
ATOM      1  N   UNL     1       0.036   1.194   0.962  0.00  0.00    -0.246 N 
ATOM      2  C   UNL     1       0.039  -0.092   0.652  0.00  0.00    +0.259 C 
ATOM      3  O   UNL     1      -0.988  -0.745   0.637  0.00  0.00    -0.269 OA
ATOM      4  C   UNL     1       1.343  -0.698   0.325  0.00  0.00    +0.078 C 
ATOM      5  C   UNL     1       1.636  -1.977  -0.025  0.00  0.00    +0.032 C 
ATOM      6  S   UNL     1       2.434   0.705   0.510  0.00  0.00    -0.049 S 
ATOM      7  C   UNL     1       1.207   1.916   0.973  0.00  0.00    +0.168 C 
ATOM      8  N   UNL     1       1.380   3.191   1.255  0.00  0.00    -0.225 NA
ENDROOT
BRANCH   5   9
ATOM      9  C   UNL     1       3.036  -2.401  -0.151  0.00  0.00    +0.022 A 
ATOM     10  C   UNL     1       4.057  -1.645   0.440  0.00  0.00    +0.027 A 
ATOM     11  C   UNL     1       5.369  -2.052   0.323  0.00  0.00    +0.022 A 
ATOM     12  C   UNL     1       5.686  -3.200  -0.386  0.00  0.00    +0.064 A 
ATOM     13  C   UNL     1       4.688  -3.954  -0.981  0.00  0.00    +0.163 A 
ATOM     14  C   UNL     1       3.359  -3.562  -0.869  0.00  0.00    +0.166 A 
ATOM     15 BR   UNL     1       6.744  -1.033   1.128  0.00  0.00    -0.050 Br
BRANCH  14  16
ATOM     16  O   UNL     1       2.378  -4.300  -1.451  0.00  0.00    -0.503 OA
ATOM     17  H   UNL     1       2.172  -4.035  -2.358  0.00  0.00    +0.292 HD
ENDBRANCH  14  16
BRANCH  13  18
ATOM     18  O   UNL     1       5.008  -5.079  -1.675  0.00  0.00    -0.489 OA
BRANCH  18  19
ATOM     19  C   UNL     1       6.393  -5.422  -1.751  0.00  0.00    +0.226 C 
ATOM     20  C   UNL     1       6.557  -6.707  -2.565  0.00  0.00    +0.048 C 
ENDBRANCH  18  19
ENDBRANCH  13  18
ENDBRANCH   5   9
BRANCH   8  21
ATOM     21  C   UNL     1       2.628   3.735   1.212  0.00  0.00    +0.067 A 
ATOM     22  C   UNL     1       3.708   3.058   1.793  0.00  0.00    +0.028 A 
ATOM     23  C   UNL     1       4.958   3.601   1.746  0.00  0.00    +0.017 A 
ATOM     24  C   UNL     1       5.161   4.839   1.125  0.00  0.00    +0.063 A 
ATOM     25  C   UNL     1       4.081   5.519   0.548  0.00  0.00    +0.017 A 
ATOM     26  C   UNL     1       2.831   4.974   0.591  0.00  0.00    +0.028 A 
BRANCH  24  27
ATOM     27  C   UNL     1       6.509   5.427   1.079  0.00  0.00    +0.387 C 
ATOM     28  O   UNL     1       6.686   6.502   0.540  0.00  0.00    -0.241 OA
ATOM     29  O   UNL     1       7.549   4.773   1.634  0.00  0.00    -0.241 OA
ENDBRANCH  24  27
ENDBRANCH   8  21
BRANCH   1  31
ATOM     30  C   UNL     1      -1.481   1.754   2.797  0.00  0.00    +0.025 C 
ATOM     31  C   UNL     1      -1.228   1.857   1.291  0.00  0.00    +0.112 C 
ENDBRANCH   1  31
TORSDOF 7
