REMARK  Name = ZINC36605255
REMARK  17 active torsions:
REMARK  status: ('A' for Active; 'I' for Inactive)
REMARK    1  A    between atoms: C_1  and  C_2
REMARK    2  A    between atoms: C_2  and  C_3
REMARK    3  A    between atoms: C_2  and  C_4
REMARK    4  A    between atoms: C_2  and  C_5
REMARK    5  A    between atoms: C_5  and  C_6
REMARK    6  A    between atoms: C_6  and  C_7
REMARK    7  A    between atoms: C_6  and  C_8
REMARK    8  A    between atoms: C_6  and  N_9
REMARK    9  A    between atoms: C_10  and  C_12
REMARK   10  A    between atoms: C_12  and  C_14
REMARK   11  A    between atoms: C_12  and  N_21
REMARK   12  A    between atoms: C_19  and  O_20
REMARK   13  A    between atoms: N_21  and  C_22
REMARK   14  A    between atoms: C_28  and  C_30
REMARK   15  A    between atoms: C_30  and  C_32
REMARK   16  A    between atoms: C_30  and  O_38
REMARK   17  A    between atoms: O_38  and  C_39
REMARK                            x       y       z     vdW  Elec       q    Type
REMARK                         _______ _______ _______ _____ _____    ______ ____
ROOT
ATOM      1  C   UNL     1       4.974   0.346  -4.607  0.00  0.00    +0.201 C 
ENDROOT
BRANCH   1   2
ATOM      2  C   UNL     1       5.085  -1.054  -5.155  0.00  0.00    +0.024 A 
ATOM      3  C   UNL     1       6.325  -1.651  -5.279  0.00  0.00    +0.009 A 
ATOM      4  C   UNL     1       6.427  -2.935  -5.782  0.00  0.00    +0.001 A 
ATOM      5  C   UNL     1       5.290  -3.624  -6.162  0.00  0.00    +0.004 A 
ATOM      6  C   UNL     1       4.049  -3.031  -6.040  0.00  0.00    +0.046 A 
ATOM      7  C   UNL     1       3.943  -1.745  -5.531  0.00  0.00    +0.122 A 
BRANCH   7   8
ATOM      8  O   UNL     1       2.722  -1.161  -5.404  0.00  0.00    -0.506 OA
ATOM      9  H   UNL     1       2.440  -0.666  -6.186  0.00  0.00    +0.292 HD
ENDBRANCH   7   8
ENDBRANCH   1   2
BRANCH   1  11
ATOM     10  N   UNL     1       3.502  -0.315  -2.732  0.00  0.00    -0.308 N 
ATOM     11  C   UNL     1       4.638   0.285  -3.139  0.00  0.00    +0.239 C 
ATOM     12  O   UNL     1       5.390   0.776  -2.324  0.00  0.00    -0.273 OA
ATOM     13  H   UNL     1       2.901  -0.708  -3.384  0.00  0.00    +0.149 HD
BRANCH  10  14
ATOM     14  C   UNL     1       3.175  -0.374  -1.305  0.00  0.00    +0.030 C 
ATOM     15  C   UNL     1       3.326   1.018  -0.689  0.00  0.00    +0.031 C 
ATOM     16  C   UNL     1       4.125  -1.348  -0.604  0.00  0.00    +0.031 C 
BRANCH  14  17
ATOM     17  C   UNL     1       1.733  -0.855  -1.132  0.00  0.00    +0.031 C 
BRANCH  17  19
ATOM     18  C   UNL     1       0.982  -0.782  -3.514  0.00  0.00    +0.010 C 
ATOM     19  C   UNL     1       0.831  -0.134  -2.136  0.00  0.00    -0.036 C 
ATOM     20  C   UNL     1       1.235   1.339  -2.219  0.00  0.00    +0.010 C 
ATOM     21  C   UNL     1      -0.626  -0.239  -1.680  0.00  0.00    +0.010 C 
ENDBRANCH  17  19
ENDBRANCH  14  17
ENDBRANCH  10  14
ENDBRANCH   1  11
BRANCH   1  22
ATOM     22  N   UNL     1       6.249   1.044  -4.787  0.00  0.00    -0.253 N 
ATOM     23  C   UNL     1       7.290   0.767  -3.976  0.00  0.00    +0.254 C 
ATOM     24  O   UNL     1       7.185  -0.094  -3.129  0.00  0.00    -0.272 OA
BRANCH  22  25
ATOM     25  C   UNL     1       6.388   1.997  -5.802  0.00  0.00    +0.038 A 
ATOM     26  C   UNL     1       6.216   1.630  -7.130  0.00  0.00    +0.023 A 
ATOM     27  C   UNL     1       6.352   2.574  -8.129  0.00  0.00    +0.002 A 
ATOM     28  C   UNL     1       6.660   3.884  -7.808  0.00  0.00    +0.000 A 
ATOM     29  C   UNL     1       6.832   4.252  -6.486  0.00  0.00    +0.002 A 
ATOM     30  C   UNL     1       6.691   3.314  -5.482  0.00  0.00    +0.023 A 
ENDBRANCH  22  25
BRANCH  23  31
ATOM     31  C   UNL     1       8.582   1.528  -4.122  0.00  0.00    +0.234 C 
BRANCH  31  32
ATOM     32  C   UNL     1       9.291   1.078  -5.374  0.00  0.00    -0.010 A 
ATOM     33  C   UNL     1       9.914  -0.156  -5.409  0.00  0.00    +0.006 A 
ATOM     34  C   UNL     1      10.564  -0.569  -6.557  0.00  0.00    +0.000 A 
ATOM     35  C   UNL     1      10.592   0.251  -7.669  0.00  0.00    +0.000 A 
ATOM     36  C   UNL     1       9.969   1.485  -7.634  0.00  0.00    +0.000 A 
ATOM     37  C   UNL     1       9.315   1.896  -6.487  0.00  0.00    +0.006 A 
ENDBRANCH  31  32
BRANCH  31  38
ATOM     38  O   UNL     1       9.413   1.277  -2.987  0.00  0.00    -0.366 OA
ATOM     39  C   UNL     1       9.220   2.197  -1.911  0.00  0.00    +0.195 C 
ENDBRANCH  31  38
ENDBRANCH  23  31
ENDBRANCH   1  22
TORSDOF 11
