REMARK  Name = ZINC39502891
REMARK  8 active torsions:
REMARK  status: ('A' for Active; 'I' for Inactive)
REMARK    1  A    between atoms: C_1  and  C_2
REMARK    2  A    between atoms: C_2  and  C_3
REMARK    3  A    between atoms: C_2  and  S_4
REMARK    4  A    between atoms: S_4  and  C_7
REMARK    5  A    between atoms: C_14  and  C_25
REMARK    6  A    between atoms: N_17  and  C_18
REMARK    7  A    between atoms: C_18  and  C_19
REMARK    8  A    between atoms: C_25  and  C_26
REMARK                            x       y       z     vdW  Elec       q    Type
REMARK                         _______ _______ _______ _____ _____    ______ ____
ROOT
ATOM      1  C   UNL     1      -2.406   0.088  -1.494  0.00  0.00    +0.129 C 
ATOM      2  C   UNL     1      -1.652  -0.463  -2.730  0.00  0.00    +0.025 C 
ATOM      3  C   UNL     1      -2.692  -0.301  -3.868  0.00  0.00    -0.010 C 
ATOM      4  C   UNL     1      -4.034  -0.633  -3.197  0.00  0.00    -0.063 C 
ATOM      5  C   UNL     1      -3.862  -0.389  -1.691  0.00  0.00    +0.014 C 
ATOM      6  C   UNL     1      -4.409  -2.101  -3.462  0.00  0.00    -0.010 C 
ATOM      7  C   UNL     1      -5.949  -2.037  -3.648  0.00  0.00    -0.025 C 
ATOM      8  C   UNL     1      -6.123  -0.671  -4.359  0.00  0.00    -0.074 C 
ATOM      9  N   UNL     1      -5.107   0.210  -3.741  0.00  0.00    +0.386 N 
ATOM     10  H   UNL     1      -5.528   0.746  -2.997  0.00  0.00    -0.081 HD
ENDROOT
BRANCH   1  11
ATOM     11  S   UNL     1      -1.713  -0.603   0.033  0.00  0.00    -0.026 S 
ATOM     12  O   UNL     1      -1.663  -2.018  -0.096  0.00  0.00    -0.174 OA
ATOM     13  O   UNL     1      -2.402  -0.034   1.138  0.00  0.00    -0.174 OA
BRANCH  11  15
ATOM     14  C   UNL     1      -0.043   1.563   0.030  0.00  0.00    +0.031 C 
ATOM     15  C   UNL     1      -0.015   0.034   0.027  0.00  0.00    +0.125 C 
ATOM     16  C   UNL     1       0.722  -0.466   1.271  0.00  0.00    +0.031 C 
ENDBRANCH  11  15
ENDBRANCH   1  11
BRANCH   9  17
ATOM     17  C   UNL     1      -4.556   1.119  -4.755  0.00  0.00    -0.042 C 
BRANCH  17  18
ATOM     18  C   UNL     1      -5.659   1.989  -5.302  0.00  0.00    -0.064 A 
ATOM     19  C   UNL     1      -6.389   1.571  -6.399  0.00  0.00    +0.002 A 
ATOM     20  C   UNL     1      -7.401   2.369  -6.900  0.00  0.00    +0.000 A 
ATOM     21  C   UNL     1      -7.682   3.584  -6.304  0.00  0.00    +0.000 A 
ATOM     22  C   UNL     1      -6.952   4.001  -5.207  0.00  0.00    +0.000 A 
ATOM     23  C   UNL     1      -5.944   3.202  -4.703  0.00  0.00    +0.002 A 
ENDBRANCH  17  18
ENDBRANCH   9  17
BRANCH   7  24
ATOM     24  C   UNL     1      -6.442  -3.183  -4.533  0.00  0.00    +0.036 C 
BRANCH  24  25
ATOM     25  C   UNL     1      -7.948  -3.161  -4.591  0.00  0.00    -0.047 A 
ATOM     26  C   UNL     1      -8.686  -3.864  -3.658  0.00  0.00    +0.003 A 
ATOM     27  C   UNL     1     -10.067  -3.844  -3.711  0.00  0.00    +0.000 A 
ATOM     28  C   UNL     1     -10.710  -3.119  -4.697  0.00  0.00    +0.000 A 
ATOM     29  C   UNL     1      -9.972  -2.415  -5.630  0.00  0.00    +0.000 A 
ATOM     30  C   UNL     1      -8.591  -2.432  -5.574  0.00  0.00    +0.003 A 
ENDBRANCH  24  25
ENDBRANCH   7  24
TORSDOF 6
