REMARK  Name = ZINC39690731
REMARK  4 active torsions:
REMARK  status: ('A' for Active; 'I' for Inactive)
REMARK    1  A    between atoms: C_5  and  C_7
REMARK    2  A    between atoms: C_7  and  N_8
REMARK    3  A    between atoms: C_9  and  C_11
REMARK    4  A    between atoms: C_22  and  C_24
REMARK                            x       y       z     vdW  Elec       q    Type
REMARK                         _______ _______ _______ _____ _____    ______ ____
ROOT
ATOM      1  C   UNL     1       1.267  -4.269   1.961  0.00  0.00    +0.100 C 
ATOM      2  C   UNL     1       0.644  -4.003   3.350  0.00  0.00    +0.121 C 
ATOM      3  N   UNL     1      -0.379  -5.062   3.510  0.00  0.00    -0.300 N 
ATOM      4  C   UNL     1       0.251  -6.274   2.932  0.00  0.00    +0.115 C 
ATOM      5  C   UNL     1       1.010  -5.761   1.692  0.00  0.00    -0.004 C 
ATOM      6  C   UNL     1       2.333  -6.505   1.537  0.00  0.00    -0.010 C 
ATOM      7  C   UNL     1       2.051  -7.975   1.212  0.00  0.00    -0.082 C 
ATOM      8  N   UNL     1       1.269  -8.063  -0.027  0.00  0.00    +0.379 N 
ATOM      9  C   UNL     1      -0.040  -7.425   0.161  0.00  0.00    -0.082 C 
ATOM     10  C   UNL     1       0.154  -5.932   0.441  0.00  0.00    -0.010 C 
ATOM     11  C   UNL     1      -1.605  -4.951   4.059  0.00  0.00    +0.219 C 
ATOM     12  O   UNL     1      -2.016  -3.865   4.409  0.00  0.00    -0.275 OA
ATOM     13  H   UNL     1       1.766  -7.596  -0.771  0.00  0.00    -0.086 HD
ATOM     14  H   UNL     1       1.137  -9.033  -0.271  0.00  0.00    -0.086 HD
ENDROOT
BRANCH  11  15
ATOM     15  C   UNL     1      -2.465  -6.175   4.237  0.00  0.00    +0.079 C 
ATOM     16  C   UNL     1      -3.945  -5.783   4.149  0.00  0.00    +0.017 C 
ATOM     17  C   UNL     1      -4.786  -7.061   4.154  0.00  0.00    +0.027 C 
ATOM     18  C   UNL     1      -4.359  -7.957   5.280  0.00  0.00    -0.031 C 
ATOM     19  C   UNL     1      -3.236  -7.840   5.913  0.00  0.00    -0.030 C 
ATOM     20  C   UNL     1      -2.204  -6.791   5.613  0.00  0.00    +0.039 C 
ENDBRANCH  11  15
BRANCH   1  22
ATOM     21  N   UNL     1       1.273  -3.042  -0.187  0.00  0.00    -0.311 N 
ATOM     22  C   UNL     1       0.592  -3.422   0.912  0.00  0.00    +0.218 C 
ATOM     23  O   UNL     1      -0.563  -3.084   1.058  0.00  0.00    -0.275 OA
ATOM     24  H   UNL     1       2.197  -3.312  -0.304  0.00  0.00    +0.149 HD
BRANCH  21  25
ATOM     25  C   UNL     1       0.616  -2.219  -1.206  0.00  0.00    +0.140 C 
BRANCH  25  30
ATOM     26  C   UNL     1       3.132  -0.457  -3.402  0.00  0.00    +0.000 A 
ATOM     27  C   UNL     1       3.367  -1.411  -4.374  0.00  0.00    +0.001 A 
ATOM     28  C   UNL     1       2.713  -2.627  -4.321  0.00  0.00    +0.015 A 
ATOM     29  C   UNL     1       1.822  -2.890  -3.296  0.00  0.00    +0.023 A 
ATOM     30  C   UNL     1       1.587  -1.934  -2.324  0.00  0.00    -0.016 A 
ATOM     31  C   UNL     1       2.242  -0.718  -2.377  0.00  0.00    +0.006 A 
ATOM     32 BR   UNL     1       0.927  -4.553  -3.223  0.00  0.00    -0.050 Br
ENDBRANCH  25  30
ENDBRANCH  21  25
ENDBRANCH   1  22
TORSDOF 4
