REMARK  Name = ZINC28055562
REMARK  5 active torsions:
REMARK  status: ('A' for Active; 'I' for Inactive)
REMARK    1  A    between atoms: C_1  and  C_2
REMARK    2  A    between atoms: C_6  and  C_8
REMARK    3  A    between atoms: C_25  and  C_27
REMARK    4  A    between atoms: C_30  and  O_33
REMARK    5  A    between atoms: O_33  and  C_34
REMARK                            x       y       z     vdW  Elec       q    Type
REMARK                         _______ _______ _______ _____ _____    ______ ____
ROOT
ATOM      1  C   UNL     1       2.490   1.047  -0.016  0.00  0.00    +0.234 C 
ATOM      2  C   UNL     1       2.804   0.619  -1.431  0.00  0.00    +0.025 C 
ATOM      3  C   UNL     1       2.353  -0.557  -1.870  0.00  0.00    +0.050 C 
ATOM      4  C   UNL     1       1.566  -1.403  -0.941  0.00  0.00    +0.038 A 
ATOM      5  C   UNL     1       0.780  -2.452  -1.401  0.00  0.00    +0.013 A 
ATOM      6  C   UNL     1       0.067  -3.215  -0.497  0.00  0.00    +0.001 A 
ATOM      7  C   UNL     1       0.133  -2.938   0.857  0.00  0.00    +0.004 A 
ATOM      8  C   UNL     1       0.912  -1.894   1.323  0.00  0.00    +0.046 A 
ATOM      9  C   UNL     1       1.630  -1.121   0.430  0.00  0.00    +0.131 A 
ATOM     10  O   UNL     1       2.405  -0.087   0.846  0.00  0.00    -0.479 OA
ATOM     11  N   UNL     1       2.604  -1.017  -3.169  0.00  0.00    -0.282 N 
ATOM     12  C   UNL     1       3.571  -0.350  -3.902  0.00  0.00    +0.240 A 
ATOM     13  N   UNL     1       4.180  -0.667  -5.009  0.00  0.00    -0.092 NA
ATOM     14  N   UNL     1       5.027   0.251  -5.330  0.00  0.00    -0.021 NA
ATOM     15  N   UNL     1       5.011   1.205  -4.457  0.00  0.00    -0.042 NA
ATOM     16  N   UNL     1       4.061   0.851  -3.499  0.00  0.00    -0.201 N 
ATOM     17  C   UNL     1       3.618   1.547  -2.300  0.00  0.00    +0.174 C 
ATOM     18  H   UNL     1       2.042  -1.875  -3.567  0.00  0.00    +0.155 HD
ENDROOT
BRANCH   1  24
ATOM     19  C   UNL     1      -2.509   0.995  -0.251  0.00  0.00    +0.044 C 
ATOM     20  C   UNL     1      -1.217   1.758  -0.112  0.00  0.00    -0.050 A 
ATOM     21  C   UNL     1      -1.238   3.133   0.031  0.00  0.00    +0.003 A 
ATOM     22  C   UNL     1      -0.053   3.832   0.162  0.00  0.00    +0.001 A 
ATOM     23  C   UNL     1       1.154   3.158   0.142  0.00  0.00    +0.007 A 
ATOM     24  C   UNL     1       1.175   1.783   0.000  0.00  0.00    -0.003 A 
ATOM     25  C   UNL     1      -0.011   1.083  -0.127  0.00  0.00    +0.011 A 
ENDBRANCH   1  24
BRANCH  17  26
ATOM     26  C   UNL     1       2.773   2.732  -2.693  0.00  0.00    -0.018 A 
ATOM     27  C   UNL     1       1.608   2.541  -3.412  0.00  0.00    +0.009 A 
ATOM     28  C   UNL     1       0.829   3.624  -3.768  0.00  0.00    +0.046 A 
ATOM     29  C   UNL     1       1.223   4.907  -3.414  0.00  0.00    +0.120 A 
ATOM     30  C   UNL     1       2.396   5.096  -2.697  0.00  0.00    +0.046 A 
ATOM     31  C   UNL     1       3.168   4.009  -2.338  0.00  0.00    +0.009 A 
BRANCH  29  32
ATOM     32  O   UNL     1       0.461   5.975  -3.768  0.00  0.00    -0.495 OA
ATOM     33  C   UNL     1      -0.733   5.705  -4.505  0.00  0.00    +0.277 C 
ENDBRANCH  29  32
ENDBRANCH  17  26
TORSDOF 3
