REMARK  Name = ZINC21238183
REMARK  9 active torsions:
REMARK  status: ('A' for Active; 'I' for Inactive)
REMARK    1  A    between atoms: C_1  and  C_2
REMARK    2  A    between atoms: C_2  and  O_3
REMARK    3  A    between atoms: O_3  and  C_4
REMARK    4  A    between atoms: C_6  and  C_14
REMARK    5  A    between atoms: C_9  and  O_10
REMARK    6  A    between atoms: O_10  and  C_11
REMARK    7  A    between atoms: C_11  and  C_12
REMARK    8  A    between atoms: C_25  and  C_28
REMARK    9  A    between atoms: C_31  and  C_34
REMARK                            x       y       z     vdW  Elec       q    Type
REMARK                         _______ _______ _______ _____ _____    ______ ____
ROOT
ATOM      1  C   UNL     1      -1.294  -0.773   0.011  0.00  0.00    +0.063 C 
ATOM      2  C   UNL     1      -2.089  -0.419   1.268  0.00  0.00    +0.109 C 
ATOM      3  C   UNL     1      -2.623   0.984   1.136  0.00  0.00    +0.218 C 
ATOM      4  O   UNL     1      -2.725   1.687   2.118  0.00  0.00    -0.275 OA
ATOM      5  N   UNL     1      -2.986   1.456  -0.069  0.00  0.00    -0.289 N 
ATOM      6  C   UNL     1      -2.904   0.673  -1.192  0.00  0.00    +0.018 C 
ATOM      7  C   UNL     1      -2.103  -0.412  -1.213  0.00  0.00    +0.020 C 
ATOM      8  C   UNL     1      -1.998  -1.223  -2.355  0.00  0.00    +0.162 C 
ATOM      9  O   UNL     1      -1.275  -2.199  -2.332  0.00  0.00    -0.292 OA
ATOM     10  C   UNL     1      -2.767  -0.901  -3.608  0.00  0.00    +0.088 C 
ATOM     11  C   UNL     1      -3.000   0.613  -3.673  0.00  0.00    +0.032 C 
ATOM     12  C   UNL     1      -3.727   1.050  -2.400  0.00  0.00    +0.059 C 
ATOM     13  H   UNL     1      -3.357   2.487  -0.166  0.00  0.00    +0.155 HD
ENDROOT
BRANCH   1  16
ATOM     14  C   UNL     1       2.399   0.024  -0.021  0.00  0.00    +0.163 A 
ATOM     15  C   UNL     1       1.207  -0.682  -0.013  0.00  0.00    +0.053 A 
ATOM     16  C   UNL     1       0.002  -0.004   0.002  0.00  0.00    -0.035 A 
ATOM     17  C   UNL     1      -0.017   1.378   0.010  0.00  0.00    +0.023 A 
ATOM     18  C   UNL     1       1.170   2.089   0.002  0.00  0.00    +0.063 A 
ATOM     19  C   UNL     1       2.381   1.415  -0.013  0.00  0.00    +0.176 A 
ATOM     20 BR   UNL     1       1.140   3.980   0.012  0.00  0.00    -0.046 Br
BRANCH  14  21
ATOM     21  O   UNL     1       3.585  -0.642  -0.036  0.00  0.00    -0.489 OA
BRANCH  21  23
ATOM     22  C   UNL     1       4.948  -2.638  -0.059  0.00  0.00    +0.048 C 
ATOM     23  C   UNL     1       3.527  -2.070  -0.043  0.00  0.00    +0.226 C 
ENDBRANCH  21  23
ENDBRANCH  14  21
BRANCH  19  24
ATOM     24  O   UNL     1       3.549   2.112  -0.021  0.00  0.00    -0.487 OA
BRANCH  24  25
ATOM     25  C   UNL     1       4.094   2.451  -1.298  0.00  0.00    +0.226 C 
ATOM     26  C   UNL     1       5.399   3.227  -1.105  0.00  0.00    +0.048 C 
ENDBRANCH  24  25
ENDBRANCH  19  24
ENDBRANCH   1  16
BRANCH  11  27
ATOM     27  C   UNL     1      -3.845   0.943  -4.877  0.00  0.00    -0.043 A 
ATOM     28  C   UNL     1      -5.111   0.402  -5.002  0.00  0.00    +0.004 A 
ATOM     29  C   UNL     1      -5.888   0.709  -6.103  0.00  0.00    +0.003 A 
ATOM     30  C   UNL     1      -5.395   1.548  -7.085  0.00  0.00    -0.050 A 
ATOM     31  C   UNL     1      -4.127   2.085  -6.962  0.00  0.00    +0.003 A 
ATOM     32  C   UNL     1      -3.352   1.782  -5.858  0.00  0.00    +0.004 A 
ATOM     33  C   UNL     1      -6.239   1.878  -8.288  0.00  0.00    +0.044 C 
ENDBRANCH  11  27
TORSDOF 6
