REMARK  Name = ZINC39686332
REMARK  9 active torsions:
REMARK  status: ('A' for Active; 'I' for Inactive)
REMARK    1  A    between atoms: C_1  and  C_2
REMARK    2  A    between atoms: C_3  and  C_8
REMARK    3  A    between atoms: C_4  and  C_7
REMARK    4  A    between atoms: C_12  and  C_21
REMARK    5  A    between atoms: N_23  and  C_24
REMARK    6  A    between atoms: C_30  and  C_32
REMARK    7  A    between atoms: C_32  and  C_33
REMARK    8  A    between atoms: C_33  and  C_34
REMARK    9  A    between atoms: C_33  and  C_35
REMARK                            x       y       z     vdW  Elec       q    Type
REMARK                         _______ _______ _______ _____ _____    ______ ____
ROOT
ATOM      1  C   UNL     1       0.027  -0.416  -2.736  0.00  0.00    +0.252 C 
ATOM      2  O   UNL     1       1.058  -0.166  -3.330  0.00  0.00    -0.270 OA
ATOM      3  N   UNL     1      -1.163  -0.211  -3.336  0.00  0.00    -0.296 N 
ATOM      4  C   UNL     1      -2.514  -0.449  -2.777  0.00  0.00    +0.121 C 
ATOM      5  C   UNL     1      -3.361   0.741  -3.283  0.00  0.00    +0.100 C 
ATOM      6  C   UNL     1      -2.635   1.229  -4.548  0.00  0.00    -0.004 C 
ATOM      7  C   UNL     1      -1.414   0.309  -4.701  0.00  0.00    +0.115 C 
ATOM      8  C   UNL     1      -2.180   2.674  -4.372  0.00  0.00    -0.010 C 
ATOM      9  C   UNL     1      -1.512   3.155  -5.663  0.00  0.00    -0.082 C 
ATOM     10  N   UNL     1      -2.463   3.053  -6.776  0.00  0.00    +0.379 N 
ATOM     11  C   UNL     1      -2.824   1.647  -6.999  0.00  0.00    -0.082 C 
ATOM     12  C   UNL     1      -3.548   1.103  -5.764  0.00  0.00    -0.010 C 
ATOM     13  H   UNL     1      -3.294   3.581  -6.556  0.00  0.00    -0.086 HD
ATOM     14  H   UNL     1      -2.041   3.426  -7.613  0.00  0.00    -0.086 HD
ENDROOT
BRANCH   1  17
ATOM     15  C   UNL     1       0.041   1.341  -0.017  0.00  0.00    +0.070 C 
ATOM     16  C   UNL     1       0.084  -0.162  -0.125  0.00  0.00    +0.093 A 
ATOM     17  C   UNL     1       0.078  -0.945  -1.362  0.00  0.00    +0.101 A 
ATOM     18  C   UNL     1       0.127  -2.260  -0.996  0.00  0.00    +0.147 A 
ATOM     19  O   UNL     1       0.162  -2.318   0.337  0.00  0.00    -0.359 OA
ATOM     20  N   UNL     1       0.140  -1.006   0.863  0.00  0.00    -0.083 NA
ATOM     21  C   UNL     1       0.141  -3.439  -1.934  0.00  0.00    +0.090 C 
ENDBRANCH   1  17
BRANCH   5  22
ATOM     22  C   UNL     1      -4.757   0.286  -3.620  0.00  0.00    +0.218 C 
ATOM     23  O   UNL     1      -4.947  -0.843  -4.021  0.00  0.00    -0.275 OA
ATOM     24  N   UNL     1      -5.796   1.133  -3.474  0.00  0.00    -0.312 N 
ATOM     25  H   UNL     1      -5.644   2.035  -3.153  0.00  0.00    +0.149 HD
BRANCH  24  26
ATOM     26  C   UNL     1      -7.153   0.690  -3.801  0.00  0.00    +0.076 C 
ATOM     27  C   UNL     1      -7.402   0.873  -5.300  0.00  0.00    +0.041 C 
ATOM     28  C   UNL     1      -8.810   0.377  -5.644  0.00  0.00    +0.109 C 
ATOM     29  N   UNL     1      -9.779   1.069  -4.783  0.00  0.00    -0.301 N 
ATOM     30  C   UNL     1      -9.582   1.034  -3.328  0.00  0.00    +0.109 C 
ATOM     31  C   UNL     1      -8.165   1.522  -3.010  0.00  0.00    +0.041 C 
ATOM     32  C   UNL     1     -10.828   1.725  -5.319  0.00  0.00    +0.216 C 
ATOM     33  O   UNL     1     -10.979   1.747  -6.522  0.00  0.00    -0.276 OA
BRANCH  32  34
ATOM     34  C   UNL     1     -11.812   2.430  -4.422  0.00  0.00    +0.099 C 
BRANCH  34  35
ATOM     35  C   UNL     1     -12.898   3.089  -5.276  0.00  0.00    -0.008 C 
ATOM     36  C   UNL     1     -13.707   2.008  -5.995  0.00  0.00    +0.008 C 
ATOM     37  C   UNL     1     -13.826   3.908  -4.377  0.00  0.00    +0.008 C 
ENDBRANCH  34  35
ENDBRANCH  32  34
ENDBRANCH  24  26
ENDBRANCH   5  22
TORSDOF 5
