REMARK  Name = ZINC02398357
REMARK  8 active torsions:
REMARK  status: ('A' for Active; 'I' for Inactive)
REMARK    1  A    between atoms: C_1  and  C_2
REMARK    2  A    between atoms: C_2  and  C_3
REMARK    3  A    between atoms: C_3  and  C_27
REMARK    4  A    between atoms: C_10  and  N_16
REMARK    5  A    between atoms: C_12  and  S_14
REMARK    6  A    between atoms: S_14  and  C_15
REMARK    7  A    between atoms: N_16  and  N_17
REMARK    8  A    between atoms: C_18  and  C_20
REMARK                            x       y       z     vdW  Elec       q    Type
REMARK                         _______ _______ _______ _____ _____    ______ ____
ROOT
ATOM      1  C   UNL     1       0.794   9.721   1.705  0.00  0.00    +0.071 C 
ATOM      2  C   UNL     1      -0.222   8.585   1.856  0.00  0.00    +0.071 C 
ATOM      3  C   UNL     1       0.204   7.443   0.937  0.00  0.00    -0.020 A 
ATOM      4  C   UNL     1       1.079   7.684  -0.063  0.00  0.00    +0.021 A 
ATOM      5  S   UNL     1       1.299   6.123  -0.869  0.00  0.00    -0.071 S 
ATOM      6  C   UNL     1       0.215   5.146   0.141  0.00  0.00    +0.115 A 
ATOM      7  C   UNL     1      -0.286   6.073   1.077  0.00  0.00    +0.052 A 
ATOM      8  C   UNL     1      -1.202   5.546   2.031  0.00  0.00    +0.148 A 
ATOM      9  N   UNL     1      -1.522   4.264   1.982  0.00  0.00    -0.205 NA
ATOM     10  C   UNL     1      -1.007   3.443   1.074  0.00  0.00    +0.191 A 
ATOM     11  N   UNL     1      -0.149   3.879   0.160  0.00  0.00    -0.215 NA
ATOM     12  C   UNL     1       1.707   9.003  -0.392  0.00  0.00    +0.203 C 
ATOM     13  O   UNL     1       0.992  10.024   0.321  0.00  0.00    -0.368 OA
ATOM     14  C   UNL     1       2.127   9.294   2.323  0.00  0.00    +0.042 C 
ENDROOT
BRANCH   1  16
ATOM     15  C   UNL     1       1.290  12.101   2.279  0.00  0.00    +0.007 C 
ATOM     16  C   UNL     1       0.276  10.966   2.428  0.00  0.00    +0.032 C 
ENDBRANCH   1  16
BRANCH  10  17
ATOM     17  S   UNL     1      -1.477   1.745   1.078  0.00  0.00    -0.089 S 
ATOM     18  C   UNL     1      -0.507   1.147  -0.327  0.00  0.00    +0.093 C 
ENDBRANCH  10  17
BRANCH   8  19
ATOM     19  N   UNL     1      -1.756   6.368   2.996  0.00  0.00    -0.247 N 
ATOM     20  H   UNL     1      -1.647   7.330   2.935  0.00  0.00    +0.172 HD
BRANCH  19  21
ATOM     21  N   UNL     1      -2.474   5.811   4.062  0.00  0.00    -0.229 N 
ATOM     22  C   UNL     1      -3.014   6.611   5.003  0.00  0.00    +0.295 C 
ATOM     23  O   UNL     1      -2.877   7.818   4.926  0.00  0.00    -0.265 OA
ATOM     24  H   UNL     1      -2.583   4.849   4.124  0.00  0.00    +0.173 HD
BRANCH  22  25
ATOM     25  C   UNL     1      -3.765   6.028   6.119  0.00  0.00    +0.190 A 
ATOM     26  C   UNL     1      -4.356   6.720   7.137  0.00  0.00    +0.054 A 
ATOM     27  C   UNL     1      -4.962   5.769   7.973  0.00  0.00    +0.042 A 
ATOM     28  C   UNL     1      -4.711   4.553   7.440  0.00  0.00    +0.196 A 
ATOM     29  O   UNL     1      -3.990   4.713   6.322  0.00  0.00    -0.458 OA
ENDBRANCH  22  25
ENDBRANCH  19  21
ENDBRANCH   8  19
TORSDOF 5
