REMARK  Name = ZINC04188196
REMARK  5 active torsions:
REMARK  status: ('A' for Active; 'I' for Inactive)
REMARK    1  A    between atoms: C_1  and  C_2
REMARK    2  A    between atoms: C_3  and  C_12
REMARK    3  A    between atoms: N_13  and  N_14
REMARK    4  A    between atoms: C_15  and  C_17
REMARK    5  A    between atoms: C_20  and  C_22
REMARK                            x       y       z     vdW  Elec       q    Type
REMARK                         _______ _______ _______ _____ _____    ______ ____
ROOT
ATOM      1  C   UNL     1       2.285   4.881   5.314  0.00  0.00    +0.140 C 
ATOM      2  N   UNL     1       2.105   4.098   4.293  0.00  0.00    -0.188 NA
ENDROOT
BRANCH   1   5
ATOM      3  C   UNL     1      -0.394   3.306   5.369  0.00  0.00    +0.064 C 
ATOM      4  C   UNL     1       0.083   4.284   6.411  0.00  0.00    +0.023 A 
ATOM      5  C   UNL     1       1.261   4.963   6.367  0.00  0.00    +0.023 A 
ATOM      6  C   UNL     1       1.314   5.792   7.584  0.00  0.00    +0.009 A 
ATOM      7  C   UNL     1       2.240   6.698   8.098  0.00  0.00    +0.010 A 
ATOM      8  C   UNL     1       1.983   7.333   9.292  0.00  0.00    +0.001 A 
ATOM      9  C   UNL     1       0.805   7.080   9.981  0.00  0.00    +0.002 A 
ATOM     10  C   UNL     1      -0.123   6.193   9.482  0.00  0.00    +0.026 A 
ATOM     11  C   UNL     1       0.118   5.541   8.277  0.00  0.00    +0.047 A 
ATOM     12  N   UNL     1      -0.600   4.622   7.541  0.00  0.00    -0.358 N 
ATOM     13  H   UNL     1      -1.467   4.267   7.792  0.00  0.00    +0.166 HD
ENDBRANCH   1   5
BRANCH   2  14
ATOM     14  N   UNL     1       3.080   4.019   3.290  0.00  0.00    -0.207 N 
ATOM     15  C   UNL     1       2.894   3.207   2.231  0.00  0.00    +0.236 C 
ATOM     16  O   UNL     1       1.882   2.543   2.146  0.00  0.00    -0.274 OA
ATOM     17  H   UNL     1       3.889   4.550   3.357  0.00  0.00    +0.177 HD
BRANCH  15  18
ATOM     18  C   UNL     1       3.942   3.122   1.152  0.00  0.00    +0.085 C 
ATOM     19  C   UNL     1       3.591   3.697  -0.223  0.00  0.00    +0.022 C 
ATOM     20  C   UNL     1       3.672   2.182  -0.024  0.00  0.00    +0.032 C 
BRANCH  20  21
ATOM     21  C   UNL     1       2.377   1.411  -0.015  0.00  0.00    -0.044 A 
ATOM     22  C   UNL     1       1.171   2.086   0.002  0.00  0.00    +0.004 A 
ATOM     23  C   UNL     1      -0.017   1.378   0.010  0.00  0.00    +0.000 A 
ATOM     24  C   UNL     1       0.002  -0.004   0.002  0.00  0.00    +0.000 A 
ATOM     25  C   UNL     1       1.208  -0.679  -0.013  0.00  0.00    +0.000 A 
ATOM     26  C   UNL     1       2.396   0.029  -0.022  0.00  0.00    +0.004 A 
ENDBRANCH  20  21
ENDBRANCH  15  18
ENDBRANCH   2  14
TORSDOF 4
