REMARK  Name = ZINC59166848
REMARK  7 active torsions:
REMARK  status: ('A' for Active; 'I' for Inactive)
REMARK    1  A    between atoms: C_4  and  C_7
REMARK    2  A    between atoms: C_7  and  C_8
REMARK    3  A    between atoms: C_8  and  C_9
REMARK    4  A    between atoms: C_9  and  C_10
REMARK    5  A    between atoms: N_12  and  N_13
REMARK    6  A    between atoms: C_14  and  C_15
REMARK    7  A    between atoms: C_20  and  O_21
REMARK                            x       y       z     vdW  Elec       q    Type
REMARK                         _______ _______ _______ _____ _____    ______ ____
ROOT
ATOM      1  C   UNL     1       5.960  -1.962   2.796  0.00  0.00    +0.232 C 
ATOM      2  O   UNL     1       5.282  -1.582   3.727  0.00  0.00    -0.274 OA
ATOM      3  N   UNL     1       7.119  -2.611   3.027  0.00  0.00    -0.207 N 
ATOM      4  H   UNL     1       7.661  -2.915   2.283  0.00  0.00    +0.177 HD
ENDROOT
BRANCH   3   5
ATOM      5  N   UNL     1       7.540  -2.845   4.342  0.00  0.00    -0.188 NA
ATOM      6  C   UNL     1       8.656  -3.469   4.565  0.00  0.00    +0.142 C 
BRANCH   6   7
ATOM      7  C   UNL     1       9.100  -3.716   5.949  0.00  0.00    +0.037 A 
ATOM      8  C   UNL     1      10.303  -4.382   6.192  0.00  0.00    +0.028 A 
ATOM      9  C   UNL     1      10.712  -4.609   7.490  0.00  0.00    +0.019 A 
ATOM     10  C   UNL     1       9.934  -4.180   8.553  0.00  0.00    +0.019 A 
ATOM     11  C   UNL     1       8.742  -3.520   8.324  0.00  0.00    +0.047 A 
ATOM     12  C   UNL     1       8.319  -3.278   7.027  0.00  0.00    +0.126 A 
ATOM     13 BR   UNL     1      12.341  -5.511   7.819  0.00  0.00    -0.050 Br
BRANCH  12  14
ATOM     14  O   UNL     1       7.150  -2.625   6.802  0.00  0.00    -0.506 OA
ATOM     15  H   UNL     1       6.380  -3.207   6.737  0.00  0.00    +0.292 HD
ENDBRANCH  12  14
ENDBRANCH   6   7
ENDBRANCH   3   5
BRANCH   1  16
ATOM     16  C   UNL     1       5.507  -1.710   1.381  0.00  0.00    +0.098 C 
BRANCH  16  17
ATOM     17  C   UNL     1       4.171  -0.963   1.399  0.00  0.00    +0.014 C 
BRANCH  17  18
ATOM     18  C   UNL     1       3.711  -0.707  -0.038  0.00  0.00    +0.035 C 
BRANCH  18  22
ATOM     19  C   UNL     1      -0.017   1.378   0.010  0.00  0.00    +0.000 A 
ATOM     20  C   UNL     1       1.171   2.086   0.002  0.00  0.00    +0.000 A 
ATOM     21  C   UNL     1       2.377   1.411  -0.013  0.00  0.00    +0.003 A 
ATOM     22  C   UNL     1       2.396   0.029  -0.020  0.00  0.00    -0.047 A 
ATOM     23  C   UNL     1       1.208  -0.679  -0.012  0.00  0.00    +0.003 A 
ATOM     24  C   UNL     1       0.002  -0.004   0.002  0.00  0.00    +0.000 A 
ENDBRANCH  18  22
ENDBRANCH  17  18
ENDBRANCH  16  17
ENDBRANCH   1  16
TORSDOF 7
