REMARK  Name = ZINC59831318
REMARK  10 active torsions:
REMARK  status: ('A' for Active; 'I' for Inactive)
REMARK    1  A    between atoms: C_1  and  C_2
REMARK    2  A    between atoms: C_3  and  C_11
REMARK    3  A    between atoms: C_4  and  C_10
REMARK    4  A    between atoms: N_5  and  C_7
REMARK    5  A    between atoms: C_7  and  C_8
REMARK    6  A    between atoms: N_12  and  N_13
REMARK    7  A    between atoms: C_16  and  S_19
REMARK    8  A    between atoms: S_19  and  C_20
REMARK    9  A    between atoms: C_20  and  C_21
REMARK   10  A    between atoms: C_21  and  C_22
REMARK                            x       y       z     vdW  Elec       q    Type
REMARK                         _______ _______ _______ _____ _____    ______ ____
ROOT
ATOM      1  N   UNL     1      -0.034   1.333  -4.151  0.00  0.00    -0.205 N 
ATOM      2  C   UNL     1      -0.053   2.685  -4.438  0.00  0.00    +0.232 A 
ATOM      3  N   UNL     1      -0.057   3.663  -3.556  0.00  0.00    -0.186 NA
ATOM      4  C   UNL     1      -0.076   4.840  -4.191  0.00  0.00    +0.210 A 
ATOM      5  N   UNL     1      -0.086   4.626  -5.485  0.00  0.00    -0.144 NA
ATOM      6  N   UNL     1      -0.067   3.235  -5.671  0.00  0.00    -0.245 N 
ATOM      7  H   UNL     1      -0.029   0.684  -4.872  0.00  0.00    +0.177 HD
ATOM      8  H   UNL     1      -0.065   2.761  -6.517  0.00  0.00    +0.192 HD
ENDROOT
BRANCH   1  10
ATOM      9  C   UNL     1      -0.004  -0.369  -2.549  0.00  0.00    +0.141 C 
ATOM     10  N   UNL     1      -0.022   0.899  -2.818  0.00  0.00    -0.187 NA
BRANCH   9  13
ATOM     11  C   UNL     1      -0.018   1.503   0.010  0.00  0.00    +0.068 C 
ATOM     12  C   UNL     1       0.002  -0.004   0.002  0.00  0.00    +0.069 A 
ATOM     13  C   UNL     1       0.008  -0.826  -1.145  0.00  0.00    +0.038 A 
ATOM     14  C   UNL     1       0.028  -2.134  -0.712  0.00  0.00    +0.045 A 
ATOM     15  N   UNL     1       0.034  -2.111   0.636  0.00  0.00    -0.264 N 
ATOM     16  N   UNL     1       0.023  -0.776   1.055  0.00  0.00    -0.175 NA
ATOM     17  C   UNL     1       0.041  -3.363  -1.584  0.00  0.00    +0.066 C 
BRANCH  15  18
ATOM     18  C   UNL     1       0.053  -3.285   1.513  0.00  0.00    +0.170 C 
BRANCH  18  19
ATOM     19  C   UNL     1       1.481  -3.668   1.808  0.00  0.00    -0.012 C 
ATOM     20  C   UNL     1       1.889  -3.772   3.048  0.00  0.00    +0.006 C 
ENDBRANCH  18  19
ENDBRANCH  15  18
ENDBRANCH   9  13
ENDBRANCH   1  10
BRANCH   4  21
ATOM     21  S   UNL     1      -0.088   6.422  -3.415  0.00  0.00    -0.084 S 
BRANCH  21  22
ATOM     22  C   UNL     1      -0.115   7.591  -4.801  0.00  0.00    +0.086 C 
BRANCH  22  23
ATOM     23  C   UNL     1      -0.127   9.023  -4.261  0.00  0.00    +0.107 C 
BRANCH  23  24
ATOM     24  C   UNL     1      -0.149   9.994  -5.413  0.00  0.00    +0.219 C 
ATOM     25  O   UNL     1      -0.154   9.582  -6.554  0.00  0.00    -0.275 OA
ATOM     26  N   UNL     1      -0.162  11.320  -5.176  0.00  0.00    -0.263 N 
ATOM     27  C   UNL     1      -0.182  12.217  -6.239  0.00  0.00    +0.187 A 
ATOM     28  N   UNL     1      -0.197  11.970  -7.534  0.00  0.00    -0.126 NA
ATOM     29  N   UNL     1      -0.215  12.900  -8.391  0.00  0.00    -0.148 NA
ATOM     30  C   UNL     1      -0.219  14.152  -7.978  0.00  0.00    +0.183 A 
ATOM     31  S   UNL     1      -0.202  13.902  -6.208  0.00  0.00    -0.039 S 
ATOM     32  H   UNL     1      -0.158  11.650  -4.264  0.00  0.00    +0.157 HD
ENDBRANCH  23  24
ENDBRANCH  22  23
ENDBRANCH  21  22
ENDBRANCH   4  21
TORSDOF 8
