REMARK  Name = ZINC17207435
REMARK  4 active torsions:
REMARK  status: ('A' for Active; 'I' for Inactive)
REMARK    1  A    between atoms: C_1  and  C_2
REMARK    2  A    between atoms: C_5  and  C_7
REMARK    3  A    between atoms: N_8  and  N_9
REMARK    4  A    between atoms: C_13  and  C_16
REMARK                            x       y       z     vdW  Elec       q    Type
REMARK                         _______ _______ _______ _____ _____    ______ ____
ROOT
ATOM      1  N   UNL     1       3.768  -4.021   0.210  0.00  0.00    -0.124 NA
ATOM      2  C   UNL     1       5.072  -3.828   0.088  0.00  0.00    +0.192 A 
ATOM      3  N   UNL     1       6.090  -4.752   0.077  0.00  0.00    -0.332 N 
ATOM      4  H   UNL     1       5.898  -5.699   0.165  0.00  0.00    +0.168 HD
ATOM      5  C   UNL     1       7.375  -4.311  -0.063  0.00  0.00    +0.056 A 
ATOM      6  C   UNL     1       7.618  -2.989  -0.185  0.00  0.00    +0.075 A 
ATOM      7  S   UNL     1       5.973  -2.299  -0.112  0.00  0.00    -0.056 S 
ENDROOT
BRANCH   5   8
ATOM      8  C   UNL     1       8.495  -5.277  -0.079  0.00  0.00    +0.017 A 
ATOM      9  C   UNL     1       9.537  -5.157   0.842  0.00  0.00    +0.013 A 
ATOM     10  C   UNL     1      10.578  -6.062   0.822  0.00  0.00    +0.021 A 
ATOM     11  C   UNL     1      10.592  -7.087  -0.109  0.00  0.00    +0.042 A 
ATOM     12  C   UNL     1       9.562  -7.212  -1.025  0.00  0.00    +0.040 A 
ATOM     13  C   UNL     1       8.511  -6.316  -1.012  0.00  0.00    +0.051 A 
ATOM     14 CL   UNL     1       7.216  -6.477  -2.157  0.00  0.00    -0.083 Cl
ATOM     15 CL   UNL     1      11.906  -8.221  -0.127  0.00  0.00    -0.083 Cl
ENDBRANCH   5   8
BRANCH   1  17
ATOM     16  C   UNL     1       1.672  -3.204   0.313  0.00  0.00    +0.181 C 
ATOM     17  N   UNL     1       2.962  -3.013   0.192  0.00  0.00    -0.152 NA
BRANCH  16  22
ATOM     18  C   UNL     1      -0.018   1.502   0.060  0.00  0.00    +0.086 C 
ATOM     19  C   UNL     1       0.008   0.000   0.183  0.00  0.00    +0.103 A 
ATOM     20  C   UNL     1      -1.070  -0.794   0.336  0.00  0.00    +0.045 A 
ATOM     21  C   UNL     1      -0.602  -2.120   0.407  0.00  0.00    +0.051 A 
ATOM     22  C   UNL     1       0.759  -2.062   0.292  0.00  0.00    +0.148 A 
ATOM     23  O   UNL     1       1.111  -0.768   0.151  0.00  0.00    -0.459 OA
ENDBRANCH  16  22
ENDBRANCH   1  17
TORSDOF 3
