REMARK  Name = ZINC20347539
REMARK  6 active torsions:
REMARK  status: ('A' for Active; 'I' for Inactive)
REMARK    1  A    between atoms: C_1  and  C_2
REMARK    2  A    between atoms: C_2  and  C_4
REMARK    3  A    between atoms: C_4  and  S_5
REMARK    4  A    between atoms: S_5  and  C_6
REMARK    5  A    between atoms: C_7  and  C_25
REMARK    6  A    between atoms: C_8  and  C_18
REMARK                            x       y       z     vdW  Elec       q    Type
REMARK                         _______ _______ _______ _____ _____    ______ ____
ROOT
ATOM      1  C   UNL     1       3.596   2.010   3.030  0.00  0.00    +0.080 C 
ATOM      2  C   UNL     1       3.341   0.815   3.628  0.00  0.00    +0.069 C 
ATOM      3  C   UNL     1       2.595  -0.269   2.906  0.00  0.00    +0.097 C 
ATOM      4  C   UNL     1       1.843   0.285   1.723  0.00  0.00    +0.024 C 
ATOM      5  C   UNL     1       2.161   1.489   1.200  0.00  0.00    +0.016 C 
ATOM      6  N   UNL     1       3.162   2.245   1.746  0.00  0.00    -0.311 N 
ATOM      7  C   UNL     1       1.426   2.033  -0.001  0.00  0.00    +0.051 C 
ATOM      8  C   UNL     1      -0.019   1.528   0.010  0.00  0.00    +0.014 C 
ATOM      9  C   UNL     1       0.002  -0.004   0.002  0.00  0.00    +0.080 C 
ATOM     10  C   UNL     1       0.805  -0.490   1.177  0.00  0.00    +0.162 C 
ATOM     11  O   UNL     1       0.551  -1.573   1.666  0.00  0.00    -0.292 OA
ATOM     12  H   UNL     1       3.621   3.046   1.149  0.00  0.00    +0.152 HD
ENDROOT
BRANCH   3  13
ATOM     13  C   UNL     1       3.575  -1.308   2.427  0.00  0.00    -0.035 A 
ATOM     14  C   UNL     1       4.562  -0.962   1.523  0.00  0.00    +0.006 A 
ATOM     15  C   UNL     1       5.465  -1.914   1.087  0.00  0.00    +0.020 A 
ATOM     16  C   UNL     1       5.373  -3.216   1.546  0.00  0.00    +0.041 A 
ATOM     17  C   UNL     1       4.381  -3.563   2.446  0.00  0.00    +0.020 A 
ATOM     18  C   UNL     1       3.483  -2.609   2.886  0.00  0.00    +0.006 A 
ATOM     19 CL   UNL     1       6.501  -4.414   0.994  0.00  0.00    -0.084 Cl
ENDBRANCH   3  13
BRANCH   2  20
ATOM     20  C   UNL     1       3.792   0.587   4.968  0.00  0.00    +0.098 C 
ATOM     21  N   UNL     1       4.150   0.407   6.031  0.00  0.00    -0.191 NA
ENDBRANCH   2  20
BRANCH   1  22
ATOM     22  S   UNL     1       4.482   3.258   3.902  0.00  0.00    -0.105 S 
BRANCH  22  23
ATOM     23  C   UNL     1       4.508   4.561   2.645  0.00  0.00    +0.105 C 
BRANCH  23  25
ATOM     24  C   UNL     1       4.570   6.660   4.195  0.00  0.00    +0.039 C 
ATOM     25  C   UNL     1       5.238   5.764   3.184  0.00  0.00    -0.070 C 
ATOM     26  C   UNL     1       6.453   6.032   2.773  0.00  0.00    +0.008 C 
ENDBRANCH  23  25
ENDBRANCH  22  23
ENDBRANCH   1  22
TORSDOF 5
