REMARK  Name = ZINC13060370
REMARK  9 active torsions:
REMARK  status: ('A' for Active; 'I' for Inactive)
REMARK    1  A    between atoms: C_1  and  C_2
REMARK    2  A    between atoms: C_3  and  C_25
REMARK    3  A    between atoms: C_4  and  C_18
REMARK    4  A    between atoms: N_9  and  C_10
REMARK    5  A    between atoms: C_13  and  C_16
REMARK    6  A    between atoms: C_25  and  O_27
REMARK    7  A    between atoms: O_27  and  C_28
REMARK    8  A    between atoms: C_28  and  C_29
REMARK    9  A    between atoms: C_28  and  C_30
REMARK                            x       y       z     vdW  Elec       q    Type
REMARK                         _______ _______ _______ _____ _____    ______ ____
ROOT
ATOM      1  C   UNL     1       1.490   6.317  -2.798  0.00  0.00    +0.062 C 
ATOM      2  C   UNL     1       2.070   5.768  -1.520  0.00  0.00    +0.029 C 
ATOM      3  C   UNL     1       2.076   4.434  -1.313  0.00  0.00    +0.078 C 
ATOM      4  C   UNL     1       2.670   3.925  -0.015  0.00  0.00    +0.144 C 
ATOM      5  N   UNL     1       3.194   4.934   0.921  0.00  0.00    -0.288 N 
ATOM      6  C   UNL     1       3.117   6.233   0.573  0.00  0.00    +0.311 C 
ATOM      7  O   UNL     1       3.547   7.074   1.339  0.00  0.00    -0.252 OA
ATOM      8  N   UNL     1       2.582   6.629  -0.589  0.00  0.00    -0.228 N 
ATOM      9  H   UNL     1       3.585   4.669   1.768  0.00  0.00    +0.151 HD
ENDROOT
BRANCH   4  10
ATOM     10  C   UNL     1       1.606   3.134   0.703  0.00  0.00    -0.021 A 
ATOM     11  C   UNL     1       1.610   1.753   0.639  0.00  0.00    +0.006 A 
ATOM     12  C   UNL     1       0.635   1.027   1.297  0.00  0.00    +0.001 A 
ATOM     13  C   UNL     1      -0.347   1.682   2.016  0.00  0.00    +0.015 A 
ATOM     14  C   UNL     1      -0.349   3.064   2.084  0.00  0.00    +0.018 A 
ATOM     15  C   UNL     1       0.627   3.790   1.425  0.00  0.00    +0.021 A 
ATOM     16 BR   UNL     1      -1.690   3.960   3.071  0.00  0.00    -0.050 Br
ENDBRANCH   4  10
BRANCH   8  17
ATOM     17  C   UNL     1       2.544   7.997  -0.866  0.00  0.00    +0.043 A 
ATOM     18  C   UNL     1       1.519   8.782  -0.348  0.00  0.00    +0.025 A 
ATOM     19  C   UNL     1       1.482  10.132  -0.613  0.00  0.00    +0.017 A 
ATOM     20  C   UNL     1       2.470  10.713  -1.414  0.00  0.00    +0.063 A 
ATOM     21  C   UNL     1       3.496   9.920  -1.937  0.00  0.00    +0.017 A 
ATOM     22  C   UNL     1       3.529   8.571  -1.663  0.00  0.00    +0.025 A 
BRANCH  20  23
ATOM     23  C   UNL     1       2.432  12.158  -1.705  0.00  0.00    +0.387 C 
ATOM     24  O   UNL     1       3.292  12.661  -2.401  0.00  0.00    -0.241 OA
ATOM     25  O   UNL     1       1.442  12.921  -1.200  0.00  0.00    -0.241 OA
ENDBRANCH  20  23
ENDBRANCH   8  17
BRANCH   3  26
ATOM     26  C   UNL     1       1.548   3.541  -2.275  0.00  0.00    +0.339 C 
ATOM     27  O   UNL     1       1.171   3.962  -3.353  0.00  0.00    -0.245 OA
BRANCH  26  28
ATOM     28  O   UNL     1       1.462   2.224  -1.998  0.00  0.00    -0.459 OA
BRANCH  28  29
ATOM     29  C   UNL     1       0.918   1.381  -3.016  0.00  0.00    +0.171 C 
ATOM     30  C   UNL     1       2.046   0.880  -3.920  0.00  0.00    +0.052 C 
ATOM     31  C   UNL     1       0.215   0.186  -2.367  0.00  0.00    +0.052 C 
ENDBRANCH  28  29
ENDBRANCH  26  28
ENDBRANCH   3  26
TORSDOF 6
