REMARK  Name = ZINC06358193
REMARK  7 active torsions:
REMARK  status: ('A' for Active; 'I' for Inactive)
REMARK    1  A    between atoms: C_1  and  C_2
REMARK    2  A    between atoms: C_2  and  C_3
REMARK    3  A    between atoms: C_3  and  O_27
REMARK    4  A    between atoms: C_6  and  C_26
REMARK    5  A    between atoms: C_18  and  C_25
REMARK    6  A    between atoms: O_27  and  C_28
REMARK    7  A    between atoms: C_28  and  C_30
REMARK                            x       y       z     vdW  Elec       q    Type
REMARK                         _______ _______ _______ _____ _____    ______ ____
ROOT
ATOM      1  C   UNL     1       6.908  -0.815   0.049  0.00  0.00    +0.114 C 
ATOM      2  C   UNL     1       6.255  -0.794  -1.331  0.00  0.00    +0.048 C 
ATOM      3  C   UNL     1       4.741  -1.012  -1.219  0.00  0.00    +0.011 C 
ATOM      4  C   UNL     1       4.157   0.085  -0.336  0.00  0.00    -0.026 C 
ATOM      5  C   UNL     1       4.753  -0.066   1.064  0.00  0.00    -0.001 C 
ATOM      6  C   UNL     1       6.254   0.178   1.013  0.00  0.00    +0.052 C 
ATOM      7  C   UNL     1       4.029   0.827   2.059  0.00  0.00    +0.004 C 
ATOM      8  C   UNL     1       2.595   0.304   2.244  0.00  0.00    +0.004 C 
ATOM      9  C   UNL     1       2.241  -0.611   1.080  0.00  0.00    -0.003 C 
ATOM     10  C   UNL     1       2.635   0.037  -0.249  0.00  0.00    -0.001 C 
ATOM     11  C   UNL     1       2.011  -0.718  -1.412  0.00  0.00    +0.005 C 
ATOM     12  C   UNL     1       0.480  -0.613  -1.397  0.00  0.00    +0.015 C 
ATOM     13  C   UNL     1      -0.033  -0.339  -0.006  0.00  0.00    +0.029 C 
ATOM     14  C   UNL     1       0.816  -1.067   1.056  0.00  0.00    +0.006 C 
ATOM     15  C   UNL     1      -0.018  -0.835   2.326  0.00  0.00    +0.012 C 
ATOM     16  C   UNL     1      -1.474  -1.000   1.807  0.00  0.00    +0.075 C 
ATOM     17  C   UNL     1      -1.406  -0.924   0.286  0.00  0.00    +0.139 C 
ATOM     18  O   UNL     1      -2.237  -1.248  -0.515  0.00  0.00    -0.297 OA
ATOM     19  C   UNL     1      -0.132   1.165   0.254  0.00  0.00    +0.019 C 
ATOM     20  C   UNL     1       4.525   1.454  -0.918  0.00  0.00    +0.012 C 
ENDROOT
BRANCH   1  22
ATOM     21  C   UNL     1       9.077  -1.490  -0.999  0.00  0.00    +0.008 C 
ATOM     22  C   UNL     1       8.392  -0.458  -0.101  0.00  0.00    +0.045 C 
ENDBRANCH   1  22
BRANCH   1  23
ATOM     23  O   UNL     1       6.807  -2.156   0.602  0.00  0.00    -0.458 OA
BRANCH  23  24
ATOM     24  C   UNL     1       7.350  -2.358   1.813  0.00  0.00    +0.304 C 
ATOM     25  O   UNL     1       7.973  -1.473   2.351  0.00  0.00    -0.251 OA
ATOM     26  C   UNL     1       7.183  -3.688   2.502  0.00  0.00    +0.136 C 
ENDBRANCH  23  24
ENDBRANCH   1  23
TORSDOF 3
