REMARK  Name = ZINC13758350
REMARK  4 active torsions:
REMARK  status: ('A' for Active; 'I' for Inactive)
REMARK    1  A    between atoms: C_1  and  C_2
REMARK    2  A    between atoms: C_7  and  C_8
REMARK    3  A    between atoms: N_16  and  C_19
REMARK    4  A    between atoms: N_26  and  C_27
REMARK                            x       y       z     vdW  Elec       q    Type
REMARK                         _______ _______ _______ _____ _____    ______ ____
ROOT
ATOM      1  C   UNL     1       0.043  -0.019   2.518  0.00  0.00    +0.157 C 
ATOM      2  C   UNL     1      -1.399   0.333   2.950  0.00  0.00    +0.145 C 
ATOM      3  C   UNL     1      -1.758  -0.790   3.961  0.00  0.00    +0.249 C 
ATOM      4  C   UNL     1      -2.893  -1.521   3.277  0.00  0.00    +0.259 C 
ATOM      5  O   UNL     1      -3.495  -2.467   3.737  0.00  0.00    -0.272 OA
ATOM      6  N   UNL     1      -3.129  -0.961   2.085  0.00  0.00    -0.208 N 
ATOM      7  C   UNL     1      -2.340   0.101   1.791  0.00  0.00    +0.235 C 
ATOM      8  O   UNL     1      -2.373   0.758   0.772  0.00  0.00    -0.274 OA
ATOM      9  O   UNL     1      -0.601  -1.645   4.018  0.00  0.00    -0.257 OA
ATOM     10  N   UNL     1       0.529  -0.858   3.641  0.00  0.00    -0.244 N 
ENDROOT
BRANCH   1  17
ATOM     11  C   UNL     1       0.066   1.371  -0.014  0.00  0.00    +0.044 C 
ATOM     12  C   UNL     1       0.050  -0.136   0.018  0.00  0.00    -0.045 A 
ATOM     13  C   UNL     1       0.052  -0.853  -1.164  0.00  0.00    +0.004 A 
ATOM     14  C   UNL     1       0.038  -2.234  -1.134  0.00  0.00    +0.000 A 
ATOM     15  C   UNL     1       0.021  -2.900   0.078  0.00  0.00    +0.000 A 
ATOM     16  C   UNL     1       0.020  -2.183   1.260  0.00  0.00    +0.006 A 
ATOM     17  C   UNL     1       0.039  -0.801   1.230  0.00  0.00    -0.019 A 
ENDBRANCH   1  17
BRANCH   6  18
ATOM     18  C   UNL     1      -4.119  -1.429   1.210  0.00  0.00    +0.044 A 
ATOM     19  C   UNL     1      -5.229  -0.644   0.931  0.00  0.00    +0.024 A 
ATOM     20  C   UNL     1      -6.203  -1.107   0.069  0.00  0.00    +0.002 A 
ATOM     21  C   UNL     1      -6.072  -2.353  -0.518  0.00  0.00    +0.000 A 
ATOM     22  C   UNL     1      -4.968  -3.137  -0.243  0.00  0.00    +0.002 A 
ATOM     23  C   UNL     1      -3.988  -2.676   0.615  0.00  0.00    +0.024 A 
ENDBRANCH   6  18
BRANCH  10  24
ATOM     24  C   UNL     1       1.804  -0.868   4.211  0.00  0.00    +0.065 A 
ATOM     25  C   UNL     1       2.788  -0.015   3.729  0.00  0.00    +0.028 A 
ATOM     26  C   UNL     1       4.048  -0.027   4.296  0.00  0.00    +0.002 A 
ATOM     27  C   UNL     1       4.329  -0.887   5.342  0.00  0.00    +0.000 A 
ATOM     28  C   UNL     1       3.351  -1.737   5.824  0.00  0.00    +0.002 A 
ATOM     29  C   UNL     1       2.088  -1.726   5.266  0.00  0.00    +0.028 A 
ENDBRANCH  10  24
TORSDOF 3
