REMARK  Name = ZINC36571485
REMARK  10 active torsions:
REMARK  status: ('A' for Active; 'I' for Inactive)
REMARK    1  A    between atoms: C_1  and  C_2
REMARK    2  A    between atoms: C_2  and  C_3
REMARK    3  A    between atoms: C_3  and  N_4
REMARK    4  A    between atoms: N_4  and  C_5
REMARK    5  A    between atoms: C_5  and  C_7
REMARK    6  A    between atoms: C_5  and  C_14
REMARK    7  A    between atoms: C_11  and  O_13
REMARK    8  A    between atoms: N_16  and  C_17
REMARK    9  A    between atoms: C_23  and  C_25
REMARK   10  A    between atoms: C_25  and  C_26
REMARK                            x       y       z     vdW  Elec       q    Type
REMARK                         _______ _______ _______ _____ _____    ______ ____
ROOT
ATOM      1  C   UNL     1      -0.161  -2.680  -1.999  0.00  0.00    +0.192 C 
ENDROOT
BRANCH   1   2
ATOM      2  C   UNL     1      -0.063  -2.446  -3.485  0.00  0.00    -0.015 A 
ATOM      3  C   UNL     1       0.078  -1.160  -3.973  0.00  0.00    +0.006 A 
ATOM      4  C   UNL     1       0.169  -0.941  -5.335  0.00  0.00    +0.004 A 
ATOM      5  C   UNL     1       0.119  -2.008  -6.212  0.00  0.00    +0.045 A 
ATOM      6  C   UNL     1      -0.022  -3.299  -5.724  0.00  0.00    +0.117 A 
ATOM      7  C   UNL     1      -0.107  -3.516  -4.356  0.00  0.00    +0.051 A 
BRANCH   6   8
ATOM      8  O   UNL     1      -0.072  -4.350  -6.585  0.00  0.00    -0.507 OA
ATOM      9  H   UNL     1       0.792  -4.733  -6.788  0.00  0.00    +0.292 HD
ENDBRANCH   6   8
ENDBRANCH   1   2
BRANCH   1  10
ATOM     10  C   UNL     1      -1.521  -2.250  -1.512  0.00  0.00    +0.238 C 
ATOM     11  O   UNL     1      -1.619  -1.358  -0.696  0.00  0.00    -0.273 OA
ATOM     12  N   UNL     1      -2.629  -2.856  -1.983  0.00  0.00    -0.311 N 
ATOM     13  H   UNL     1      -2.551  -3.570  -2.636  0.00  0.00    +0.149 HD
BRANCH  12  14
ATOM     14  C   UNL     1      -3.950  -2.438  -1.510  0.00  0.00    +0.073 C 
ATOM     15  C   UNL     1      -4.281  -3.171  -0.208  0.00  0.00    +0.022 C 
ATOM     16  C   UNL     1      -5.662  -2.734   0.287  0.00  0.00    +0.002 C 
ATOM     17  C   UNL     1      -6.713  -3.074  -0.771  0.00  0.00    +0.000 C 
ATOM     18  C   UNL     1      -6.383  -2.341  -2.073  0.00  0.00    +0.002 C 
ATOM     19  C   UNL     1      -5.002  -2.778  -2.567  0.00  0.00    +0.022 C 
ENDBRANCH  12  14
ENDBRANCH   1  10
BRANCH   1  20
ATOM     20  N   UNL     1       0.872  -1.901  -1.312  0.00  0.00    -0.286 N 
ATOM     21  C   UNL     1       2.124  -2.390  -1.204  0.00  0.00    +0.221 C 
ATOM     22  O   UNL     1       2.394  -3.474  -1.676  0.00  0.00    -0.275 OA
BRANCH  20  23
ATOM     23  C   UNL     1       0.545  -0.592  -0.743  0.00  0.00    +0.108 C 
BRANCH  23  25
ATOM     24  C   UNL     1      -0.256   0.583   1.312  0.00  0.00    +0.005 C 
ATOM     25  C   UNL     1       0.272  -0.741   0.755  0.00  0.00    +0.016 C 
ENDBRANCH  23  25
ENDBRANCH  20  23
BRANCH  21  26
ATOM     26  C   UNL     1       3.187  -1.589  -0.498  0.00  0.00    +0.132 C 
BRANCH  26  27
ATOM     27  C   UNL     1       4.486  -2.353  -0.515  0.00  0.00    -0.019 A 
ATOM     28  C   UNL     1       4.833  -3.152   0.558  0.00  0.00    +0.005 A 
ATOM     29  C   UNL     1       6.024  -3.853   0.543  0.00  0.00    +0.002 A 
ATOM     30  C   UNL     1       6.870  -3.755  -0.546  0.00  0.00    +0.021 A 
ATOM     31  C   UNL     1       6.525  -2.957  -1.621  0.00  0.00    +0.060 A 
ATOM     32  C   UNL     1       5.329  -2.259  -1.608  0.00  0.00    +0.063 A 
ATOM     33 CL   UNL     1       4.890  -1.262  -2.960  0.00  0.00    -0.082 Cl
ATOM     34 CL   UNL     1       7.587  -2.834  -2.988  0.00  0.00    -0.082 Cl
ENDBRANCH  26  27
ENDBRANCH  21  26
ENDBRANCH   1  20
TORSDOF 9
