REMARK  Name = ZINC11790159
REMARK  10 active torsions:
REMARK  status: ('A' for Active; 'I' for Inactive)
REMARK    1  A    between atoms: C_1  and  C_2
REMARK    2  A    between atoms: C_3  and  C_7
REMARK    3  A    between atoms: C_7  and  N_50
REMARK    4  A    between atoms: C_8  and  C_9
REMARK    5  A    between atoms: C_8  and  N_50
REMARK    6  A    between atoms: C_18  and  O_19
REMARK    7  A    between atoms: O_19  and  C_20
REMARK    8  A    between atoms: C_20  and  C_21
REMARK    9  A    between atoms: C_21  and  S_22
REMARK   10  A    between atoms: S_22  and  C_23
REMARK                            x       y       z     vdW  Elec       q    Type
REMARK                         _______ _______ _______ _____ _____    ______ ____
ROOT
ATOM      1  C   UNL     1       4.865   5.844  -0.013  0.00  0.00    -0.002 A 
ATOM      2  C   UNL     1       5.169   7.173  -0.009  0.00  0.00    +0.017 A 
ATOM      3  C   UNL     1       4.109   8.101   0.005  0.00  0.00    +0.001 A 
ATOM      4  C   UNL     1       4.351   9.484   0.009  0.00  0.00    +0.013 A 
ATOM      5  C   UNL     1       3.302  10.351   0.024  0.00  0.00    +0.039 A 
ATOM      6  C   UNL     1       1.987   9.883   0.034  0.00  0.00    +0.125 A 
ATOM      7  C   UNL     1       1.718   8.546   0.030  0.00  0.00    +0.066 A 
ATOM      8  C   UNL     1       2.776   7.622   0.016  0.00  0.00    +0.078 A 
ATOM      9  N   UNL     1       2.539   6.306   0.006  0.00  0.00    -0.213 NA
ATOM     10  C   UNL     1       3.526   5.435  -0.002  0.00  0.00    +0.217 A 
ATOM     11  F   UNL     1       0.966  10.768   0.049  0.00  0.00    -0.205 F 
ENDROOT
BRANCH   1  12
ATOM     12  C   UNL     1       5.967   4.817  -0.028  0.00  0.00    -0.041 C 
BRANCH  12  13
ATOM     13  N   UNL     1       6.143   4.316  -1.405  0.00  0.00    +0.386 N 
ATOM     14  H   UNL     1       5.266   3.891  -1.725  0.00  0.00    -0.085 HD
ATOM     15  H   UNL     1       6.388   5.100  -2.021  0.00  0.00    -0.085 HD
BRANCH  13  16
ATOM     16  C   UNL     1       7.218   3.308  -1.449  0.00  0.00    -0.020 C 
BRANCH  16  19
ATOM     17  C   UNL     1       9.129   4.569  -3.614  0.00  0.00    +0.071 C 
ATOM     18  C   UNL     1       8.230   3.379  -3.833  0.00  0.00    +0.103 A 
ATOM     19  C   UNL     1       7.375   2.816  -2.865  0.00  0.00    +0.090 A 
ATOM     20  N   UNL     1       6.747   1.802  -3.382  0.00  0.00    -0.056 NA
ATOM     21  O   UNL     1       7.176   1.678  -4.729  0.00  0.00    -0.242 OA
ATOM     22  N   UNL     1       8.122   2.714  -4.944  0.00  0.00    -0.054 NA
ENDBRANCH  16  19
ENDBRANCH  13  16
ENDBRANCH  12  13
ENDBRANCH   1  12
BRANCH  10  23
ATOM     23  O   UNL     1       3.239   4.110  -0.007  0.00  0.00    -0.475 OA
BRANCH  23  24
ATOM     24  C   UNL     1       1.857   3.745   0.004  0.00  0.00    +0.242 C 
BRANCH  24  25
ATOM     25  C   UNL     1       1.732   2.220  -0.003  0.00  0.00    +0.115 C 
BRANCH  25  26
ATOM     26  S   UNL     1      -0.022   1.758   0.012  0.00  0.00    -0.122 S 
BRANCH  26  27
ATOM     27  C   UNL     1       0.002  -0.004   0.002  0.00  0.00    +0.008 A 
ATOM     28  C   UNL     1       1.214  -0.684  -0.019  0.00  0.00    +0.015 A 
ATOM     29  C   UNL     1       1.229  -2.065  -0.020  0.00  0.00    +0.001 A 
ATOM     30  C   UNL     1       0.040  -2.771  -0.013  0.00  0.00    +0.000 A 
ATOM     31  C   UNL     1      -1.168  -2.098   0.002  0.00  0.00    +0.001 A 
ATOM     32  C   UNL     1      -1.191  -0.717   0.010  0.00  0.00    +0.015 A 
ENDBRANCH  26  27
ENDBRANCH  25  26
ENDBRANCH  24  25
ENDBRANCH  23  24
ENDBRANCH  10  23
TORSDOF 9
