REMARK  Name = ZINC66446680
REMARK  4 active torsions:
REMARK  status: ('A' for Active; 'I' for Inactive)
REMARK    1  A    between atoms: C_1  and  C_2
REMARK    2  A    between atoms: C_4  and  N_21
REMARK    3  A    between atoms: C_6  and  N_7
REMARK    4  A    between atoms: C_11  and  C_14
REMARK                            x       y       z     vdW  Elec       q    Type
REMARK                         _______ _______ _______ _____ _____    ______ ____
ROOT
ATOM      1  N   UNL     1       0.021  -0.026   2.400  0.00  0.00    -0.319 N 
ATOM      2  C   UNL     1      -0.153   1.426   2.566  0.00  0.00    +0.133 C 
ATOM      3  C   UNL     1       0.969   1.947   3.471  0.00  0.00    +0.179 C 
ATOM      4  O   UNL     1       1.004   1.171   4.671  0.00  0.00    -0.369 OA
ATOM      5  C   UNL     1       1.302  -0.212   4.465  0.00  0.00    +0.165 C 
ATOM      6  C   UNL     1       0.191  -0.845   3.611  0.00  0.00    +0.142 C 
ENDROOT
BRANCH   5   7
ATOM      7  C   UNL     1       1.374  -0.916   5.796  0.00  0.00    -0.017 A 
ATOM      8  C   UNL     1       0.464  -0.608   6.790  0.00  0.00    +0.009 A 
ATOM      9  C   UNL     1       0.529  -1.252   8.011  0.00  0.00    +0.039 A 
ATOM     10  C   UNL     1       1.506  -2.207   8.238  0.00  0.00    +0.123 A 
ATOM     11  C   UNL     1       2.417  -2.514   7.241  0.00  0.00    +0.039 A 
ATOM     12  C   UNL     1       2.346  -1.872   6.020  0.00  0.00    +0.009 A 
ATOM     13  F   UNL     1       1.571  -2.837   9.431  0.00  0.00    -0.205 F 
ENDBRANCH   5   7
BRANCH   1  19
ATOM     14  C   UNL     1      -2.449  -0.868   0.886  0.00  0.00    +0.046 C 
ATOM     15  C   UNL     1      -1.038  -1.019   0.377  0.00  0.00    -0.020 A 
ATOM     16  C   UNL     1      -0.794  -1.572  -0.868  0.00  0.00    +0.045 A 
ATOM     17  C   UNL     1       0.485  -1.693  -1.295  0.00  0.00    +0.165 A 
ATOM     18  S   UNL     1       1.403  -1.016   0.079  0.00  0.00    -0.050 S 
ATOM     19  C   UNL     1       0.019  -0.610   1.132  0.00  0.00    +0.073 A 
BRANCH  17  20
ATOM     20  N   UNL     1       0.993  -2.246  -2.572  0.00  0.00    +0.063 N 
ATOM     21  O   UNL     1       0.218  -2.667  -3.399  0.00  0.00    -0.126 OA
ATOM     22  O   UNL     1       2.182  -2.276  -2.788  0.00  0.00    -0.126 OA
ENDBRANCH  17  20
ENDBRANCH   1  19
TORSDOF 3
