REMARK  Name = ZINC36531044
REMARK  17 active torsions:
REMARK  status: ('A' for Active; 'I' for Inactive)
REMARK    1  A    between atoms: C_1  and  C_2
REMARK    2  A    between atoms: C_2  and  C_4
REMARK    3  A    between atoms: C_2  and  C_10
REMARK    4  A    between atoms: C_10  and  C_12
REMARK    5  A    between atoms: C_10  and  N_23
REMARK    6  A    between atoms: N_14  and  C_15
REMARK    7  A    between atoms: C_15  and  C_16
REMARK    8  A    between atoms: C_15  and  C_17
REMARK    9  A    between atoms: C_15  and  C_18
REMARK   10  A    between atoms: C_18  and  C_19
REMARK   11  A    between atoms: C_19  and  C_20
REMARK   12  A    between atoms: C_19  and  C_21
REMARK   13  A    between atoms: C_19  and  C_22
REMARK   14  A    between atoms: N_23  and  C_24
REMARK   15  A    between atoms: C_25  and  C_27
REMARK   16  A    between atoms: C_28  and  O_34
REMARK   17  A    between atoms: C_32  and  O_33
REMARK                            x       y       z     vdW  Elec       q    Type
REMARK                         _______ _______ _______ _____ _____    ______ ____
ROOT
ATOM      1  C   UNL     1      -0.149  -0.581   0.444  0.00  0.00    +0.169 C 
ENDROOT
BRANCH   1   2
ATOM      2  C   UNL     1      -0.547  -2.034   0.462  0.00  0.00    +0.235 C 
ATOM      3  O   UNL     1      -1.200  -2.495  -0.450  0.00  0.00    -0.274 OA
ATOM      4  N   UNL     1      -0.177  -2.821   1.492  0.00  0.00    -0.309 N 
ATOM      5  H   UNL     1       0.419  -2.478   2.175  0.00  0.00    +0.149 HD
BRANCH   4   6
ATOM      6  C   UNL     1      -0.676  -4.196   1.578  0.00  0.00    +0.030 C 
ATOM      7  C   UNL     1      -2.206  -4.187   1.540  0.00  0.00    +0.031 C 
ATOM      8  C   UNL     1      -0.142  -5.008   0.396  0.00  0.00    +0.031 C 
BRANCH   6   9
ATOM      9  C   UNL     1      -0.202  -4.829   2.888  0.00  0.00    +0.031 C 
BRANCH   9  10
ATOM     10  C   UNL     1      -0.873  -4.123   4.068  0.00  0.00    -0.036 C 
ATOM     11  C   UNL     1      -2.300  -4.651   4.233  0.00  0.00    +0.010 C 
ATOM     12  C   UNL     1      -0.077  -4.396   5.345  0.00  0.00    +0.010 C 
ATOM     13  C   UNL     1      -0.914  -2.616   3.804  0.00  0.00    +0.010 C 
ENDBRANCH   9  10
ENDBRANCH   6   9
ENDBRANCH   4   6
ENDBRANCH   1   2
BRANCH   1  14
ATOM     14  N   UNL     1      -1.042   0.160  -0.450  0.00  0.00    -0.288 N 
ATOM     15  C   UNL     1      -1.125  -0.202  -1.867  0.00  0.00    +0.133 C 
ATOM     16  C   UNL     1      -1.788   1.174   0.032  0.00  0.00    +0.254 C 
ATOM     17  O   UNL     1      -1.720   1.474   1.208  0.00  0.00    -0.270 OA
BRANCH  16  18
ATOM     18  C   UNL     1      -2.687   1.918  -0.867  0.00  0.00    +0.119 A 
ATOM     19  C   UNL     1      -4.014   1.501  -1.042  0.00  0.00    +0.133 A 
ATOM     20  C   UNL     1      -4.851   2.209  -1.890  0.00  0.00    +0.046 A 
ATOM     21  C   UNL     1      -4.382   3.323  -2.561  0.00  0.00    +0.007 A 
ATOM     22  C   UNL     1      -3.075   3.742  -2.396  0.00  0.00    +0.046 A 
ATOM     23  C   UNL     1      -2.223   3.053  -1.548  0.00  0.00    +0.133 A 
BRANCH  23  24
ATOM     24  O   UNL     1      -0.943   3.470  -1.383  0.00  0.00    -0.506 OA
ATOM     25  H   UNL     1      -0.318   3.081  -2.011  0.00  0.00    +0.292 HD
ENDBRANCH  23  24
BRANCH  19  26
ATOM     26  O   UNL     1      -4.477   0.408  -0.385  0.00  0.00    -0.506 OA
ATOM     27  H   UNL     1      -4.861   0.603   0.480  0.00  0.00    +0.292 HD
ENDBRANCH  19  26
ENDBRANCH  16  18
ENDBRANCH   1  14
BRANCH   1  29
ATOM     28  C   UNL     1       1.659   1.027  -0.180  0.00  0.00    +0.015 C 
ATOM     29  C   UNL     1       1.292  -0.453  -0.055  0.00  0.00    +0.045 C 
BRANCH  29  30
ATOM     30  C   UNL     1       2.224  -1.120   0.924  0.00  0.00    -0.042 A 
ATOM     31  C   UNL     1       2.333  -0.636   2.214  0.00  0.00    +0.004 A 
ATOM     32  C   UNL     1       3.188  -1.248   3.112  0.00  0.00    +0.000 A 
ATOM     33  C   UNL     1       3.932  -2.344   2.720  0.00  0.00    +0.000 A 
ATOM     34  C   UNL     1       3.822  -2.829   1.430  0.00  0.00    +0.000 A 
ATOM     35  C   UNL     1       2.964  -2.220   0.533  0.00  0.00    +0.004 A 
ENDBRANCH  29  30
ENDBRANCH   1  29
TORSDOF 10
