REMARK  Name = ZINC54886587
REMARK  3 active torsions:
REMARK  status: ('A' for Active; 'I' for Inactive)
REMARK    1  A    between atoms: C_7  and  N_27
REMARK    2  A    between atoms: C_9  and  C_11
REMARK    3  A    between atoms: C_11  and  N_12
REMARK                            x       y       z     vdW  Elec       q    Type
REMARK                         _______ _______ _______ _____ _____    ______ ____
ROOT
ATOM      1  N   UNL     1       5.372  -2.834  -1.447  0.00  0.00    -0.292 NA
ATOM      2  C   UNL     1       4.468  -3.771  -2.128  0.00  0.00    +0.104 C 
ATOM      3  C   UNL     1       4.831  -3.835  -3.615  0.00  0.00    +0.122 C 
ATOM      4  N   UNL     1       6.261  -4.154  -3.734  0.00  0.00    -0.307 N 
ATOM      5  C   UNL     1       7.221  -3.343  -2.970  0.00  0.00    +0.122 C 
ATOM      6  C   UNL     1       6.765  -3.298  -1.508  0.00  0.00    +0.104 C 
ATOM      7  C   UNL     1       6.692  -5.187  -4.541  0.00  0.00    +0.162 A 
ATOM      8  N   UNL     1       5.981  -6.000  -5.289  0.00  0.00    -0.225 NA
ATOM      9  C   UNL     1       6.542  -6.977  -6.035  0.00  0.00    +0.080 A 
ATOM     10  C   UNL     1       5.897  -7.912  -6.876  0.00  0.00    +0.029 A 
ATOM     11  C   UNL     1       6.621  -8.847  -7.570  0.00  0.00    +0.002 A 
ATOM     12  C   UNL     1       8.003  -8.910  -7.474  0.00  0.00    +0.001 A 
ATOM     13  C   UNL     1       8.667  -8.010  -6.661  0.00  0.00    +0.017 A 
ATOM     14  C   UNL     1       7.950  -7.071  -5.962  0.00  0.00    +0.041 A 
ATOM     15  S   UNL     1       8.360  -5.755  -4.841  0.00  0.00    -0.052 S 
ENDROOT
BRANCH   1  16
ATOM     16  C   UNL     1       4.952  -2.612  -0.057  0.00  0.00    +0.160 C 
BRANCH  16  25
ATOM     17  C   UNL     1      -0.016   1.360   0.009  0.00  0.00    +0.001 A 
ATOM     18  C   UNL     1       1.168   2.091   0.002  0.00  0.00    +0.002 A 
ATOM     19  C   UNL     1       2.380   1.466  -0.013  0.00  0.00    +0.028 A 
ATOM     20  C   UNL     1       2.436   0.065  -0.021  0.00  0.00    +0.076 A 
ATOM     21  C   UNL     1       1.229  -0.676  -0.013  0.00  0.00    +0.040 A 
ATOM     22  C   UNL     1       0.002  -0.004   0.002  0.00  0.00    +0.013 A 
ATOM     23  C   UNL     1       1.313  -2.090  -0.021  0.00  0.00    +0.127 A 
ATOM     24  N   UNL     1       2.518  -2.646  -0.035  0.00  0.00    -0.216 NA
ATOM     25  C   UNL     1       3.618  -1.911  -0.042  0.00  0.00    +0.146 A 
ATOM     26  N   UNL     1       3.600  -0.599  -0.035  0.00  0.00    -0.231 NA
BRANCH  23  27
ATOM     27  N   UNL     1       0.175  -2.867  -0.014  0.00  0.00    -0.343 N 
ATOM     28  H   UNL     1      -0.699  -2.447  -0.003  0.00  0.00    +0.144 HD
ATOM     29  H   UNL     1       0.248  -3.834  -0.019  0.00  0.00    +0.144 HD
ENDBRANCH  23  27
ENDBRANCH  16  25
ENDBRANCH   1  16
TORSDOF 3
