REMARK  Name = ZINC37970143
REMARK  7 active torsions:
REMARK  status: ('A' for Active; 'I' for Inactive)
REMARK    1  A    between atoms: C_1  and  O_2
REMARK    2  A    between atoms: O_2  and  C_3
REMARK    3  A    between atoms: C_5  and  C_11
REMARK    4  A    between atoms: C_8  and  O_9
REMARK    5  A    between atoms: C_11  and  C_12
REMARK    6  A    between atoms: C_11  and  N_14
REMARK    7  A    between atoms: N_14  and  C_15
REMARK                            x       y       z     vdW  Elec       q    Type
REMARK                         _______ _______ _______ _____ _____    ______ ____
ROOT
ATOM      1  C   UNL     1      -4.871   0.258   0.039  0.00  0.00    +0.188 C 
ENDROOT
BRANCH   1   4
ATOM      2  C   UNL     1      -1.201  -0.638   0.010  0.00  0.00    +0.163 A 
ATOM      3  C   UNL     1      -2.374   0.100   0.019  0.00  0.00    +0.055 A 
ATOM      4  C   UNL     1      -3.597  -0.546   0.028  0.00  0.00    -0.012 A 
ATOM      5  C   UNL     1      -3.653  -1.927   0.028  0.00  0.00    +0.025 A 
ATOM      6  C   UNL     1      -2.486  -2.669   0.018  0.00  0.00    +0.063 A 
ATOM      7  C   UNL     1      -1.257  -2.028   0.003  0.00  0.00    +0.173 A 
ATOM      8 BR   UNL     1      -2.567  -4.559   0.019  0.00  0.00    -0.046 Br
BRANCH   2  10
ATOM      9  C   UNL     1      -0.017   1.425   0.010  0.00  0.00    +0.277 C 
ATOM     10  O   UNL     1       0.002  -0.004   0.002  0.00  0.00    -0.491 OA
ENDBRANCH   2  10
BRANCH   7  11
ATOM     11  O   UNL     1      -0.108  -2.756  -0.012  0.00  0.00    -0.503 OA
ATOM     12  H   UNL     1       0.233  -2.971   0.867  0.00  0.00    +0.292 HD
ENDBRANCH   7  11
ENDBRANCH   1   4
BRANCH   1  13
ATOM     13  C   UNL     1      -5.426   0.318  -1.323  0.00  0.00    +0.086 C 
ATOM     14  N   UNL     1      -5.853   0.364  -2.375  0.00  0.00    -0.195 NA
ENDBRANCH   1  13
BRANCH   1  15
ATOM     15  N   UNL     1      -5.845  -0.379   0.936  0.00  0.00    -0.295 NA
ATOM     16  H   UNL     1      -6.312  -1.146   0.477  0.00  0.00    +0.124 HD
BRANCH  15  17
ATOM     17  C   UNL     1      -6.815   0.601   1.441  0.00  0.00    +0.055 C 
ATOM     18  C   UNL     1      -6.192   1.351   2.637  0.00  0.00    +0.019 C 
ATOM     19  C   UNL     1      -6.928   2.650   2.823  0.00  0.00    +0.002 C 
ATOM     20  C   UNL     1      -8.067   2.540   3.854  0.00  0.00    +0.000 C 
ATOM     21  C   UNL     1      -8.873   1.234   3.717  0.00  0.00    +0.000 C 
ATOM     22  C   UNL     1      -9.145   0.873   2.281  0.00  0.00    +0.002 C 
ATOM     23  C   UNL     1      -8.043  -0.093   1.801  0.00  0.00    +0.019 C 
ENDBRANCH  15  17
ENDBRANCH   1  15
TORSDOF 6
