REMARK  Name = ZINC20113777
REMARK  6 active torsions:
REMARK  status: ('A' for Active; 'I' for Inactive)
REMARK    1  A    between atoms: C_1  and  C_2
REMARK    2  A    between atoms: C_19  and  C_21
REMARK    3  A    between atoms: C_21  and  N_22
REMARK    4  A    between atoms: N_25  and  C_28
REMARK    5  A    between atoms: C_28  and  C_29
REMARK    6  A    between atoms: C_28  and  C_35
REMARK                            x       y       z     vdW  Elec       q    Type
REMARK                         _______ _______ _______ _____ _____    ______ ____
ROOT
ATOM      1  N   UNL     1      -4.009  -0.631   1.213  0.00  0.00    +0.382 N 
ATOM      2  C   UNL     1      -4.907   0.373   1.800  0.00  0.00    -0.063 C 
ATOM      3  C   UNL     1      -6.273  -0.263   2.071  0.00  0.00    +0.067 C 
ATOM      4  N   UNL     1      -6.105  -1.409   2.976  0.00  0.00    -0.295 NA
ATOM      5  C   UNL     1      -5.207  -2.413   2.389  0.00  0.00    +0.067 C 
ATOM      6  C   UNL     1      -3.842  -1.777   2.118  0.00  0.00    -0.063 C 
ATOM      7  H   UNL     1      -4.470  -0.997   0.284  0.00  0.00    -0.082 HD
ENDROOT
BRANCH   1   8
ATOM      8  C   UNL     1      -2.710  -0.039   0.868  0.00  0.00    -0.064 C 
BRANCH   8  24
ATOM      9  C   UNL     1       0.980  -4.213  -1.832  0.00  0.00    +0.012 C 
ATOM     10  C   UNL     1       0.865  -2.732  -1.462  0.00  0.00    -0.022 C 
ATOM     11  C   UNL     1       2.186  -2.032  -1.771  0.00  0.00    +0.007 C 
ATOM     12  C   UNL     1       3.330  -2.757  -1.058  0.00  0.00    +0.005 C 
ATOM     13  C   UNL     1       3.122  -2.682   0.458  0.00  0.00    +0.030 C 
ATOM     14  C   UNL     1       1.740  -3.202   0.789  0.00  0.00    -0.073 C 
ATOM     15  C   UNL     1       1.565  -4.132   1.694  0.00  0.00    +0.008 C 
ATOM     16  C   UNL     1       0.563  -2.608   0.037  0.00  0.00    +0.021 C 
ATOM     17  C   UNL     1       0.479  -1.119   0.382  0.00  0.00    +0.016 C 
ATOM     18  C   UNL     1      -0.575  -0.410  -0.425  0.00  0.00    +0.042 C 
ATOM     19  C   UNL     1      -0.449  -0.633  -1.946  0.00  0.00    +0.181 C 
ATOM     20  C   UNL     1      -0.275  -2.120  -2.260  0.00  0.00    +0.052 C 
ATOM     21  O   UNL     1      -1.814  -0.281  -2.393  0.00  0.00    -0.461 OA
ATOM     22  C   UNL     1      -2.678  -0.834  -1.510  0.00  0.00    +0.309 C 
ATOM     23  O   UNL     1      -3.805  -1.191  -1.758  0.00  0.00    -0.251 OA
ATOM     24  C   UNL     1      -1.999  -0.928  -0.153  0.00  0.00    +0.088 C 
ENDBRANCH   8  24
ENDBRANCH   1   8
BRANCH   4  25
ATOM     25  C   UNL     1      -7.404  -2.002   3.321  0.00  0.00    +0.117 C 
BRANCH  25  26
ATOM     26  C   UNL     1      -7.208  -3.068   4.368  0.00  0.00    -0.026 A 
ATOM     27  C   UNL     1      -6.307  -2.869   5.397  0.00  0.00    +0.005 A 
ATOM     28  C   UNL     1      -6.130  -3.845   6.359  0.00  0.00    +0.000 A 
ATOM     29  C   UNL     1      -6.848  -5.025   6.287  0.00  0.00    +0.000 A 
ATOM     30  C   UNL     1      -7.745  -5.226   5.255  0.00  0.00    +0.000 A 
ATOM     31  C   UNL     1      -7.925  -4.248   4.295  0.00  0.00    +0.005 A 
ENDBRANCH  25  26
BRANCH  25  32
ATOM     32  C   UNL     1      -8.318  -0.931   3.860  0.00  0.00    -0.026 A 
ATOM     33  C   UNL     1      -7.849  -0.030   4.798  0.00  0.00    +0.005 A 
ATOM     34  C   UNL     1      -8.685   0.955   5.290  0.00  0.00    +0.000 A 
ATOM     35  C   UNL     1      -9.993   1.033   4.849  0.00  0.00    +0.000 A 
ATOM     36  C   UNL     1     -10.464   0.130   3.915  0.00  0.00    +0.000 A 
ATOM     37  C   UNL     1      -9.626  -0.853   3.421  0.00  0.00    +0.005 A 
ENDBRANCH  25  32
ENDBRANCH   4  25
TORSDOF 5
