REMARK  Name = ZINC04499816
REMARK  4 active torsions:
REMARK  status: ('A' for Active; 'I' for Inactive)
REMARK    1  A    between atoms: C_1  and  C_2
REMARK    2  A    between atoms: C_7  and  S_13
REMARK    3  A    between atoms: S_13  and  C_14
REMARK    4  A    between atoms: C_14  and  C_15
REMARK                            x       y       z     vdW  Elec       q    Type
REMARK                         _______ _______ _______ _____ _____    ______ ____
ROOT
ATOM      1  S   UNL     1       5.068   4.373  -1.138  0.00  0.00    -0.076 S 
ENDROOT
BRANCH   1   8
ATOM      2  C   UNL     1       4.322  12.139  -3.232  0.00  0.00    +0.045 C 
ATOM      3  C   UNL     1       4.690  10.719  -2.887  0.00  0.00    -0.034 A 
ATOM      4  C   UNL     1       6.024  10.300  -2.986  0.00  0.00    +0.008 A 
ATOM      5  C   UNL     1       6.350   9.013  -2.672  0.00  0.00    +0.047 A 
ATOM      6  C   UNL     1       5.340   8.131  -2.255  0.00  0.00    +0.144 A 
ATOM      7  N   UNL     1       5.633   6.868  -1.943  0.00  0.00    -0.204 NA
ATOM      8  C   UNL     1       4.670   6.040  -1.548  0.00  0.00    +0.195 A 
ATOM      9  N   UNL     1       3.407   6.455  -1.466  0.00  0.00    -0.167 NA
ATOM     10  C   UNL     1       3.086   7.711  -1.766  0.00  0.00    +0.356 A 
ATOM     11  O   UNL     1       1.927   8.084  -1.682  0.00  0.00    -0.244 OA
ATOM     12  N   UNL     1       4.046   8.568  -2.167  0.00  0.00    -0.252 N 
ATOM     13  C   UNL     1       3.731   9.854  -2.483  0.00  0.00    +0.101 A 
ENDBRANCH   1   8
BRANCH   1  14
ATOM     14  C   UNL     1       3.425   3.758  -0.693  0.00  0.00    +0.173 C 
BRANCH  14  15
ATOM     15  C   UNL     1       3.522   2.308  -0.296  0.00  0.00    +0.230 C 
ATOM     16  O   UNL     1       4.607   1.773  -0.214  0.00  0.00    -0.274 OA
ATOM     17  N   UNL     1       2.403   1.605  -0.030  0.00  0.00    -0.270 N 
ATOM     18  C   UNL     1       1.093   2.271   0.005  0.00  0.00    +0.114 C 
ATOM     19  C   UNL     1       0.342   1.760   1.241  0.00  0.00    +0.024 C 
ATOM     20  C   UNL     1       0.100   0.259   1.087  0.00  0.00    +0.038 C 
ATOM     21  C   UNL     1       1.385  -0.451   0.754  0.00  0.00    -0.026 A 
ATOM     22  C   UNL     1       2.468   0.226   0.215  0.00  0.00    +0.039 A 
ATOM     23  C   UNL     1       3.639  -0.460  -0.086  0.00  0.00    +0.024 A 
ATOM     24  C   UNL     1       3.725  -1.817   0.154  0.00  0.00    +0.002 A 
ATOM     25  C   UNL     1       2.646  -2.492   0.694  0.00  0.00    +0.000 A 
ATOM     26  C   UNL     1       1.479  -1.813   0.988  0.00  0.00    +0.005 A 
ENDBRANCH  14  15
ENDBRANCH   1  14
TORSDOF 3
