REMARK  Name = ZINC39864630
REMARK  6 active torsions:
REMARK  status: ('A' for Active; 'I' for Inactive)
REMARK    1  A    between atoms: C_1  and  N_2
REMARK    2  A    between atoms: N_2  and  C_3
REMARK    3  A    between atoms: N_2  and  C_4
REMARK    4  A    between atoms: C_7  and  C_10
REMARK    5  A    between atoms: N_14  and  C_25
REMARK    6  A    between atoms: N_16  and  C_17
REMARK                            x       y       z     vdW  Elec       q    Type
REMARK                         _______ _______ _______ _____ _____    ______ ____
ROOT
ATOM      1  C   UNL     1      -4.844  -2.778  -0.130  0.00  0.00    +0.028 C 
ATOM      2  C   UNL     1      -6.031  -2.141   0.037  0.00  0.00    +0.078 C 
ATOM      3  C   UNL     1      -7.378  -2.708   0.233  0.00  0.00    +0.259 C 
ATOM      4  O   UNL     1      -7.563  -3.911   0.266  0.00  0.00    -0.269 OA
ATOM      5  N   UNL     1      -8.376  -1.851   0.372  0.00  0.00    -0.243 N 
ATOM      6  C   UNL     1      -8.147  -0.494   0.332  0.00  0.00    +0.169 C 
ATOM      7  N   UNL     1      -9.016   0.486   0.453  0.00  0.00    -0.224 NA
ATOM      8  S   UNL     1      -6.381  -0.389   0.086  0.00  0.00    -0.049 S 
ENDROOT
BRANCH   7   9
ATOM      9  C   UNL     1     -10.353   0.213   0.479  0.00  0.00    +0.088 A 
ATOM     10  C   UNL     1     -11.040   0.090   1.696  0.00  0.00    +0.049 A 
ATOM     11  C   UNL     1     -12.389  -0.186   1.675  0.00  0.00    +0.113 A 
ATOM     12  N   UNL     1     -13.035  -0.335   0.532  0.00  0.00    -0.262 NA
ATOM     13  C   UNL     1     -12.428  -0.227  -0.636  0.00  0.00    +0.132 A 
ATOM     14  C   UNL     1     -11.081   0.053  -0.710  0.00  0.00    +0.084 A 
ATOM     15 CL   UNL     1     -10.294   0.200  -2.251  0.00  0.00    -0.080 Cl
ENDBRANCH   7   9
BRANCH   1  19
ATOM     16  C   UNL     1      -1.233  -0.564  -0.120  0.00  0.00    +0.029 A 
ATOM     17  C   UNL     1      -2.374  -0.033   0.475  0.00  0.00    +0.023 A 
ATOM     18  C   UNL     1      -3.545  -0.746   0.475  0.00  0.00    +0.010 A 
ATOM     19  C   UNL     1      -3.592  -2.010  -0.127  0.00  0.00    -0.024 A 
ATOM     20  C   UNL     1      -2.442  -2.540  -0.726  0.00  0.00    +0.010 A 
ATOM     21  C   UNL     1      -1.277  -1.817  -0.725  0.00  0.00    +0.023 A 
BRANCH  16  23
ATOM     22  C   UNL     1       1.155  -0.390  -0.748  0.00  0.00    +0.129 C 
ATOM     23  N   UNL     1      -0.046   0.163  -0.117  0.00  0.00    -0.336 N 
ATOM     24  C   UNL     1       0.003   1.483   0.519  0.00  0.00    +0.129 C 
ENDBRANCH  16  23
ENDBRANCH   1  19
BRANCH   5  25
ATOM     25  C   UNL     1      -9.739  -2.351   0.569  0.00  0.00    +0.084 C 
ATOM     26  C   UNL     1      -9.826  -3.075   1.914  0.00  0.00    +0.023 C 
ATOM     27  C   UNL     1     -11.250  -3.597   2.121  0.00  0.00    +0.002 C 
ATOM     28  C   UNL     1     -11.605  -4.569   0.994  0.00  0.00    +0.000 C 
ATOM     29  C   UNL     1     -11.517  -3.845  -0.351  0.00  0.00    +0.002 C 
ATOM     30  C   UNL     1     -10.094  -3.323  -0.557  0.00  0.00    +0.023 C 
ENDBRANCH   5  25
TORSDOF 4
