REMARK  Name = ZINC39853447
REMARK  8 active torsions:
REMARK  status: ('A' for Active; 'I' for Inactive)
REMARK    1  A    between atoms: C_1  and  C_2
REMARK    2  A    between atoms: N_4  and  C_5
REMARK    3  A    between atoms: C_6  and  C_14
REMARK    4  A    between atoms: C_14  and  C_16
REMARK    5  A    between atoms: C_14  and  N_23
REMARK    6  A    between atoms: N_26  and  C_29
REMARK    7  A    between atoms: C_29  and  C_30
REMARK    8  A    between atoms: C_30  and  O_31
REMARK                            x       y       z     vdW  Elec       q    Type
REMARK                         _______ _______ _______ _____ _____    ______ ____
ROOT
ATOM      1  C   UNL     1      -0.203  -2.378  -3.631  0.00  0.00    -0.004 C 
ENDROOT
BRANCH   1   3
ATOM      2  C   UNL     1      -0.145  -2.515  -1.151  0.00  0.00    +0.074 A 
ATOM      3  C   UNL     1      -0.176  -3.164  -2.345  0.00  0.00    -0.025 A 
ATOM      4  C   UNL     1      -0.183  -4.559  -2.378  0.00  0.00    -0.033 A 
ATOM      5  C   UNL     1      -0.159  -5.196  -1.177  0.00  0.00    -0.005 A 
ATOM      6  S   UNL     1      -0.118  -3.876   0.005  0.00  0.00    -0.078 S 
ATOM      7  C   UNL     1      -0.162  -6.670  -0.927  0.00  0.00    +0.043 C 
ATOM      8  C   UNL     1      -0.567  -7.379  -2.228  0.00  0.00    +0.005 C 
ATOM      9  C   UNL     1       0.248  -6.790  -3.383  0.00  0.00    +0.005 C 
ATOM     10  C   UNL     1      -0.216  -5.362  -3.675  0.00  0.00    +0.036 C 
BRANCH   2  14
ATOM     11  C   UNL     1       0.053   0.790   0.639  0.00  0.00    +0.109 C 
ATOM     12  C   UNL     1       0.039  -0.692   0.363  0.00  0.00    +0.214 C 
ATOM     13  O   UNL     1       0.182  -1.479   1.274  0.00  0.00    -0.276 OA
ATOM     14  N   UNL     1      -0.132  -1.141  -0.896  0.00  0.00    -0.280 N 
ATOM     15  H   UNL     1      -0.247  -0.511  -1.624  0.00  0.00    +0.155 HD
ENDBRANCH   2  14
ENDBRANCH   1   3
BRANCH   1  16
ATOM     16  C   UNL     1      -1.548  -1.717  -3.788  0.00  0.00    -0.057 A 
ATOM     17  C   UNL     1      -1.720  -0.401  -3.401  0.00  0.00    +0.004 A 
ATOM     18  C   UNL     1      -2.953   0.207  -3.545  0.00  0.00    +0.020 A 
ATOM     19  C   UNL     1      -4.016  -0.503  -4.075  0.00  0.00    +0.041 A 
ATOM     20  C   UNL     1      -3.843  -1.820  -4.462  0.00  0.00    +0.020 A 
ATOM     21  C   UNL     1      -2.608  -2.425  -4.323  0.00  0.00    +0.004 A 
ATOM     22 CL   UNL     1      -5.565   0.259  -4.255  0.00  0.00    -0.084 Cl
ENDBRANCH   1  16
BRANCH   1  23
ATOM     23  N   UNL     1       0.847  -1.352  -3.600  0.00  0.00    +0.389 N 
ATOM     24  C   UNL     1       0.904  -0.670  -4.900  0.00  0.00    -0.062 C 
ATOM     25  C   UNL     1       1.985   0.412  -4.862  0.00  0.00    +0.066 C 
ATOM     26  N   UNL     1       3.283  -0.206  -4.556  0.00  0.00    -0.304 NA
ATOM     27  C   UNL     1       3.234  -0.914  -3.269  0.00  0.00    +0.066 C 
ATOM     28  C   UNL     1       2.143  -1.985  -3.320  0.00  0.00    -0.062 C 
ATOM     29  H   UNL     1       0.639  -0.679  -2.877  0.00  0.00    -0.080 HD
BRANCH  26  30
ATOM     30  C   UNL     1       4.359   0.794  -4.566  0.00  0.00    +0.112 C 
BRANCH  30  31
ATOM     31  C   UNL     1       5.713   0.087  -4.494  0.00  0.00    +0.171 C 
BRANCH  31  32
ATOM     32  O   UNL     1       5.909  -0.690  -5.677  0.00  0.00    -0.394 OA
ATOM     33  H   UNL     1       6.750  -1.167  -5.699  0.00  0.00    +0.209 HD
ENDBRANCH  31  32
ENDBRANCH  30  31
ENDBRANCH  26  30
ENDBRANCH   1  23
TORSDOF 7
