REMARK  Name = ZINC01181453
REMARK  4 active torsions:
REMARK  status: ('A' for Active; 'I' for Inactive)
REMARK    1  A    between atoms: C_3  and  C_9
REMARK    2  A    between atoms: C_10  and  C_11
REMARK    3  A    between atoms: N_13  and  C_14
REMARK    4  A    between atoms: C_14  and  N_16
REMARK                            x       y       z     vdW  Elec       q    Type
REMARK                         _______ _______ _______ _____ _____    ______ ____
ROOT
ATOM      1  C   UNL     1       1.147   1.655   0.012  0.00  0.00    +0.242 C 
ATOM      2  O   UNL     1       1.131   2.871   0.018  0.00  0.00    -0.270 OA
ATOM      3  N   UNL     1      -0.011   0.965   0.016  0.00  0.00    -0.264 N 
ATOM      4  H   UNL     1       0.002  -0.005   0.011  0.00  0.00    +0.157 HD
ENDROOT
BRANCH   1   6
ATOM      5  C   UNL     1       3.583   1.631  -0.002  0.00  0.00    +0.014 C 
ATOM      6  C   UNL     1       2.423   0.940   0.001  0.00  0.00    +0.068 C 
BRANCH   5   9
ATOM      7  C   UNL     1       6.095  -1.153  -0.029  0.00  0.00    +0.020 A 
ATOM      8  C   UNL     1       4.889  -0.486  -0.014  0.00  0.00    +0.011 A 
ATOM      9  C   UNL     1       4.866   0.912  -0.013  0.00  0.00    -0.006 A 
ATOM     10  C   UNL     1       6.072   1.625  -0.017  0.00  0.00    +0.049 A 
ATOM     11  C   UNL     1       7.271   0.944  -0.027  0.00  0.00    +0.040 A 
ATOM     12  C   UNL     1       7.284  -0.441  -0.033  0.00  0.00    +0.042 A 
ATOM     13 CL   UNL     1       8.798  -1.290  -0.045  0.00  0.00    -0.083 Cl
ATOM     14 CL   UNL     1       6.056   3.361  -0.008  0.00  0.00    -0.083 Cl
ENDBRANCH   5   9
ENDBRANCH   1   6
BRANCH   3  15
ATOM     15  C   UNL     1      -1.187   1.623   0.020  0.00  0.00    +0.142 C 
ATOM     16  S   UNL     1      -1.210   3.335   0.029  0.00  0.00    -0.018 S 
BRANCH  15  17
ATOM     17  N   UNL     1      -2.345   0.934   0.018  0.00  0.00    -0.282 N 
ATOM     18  C   UNL     1      -3.559   1.610   0.133  0.00  0.00    +0.124 A 
ATOM     19  C   UNL     1      -4.742   0.887   0.239  0.00  0.00    +0.045 A 
ATOM     20  C   UNL     1      -5.939   1.570   0.358  0.00  0.00    +0.025 A 
ATOM     21  C   UNL     1      -5.913   2.959   0.355  0.00  0.00    +0.059 A 
ATOM     22  C   UNL     1      -4.701   3.612   0.241  0.00  0.00    +0.132 A 
ATOM     23  N   UNL     1      -3.574   2.933   0.134  0.00  0.00    -0.239 NA
ATOM     24 CL   UNL     1      -7.387   3.865   0.495  0.00  0.00    -0.082 Cl
ATOM     25  H   UNL     1      -2.334  -0.032  -0.063  0.00  0.00    +0.155 HD
ENDBRANCH  15  17
ENDBRANCH   3  15
TORSDOF 4
