REMARK  Name = ZINC11652448
REMARK  10 active torsions:
REMARK  status: ('A' for Active; 'I' for Inactive)
REMARK    1  A    between atoms: C_1  and  C_2
REMARK    2  A    between atoms: C_2  and  C_3
REMARK    3  A    between atoms: C_2  and  C_4
REMARK    4  A    between atoms: C_4  and  C_6
REMARK    5  A    between atoms: C_4  and  N_22
REMARK    6  A    between atoms: N_8  and  C_9
REMARK    7  A    between atoms: C_9  and  C_10
REMARK    8  A    between atoms: C_10  and  C_12
REMARK    9  A    between atoms: C_10  and  N_60
REMARK   10  A    between atoms: C_23  and  C_25
REMARK                            x       y       z     vdW  Elec       q    Type
REMARK                         _______ _______ _______ _____ _____    ______ ____
ROOT
ATOM      1  C   UNL     1      -3.263   0.158   1.518  0.00  0.00    +0.234 C 
ATOM      2  O   UNL     1      -3.572  -0.865   0.945  0.00  0.00    -0.274 OA
ATOM      3  N   UNL     1      -2.271   0.930   1.032  0.00  0.00    -0.315 N 
ATOM      4  H   UNL     1      -2.074   1.785   1.446  0.00  0.00    +0.149 HD
ENDROOT
BRANCH   1   5
ATOM      5  C   UNL     1      -3.990   0.567   2.773  0.00  0.00    +0.162 C 
BRANCH   5   6
ATOM      6  N   UNL     1      -5.260  -0.158   2.860  0.00  0.00    -0.300 N 
ATOM      7  C   UNL     1      -6.285   0.361   3.565  0.00  0.00    +0.246 C 
ATOM      8  O   UNL     1      -6.155   1.431   4.129  0.00  0.00    -0.270 OA
ATOM      9  H   UNL     1      -5.363  -1.011   2.411  0.00  0.00    +0.150 HD
BRANCH   7  10
ATOM     10  C   UNL     1      -7.565  -0.369   3.653  0.00  0.00    +0.055 A 
ATOM     11  C   UNL     1      -7.717  -1.598   3.007  0.00  0.00    +0.016 A 
ATOM     12  C   UNL     1      -8.915  -2.276   3.093  0.00  0.00    +0.021 A 
ATOM     13  C   UNL     1      -9.967  -1.740   3.818  0.00  0.00    +0.042 A 
ATOM     14  C   UNL     1      -9.825  -0.523   4.460  0.00  0.00    +0.040 A 
ATOM     15  C   UNL     1      -8.628   0.163   4.388  0.00  0.00    +0.054 A 
ATOM     16 CL   UNL     1      -8.447   1.686   5.201  0.00  0.00    -0.083 Cl
ATOM     17 CL   UNL     1     -11.472  -2.600   3.920  0.00  0.00    -0.083 Cl
ENDBRANCH   7  10
ENDBRANCH   5   6
BRANCH   5  19
ATOM     18  C   UNL     1      -3.821   0.737   5.260  0.00  0.00    +0.009 C 
ATOM     19  C   UNL     1      -3.128   0.234   3.993  0.00  0.00    +0.012 C 
ATOM     20  C   UNL     1      -2.936  -1.281   4.083  0.00  0.00    +0.009 C 
ENDBRANCH   5  19
ENDBRANCH   1   5
BRANCH   3  21
ATOM     21  C   UNL     1      -1.489   0.478  -0.122  0.00  0.00    +0.093 C 
BRANCH  21  22
ATOM     22  C   UNL     1      -0.353   1.468  -0.388  0.00  0.00    -0.020 C 
BRANCH  22  23
ATOM     23  C   UNL     1       0.597   1.469   0.782  0.00  0.00    -0.059 A 
ATOM     24  C   UNL     1       1.540   0.466   0.908  0.00  0.00    +0.002 A 
ATOM     25  C   UNL     1       2.414   0.469   1.978  0.00  0.00    +0.000 A 
ATOM     26  C   UNL     1       2.339   1.471   2.928  0.00  0.00    +0.000 A 
ATOM     27  C   UNL     1       1.393   2.471   2.805  0.00  0.00    +0.000 A 
ATOM     28  C   UNL     1       0.521   2.470   1.732  0.00  0.00    +0.002 A 
ENDBRANCH  22  23
BRANCH  22  33
ATOM     29  C   UNL     1      -0.543   1.034  -2.776  0.00  0.00    -0.078 C 
ATOM     30  C   UNL     1       0.425   1.130  -3.982  0.00  0.00    -0.020 C 
ATOM     31  C   UNL     1       1.508   2.111  -3.478  0.00  0.00    -0.020 C 
ATOM     32  C   UNL     1       1.421   2.053  -1.942  0.00  0.00    -0.078 C 
ATOM     33  N   UNL     1       0.378   1.074  -1.630  0.00  0.00    +0.385 N 
ATOM     34  H   UNL     1       0.801   0.149  -1.492  0.00  0.00    -0.081 HD
ENDBRANCH  22  33
ENDBRANCH  21  22
ENDBRANCH   3  21
TORSDOF 8
