REMARK  Name = ZINC64097945
REMARK  5 active torsions:
REMARK  status: ('A' for Active; 'I' for Inactive)
REMARK    1  A    between atoms: C_3  and  C_6
REMARK    2  A    between atoms: C_11  and  S_15
REMARK    3  A    between atoms: C_12  and  C_13
REMARK    4  A    between atoms: S_15  and  C_16
REMARK    5  A    between atoms: C_16  and  C_17
REMARK                            x       y       z     vdW  Elec       q    Type
REMARK                         _______ _______ _______ _____ _____    ______ ____
ROOT
ATOM      1  C   UNL     1       3.761   1.845  -0.024  0.00  0.00    +0.058 C 
ATOM      2  C   UNL     1       4.507   1.324   1.209  0.00  0.00    +0.108 C 
ATOM      3  C   UNL     1       5.955   1.724   1.111  0.00  0.00    +0.237 C 
ATOM      4  N   UNL     1       6.549   1.895  -0.066  0.00  0.00    -0.177 NA
ATOM      5  C   UNL     1       5.932   1.736  -1.209  0.00  0.00    +0.085 C 
ATOM      6  C   UNL     1       4.482   1.336  -1.277  0.00  0.00    +0.152 C 
ATOM      7  O   UNL     1       6.595   1.895   2.130  0.00  0.00    -0.274 OA
ENDROOT
BRANCH   1  10
ATOM      8  C   UNL     1      -0.016   1.351   0.009  0.00  0.00    +0.008 A 
ATOM      9  C   UNL     1       1.183   2.038   0.002  0.00  0.00    +0.011 A 
ATOM     10  C   UNL     1       2.343   1.336  -0.013  0.00  0.00    -0.005 A 
ATOM     11  S   UNL     1       1.754  -0.349  -0.017  0.00  0.00    -0.101 S 
ATOM     12  C   UNL     1       0.002  -0.004   0.002  0.00  0.00    +0.045 A 
ENDBRANCH   1  10
BRANCH   6  13
ATOM     13  C   UNL     1       4.380  -0.131  -1.342  0.00  0.00    +0.073 C 
ATOM     14  N   UNL     1       4.302  -1.263  -1.392  0.00  0.00    -0.196 NA
ENDBRANCH   6  13
BRANCH   5  15
ATOM     15  S   UNL     1       6.770   1.983  -2.620  0.00  0.00    -0.107 S 
BRANCH  15  16
ATOM     16  C   UNL     1       8.437   2.439  -2.068  0.00  0.00    +0.110 C 
BRANCH  16  17
ATOM     17  C   UNL     1       9.312   2.694  -3.268  0.00  0.00    -0.037 A 
ATOM     18  C   UNL     1      10.028   1.655  -3.834  0.00  0.00    +0.006 A 
ATOM     19  C   UNL     1      10.831   1.889  -4.934  0.00  0.00    +0.020 A 
ATOM     20  C   UNL     1      10.918   3.162  -5.470  0.00  0.00    +0.041 A 
ATOM     21  C   UNL     1      10.200   4.200  -4.903  0.00  0.00    +0.020 A 
ATOM     22  C   UNL     1       9.394   3.965  -3.806  0.00  0.00    +0.006 A 
ATOM     23 CL   UNL     1      11.926   3.455  -6.852  0.00  0.00    -0.084 Cl
ENDBRANCH  16  17
ENDBRANCH  15  16
ENDBRANCH   5  15
TORSDOF 5
