REMARK  Name = ZINC40036225
REMARK  11 active torsions:
REMARK  status: ('A' for Active; 'I' for Inactive)
REMARK    1  A    between atoms: C_1  and  C_2
REMARK    2  A    between atoms: C_2  and  C_3
REMARK    3  A    between atoms: C_3  and  C_4
REMARK    4  A    between atoms: C_4  and  C_38
REMARK    5  A    between atoms: N_16  and  C_32
REMARK    6  A    between atoms: N_19  and  N_20
REMARK    7  A    between atoms: C_21  and  C_22
REMARK    8  A    between atoms: C_25  and  O_30
REMARK    9  A    between atoms: C_26  and  O_28
REMARK   10  A    between atoms: O_28  and  C_29
REMARK   11  A    between atoms: O_30  and  C_31
REMARK                            x       y       z     vdW  Elec       q    Type
REMARK                         _______ _______ _______ _____ _____    ______ ____
ROOT
ATOM      1  C   UNL     1       1.192  -2.683   1.509  0.00  0.00    +0.004 C 
ATOM      2  C   UNL     1       2.221  -3.314   2.444  0.00  0.00    +0.047 C 
ATOM      3  C   UNL     1       3.575  -2.689   2.239  0.00  0.00    -0.037 A 
ATOM      4  C   UNL     1       4.428  -2.504   3.307  0.00  0.00    +0.004 A 
ATOM      5  C   UNL     1       5.672  -1.933   3.110  0.00  0.00    +0.000 A 
ATOM      6  C   UNL     1       6.072  -1.544   1.843  0.00  0.00    +0.001 A 
ATOM      7  C   UNL     1       5.227  -1.723   0.766  0.00  0.00    +0.010 A 
ATOM      8  C   UNL     1       3.973  -2.296   0.961  0.00  0.00    +0.004 A 
ATOM      9  C   UNL     1       3.042  -2.491  -0.173  0.00  0.00    +0.084 A 
ATOM     10  C   UNL     1       1.694  -2.684   0.092  0.00  0.00    +0.050 A 
ATOM     11  C   UNL     1       0.815  -2.877  -0.981  0.00  0.00    +0.264 A 
ATOM     12  O   UNL     1      -0.377  -3.052  -0.787  0.00  0.00    -0.267 OA
ATOM     13  N   UNL     1       1.315  -2.867  -2.236  0.00  0.00    -0.248 N 
ATOM     14  C   UNL     1       2.648  -2.667  -2.442  0.00  0.00    +0.223 A 
ATOM     15  N   UNL     1       3.480  -2.486  -1.437  0.00  0.00    -0.214 NA
ATOM     16  N   UNL     1       3.134  -2.655  -3.724  0.00  0.00    -0.206 N 
ATOM     17  C   UNL     1      -0.111  -3.481   1.583  0.00  0.00    +0.017 C 
ATOM     18  H   UNL     1       2.522  -2.713  -4.475  0.00  0.00    +0.177 HD
ENDROOT
BRANCH  13  19
ATOM     19  C   UNL     1       0.461  -3.061  -3.329  0.00  0.00    +0.053 A 
ATOM     20  C   UNL     1       0.266  -4.336  -3.841  0.00  0.00    +0.026 A 
ATOM     21  C   UNL     1      -0.577  -4.525  -4.919  0.00  0.00    +0.002 A 
ATOM     22  C   UNL     1      -1.227  -3.444  -5.487  0.00  0.00    +0.000 A 
ATOM     23  C   UNL     1      -1.035  -2.173  -4.979  0.00  0.00    +0.002 A 
ATOM     24  C   UNL     1      -0.198  -1.979  -3.898  0.00  0.00    +0.026 A 
ENDBRANCH  13  19
BRANCH  16  25
ATOM     25  N   UNL     1       4.513  -2.558  -3.950  0.00  0.00    -0.188 NA
ATOM     26  C   UNL     1       4.973  -2.547  -5.164  0.00  0.00    +0.138 C 
BRANCH  26  27
ATOM     27  C   UNL     1       6.424  -2.445  -5.401  0.00  0.00    -0.002 A 
ATOM     28  C   UNL     1       7.307  -2.367  -4.321  0.00  0.00    +0.013 A 
ATOM     29  C   UNL     1       8.664  -2.272  -4.546  0.00  0.00    +0.050 A 
ATOM     30  C   UNL     1       9.156  -2.254  -5.843  0.00  0.00    +0.162 A 
ATOM     31  C   UNL     1       8.282  -2.331  -6.924  0.00  0.00    +0.162 A 
ATOM     32  C   UNL     1       6.921  -2.433  -6.707  0.00  0.00    +0.059 A 
BRANCH  31  33
ATOM     33  O   UNL     1       8.769  -2.313  -8.194  0.00  0.00    -0.491 OA
ATOM     34  C   UNL     1       7.815  -2.396  -9.255  0.00  0.00    +0.277 C 
ENDBRANCH  31  33
BRANCH  30  35
ATOM     35  O   UNL     1      10.495  -2.160  -6.058  0.00  0.00    -0.491 OA
ATOM     36  C   UNL     1      11.335  -2.083  -4.904  0.00  0.00    +0.277 C 
ENDBRANCH  30  35
ENDBRANCH  26  27
ENDBRANCH  16  25
BRANCH   1  37
ATOM     37  C   UNL     1       0.927  -1.242   1.949  0.00  0.00    +0.011 C 
BRANCH  37  39
ATOM     38  C   UNL     1      -0.390   0.827   1.473  0.00  0.00    +0.004 C 
ATOM     39  C   UNL     1      -0.124  -0.614   1.032  0.00  0.00    -0.003 C 
ENDBRANCH  37  39
ENDBRANCH   1  37
TORSDOF 7
