REMARK  Name = ZINC09459318
REMARK  5 active torsions:
REMARK  status: ('A' for Active; 'I' for Inactive)
REMARK    1  A    between atoms: C_4  and  C_7
REMARK    2  A    between atoms: C_7  and  C_8
REMARK    3  A    between atoms: C_9  and  C_26
REMARK    4  A    between atoms: C_9  and  C_30
REMARK    5  A    between atoms: N_17  and  C_20
REMARK                            x       y       z     vdW  Elec       q    Type
REMARK                         _______ _______ _______ _____ _____    ______ ____
ROOT
ATOM      1  C   UNL     1       1.074   5.651   1.236  0.00  0.00    +0.079 C 
ATOM      2  C   UNL     1       2.208   3.538   0.978  0.00  0.00    +0.264 C 
ATOM      3  C   UNL     1       0.954   3.076   0.293  0.00  0.00    +0.098 A 
ATOM      4  C   UNL     1       0.915   1.833  -0.360  0.00  0.00    +0.262 A 
ATOM      5  O   UNL     1       1.903   1.119  -0.382  0.00  0.00    -0.267 OA
ATOM      6  N   UNL     1      -0.224   1.435  -0.962  0.00  0.00    -0.274 N 
ATOM      7  H   UNL     1      -0.256   0.550  -1.425  0.00  0.00    +0.173 HD
ATOM      8  C   UNL     1      -1.318   2.218  -0.945  0.00  0.00    +0.335 A 
ATOM      9  O   UNL     1      -2.334   1.840  -1.497  0.00  0.00    -0.246 OA
ATOM     10  N   UNL     1      -1.307   3.412  -0.323  0.00  0.00    -0.250 N 
ATOM     11  C   UNL     1      -0.165   3.856   0.299  0.00  0.00    +0.124 A 
ATOM     12  N   UNL     1      -0.136   5.079   0.927  0.00  0.00    -0.290 N 
ATOM     13  H   UNL     1      -0.963   5.534   1.151  0.00  0.00    +0.155 HD
ATOM     14  N   UNL     1       2.236   5.012   1.283  0.00  0.00    -0.352 N 
ATOM     15  H   UNL     1       3.110   5.499   1.516  0.00  0.00    +0.162 HD
ENDROOT
BRANCH  10  16
ATOM     16  C   UNL     1      -2.461   4.207  -0.313  0.00  0.00    +0.053 A 
ATOM     17  C   UNL     1      -3.398   4.061   0.701  0.00  0.00    +0.026 A 
ATOM     18  C   UNL     1      -4.533   4.849   0.710  0.00  0.00    +0.002 A 
ATOM     19  C   UNL     1      -4.741   5.775  -0.296  0.00  0.00    +0.000 A 
ATOM     20  C   UNL     1      -3.812   5.919  -1.310  0.00  0.00    +0.002 A 
ATOM     21  C   UNL     1      -2.673   5.138  -1.321  0.00  0.00    +0.026 A 
ENDBRANCH  10  16
BRANCH   2  22
ATOM     22  C   UNL     1       2.373   2.771   2.292  0.00  0.00    +0.426 C 
ATOM     23  F   UNL     1       2.461   1.401   2.024  0.00  0.00    -0.167 F 
ATOM     24  F   UNL     1       3.541   3.195   2.936  0.00  0.00    -0.167 F 
ATOM     25  F   UNL     1       1.270   3.016   3.117  0.00  0.00    -0.167 F 
ENDBRANCH   2  22
BRANCH   2  26
ATOM     26  C   UNL     1       3.409   3.247   0.075  0.00  0.00    +0.426 C 
ATOM     27  F   UNL     1       3.108   3.627  -1.237  0.00  0.00    -0.167 F 
ATOM     28  F   UNL     1       4.518   3.970   0.527  0.00  0.00    -0.167 F 
ATOM     29  F   UNL     1       3.698   1.879   0.109  0.00  0.00    -0.167 F 
ENDBRANCH   2  26
BRANCH   1  30
ATOM     30  C   UNL     1       1.128   7.123   1.553  0.00  0.00    +0.104 C 
BRANCH  30  34
ATOM     31  C   UNL     1       5.158   8.246   2.417  0.00  0.00    +0.000 A 
ATOM     32  C   UNL     1       4.687   8.307   1.119  0.00  0.00    +0.000 A 
ATOM     33  C   UNL     1       3.383   7.944   0.839  0.00  0.00    +0.004 A 
ATOM     34  C   UNL     1       2.550   7.519   1.858  0.00  0.00    -0.040 A 
ATOM     35  C   UNL     1       3.020   7.464   3.157  0.00  0.00    +0.004 A 
ATOM     36  C   UNL     1       4.325   7.822   3.435  0.00  0.00    +0.000 A 
ENDBRANCH  30  34
ENDBRANCH   1  30
TORSDOF 5
