REMARK  Name = ZINC39710696
REMARK  12 active torsions:
REMARK  status: ('A' for Active; 'I' for Inactive)
REMARK    1  A    between atoms: C_1  and  C_2
REMARK    2  A    between atoms: C_7  and  C_14
REMARK    3  A    between atoms: C_14  and  C_16
REMARK    4  A    between atoms: C_14  and  N_26
REMARK    5  A    between atoms: N_21  and  C_22
REMARK    6  A    between atoms: C_22  and  C_23
REMARK    7  A    between atoms: C_22  and  C_24
REMARK    8  A    between atoms: C_22  and  C_25
REMARK    9  A    between atoms: N_26  and  C_27
REMARK   10  A    between atoms: N_26  and  C_34
REMARK   11  A    between atoms: C_27  and  C_28
REMARK   12  A    between atoms: C_34  and  C_35
REMARK                            x       y       z     vdW  Elec       q    Type
REMARK                         _______ _______ _______ _____ _____    ______ ____
ROOT
ATOM      1  C   UNL     1       1.332  -5.738   1.782  0.00  0.00    -0.009 C 
ENDROOT
BRANCH   1   8
ATOM      2  C   UNL     1       4.503  -5.890   8.574  0.00  0.00    +0.044 C 
ATOM      3  C   UNL     1       3.553  -5.880   7.404  0.00  0.00    -0.049 A 
ATOM      4  C   UNL     1       2.402  -5.095   7.483  0.00  0.00    +0.004 A 
ATOM      5  C   UNL     1       1.509  -5.045   6.461  0.00  0.00    +0.010 A 
ATOM      6  C   UNL     1       1.770  -5.834   5.257  0.00  0.00    -0.007 A 
ATOM      7  C   UNL     1       0.902  -5.814   4.206  0.00  0.00    -0.006 C 
ATOM      8  C   UNL     1       1.252  -6.663   2.999  0.00  0.00    +0.088 C 
ATOM      9  C   UNL     1       2.535  -7.461   3.059  0.00  0.00    +0.223 C 
ATOM     10  O   UNL     1       2.865  -8.158   2.118  0.00  0.00    -0.275 OA
ATOM     11  N   UNL     1       3.297  -7.397   4.138  0.00  0.00    -0.285 N 
ATOM     12  C   UNL     1       2.993  -6.653   5.201  0.00  0.00    +0.041 A 
ATOM     13  C   UNL     1       3.855  -6.631   6.313  0.00  0.00    +0.027 A 
ATOM     14  H   UNL     1       4.116  -7.917   4.156  0.00  0.00    +0.155 HD
ENDBRANCH   1   8
BRANCH   1  15
ATOM     15  C   UNL     1       1.134  -6.557   0.505  0.00  0.00    +0.205 C 
ATOM     16  N   UNL     1       2.409  -7.146   0.072  0.00  0.00    -0.152 NA
ATOM     17  N   UNL     1       2.689  -6.712  -1.047  0.00  0.00    -0.070 NA
ATOM     18  N   UNL     1       1.735  -5.821  -1.538  0.00  0.00    -0.179 N 
ATOM     19  N   UNL     1       0.730  -5.679  -0.613  0.00  0.00    -0.183 NA
ATOM     20  H   UNL     1       1.774  -5.372  -2.397  0.00  0.00    +0.191 HD
BRANCH  19  21
ATOM     21  C   UNL     1      -0.564  -6.098  -1.169  0.00  0.00    +0.035 C 
ATOM     22  C   UNL     1      -1.645  -5.976  -0.094  0.00  0.00    +0.029 C 
ATOM     23  C   UNL     1      -0.922  -5.202  -2.357  0.00  0.00    +0.029 C 
ATOM     24  C   UNL     1      -0.471  -7.551  -1.637  0.00  0.00    +0.029 C 
ENDBRANCH  19  21
ENDBRANCH   1  15
BRANCH   1  25
ATOM     25  N   UNL     1       2.648  -5.087   1.748  0.00  0.00    +0.390 N 
ATOM     26  H   UNL     1       3.353  -5.765   1.498  0.00  0.00    -0.080 HD
BRANCH  25  27
ATOM     27  C   UNL     1       2.954  -4.530   3.072  0.00  0.00    -0.042 C 
BRANCH  27  28
ATOM     28  C   UNL     1       4.404  -4.123   3.124  0.00  0.00    -0.064 A 
ATOM     29  C   UNL     1       5.377  -5.066   3.400  0.00  0.00    +0.002 A 
ATOM     30  C   UNL     1       6.707  -4.694   3.447  0.00  0.00    +0.000 A 
ATOM     31  C   UNL     1       7.065  -3.378   3.218  0.00  0.00    +0.000 A 
ATOM     32  C   UNL     1       6.093  -2.436   2.941  0.00  0.00    +0.000 A 
ATOM     33  C   UNL     1       4.763  -2.809   2.890  0.00  0.00    +0.002 A 
ENDBRANCH  27  28
ENDBRANCH  25  27
BRANCH  25  34
ATOM     34  C   UNL     1       2.634  -4.006   0.753  0.00  0.00    -0.035 C 
BRANCH  34  35
ATOM     35  C   UNL     1       1.467  -3.091   1.023  0.00  0.00    -0.027 A 
ATOM     36  C   UNL     1       1.443  -1.913   1.694  0.00  0.00    +0.009 A 
ATOM     37  C   UNL     1       0.244  -1.237   1.818  0.00  0.00    +0.008 A 
ATOM     38  C   UNL     1      -0.872  -1.771   1.265  0.00  0.00    +0.045 A 
ATOM     39  S   UNL     1      -0.240  -3.272   0.534  0.00  0.00    -0.103 S 
ENDBRANCH  34  35
ENDBRANCH  25  34
ENDBRANCH   1  25
TORSDOF 8
