REMARK  Name = ZINC56200764
REMARK  7 active torsions:
REMARK  status: ('A' for Active; 'I' for Inactive)
REMARK    1  A    between atoms: C_1  and  C_2
REMARK    2  A    between atoms: C_2  and  C_3
REMARK    3  A    between atoms: C_7  and  N_12
REMARK    4  A    between atoms: N_12  and  C_13
REMARK    5  A    between atoms: C_13  and  C_15
REMARK    6  A    between atoms: C_13  and  C_16
REMARK    7  A    between atoms: N_18  and  C_19
REMARK                            x       y       z     vdW  Elec       q    Type
REMARK                         _______ _______ _______ _____ _____    ______ ____
ROOT
ATOM      1  N   UNL     1      -6.745  -2.470  -1.352  0.00  0.00    -0.333 N 
ATOM      2  H   UNL     1      -6.751  -2.475  -2.322  0.00  0.00    +0.147 HD
ENDROOT
BRANCH   1   7
ATOM      3  C   UNL     1      -1.433  -0.477   0.006  0.00  0.00    +0.196 A 
ATOM      4  N   UNL     1      -2.135  -0.743  -1.055  0.00  0.00    -0.213 NA
ATOM      5  C   UNL     1      -3.357  -1.200  -0.669  0.00  0.00    +0.111 A 
ATOM      6  C   UNL     1      -4.490  -1.626  -1.363  0.00  0.00    +0.054 A 
ATOM      7  C   UNL     1      -5.607  -2.042  -0.661  0.00  0.00    +0.030 A 
ATOM      8  C   UNL     1      -5.603  -2.036   0.733  0.00  0.00    +0.026 A 
ATOM      9  C   UNL     1      -4.487  -1.616   1.425  0.00  0.00    +0.050 A 
ATOM     10  C   UNL     1      -3.360  -1.197   0.734  0.00  0.00    +0.155 A 
ATOM     11  O   UNL     1      -2.143  -0.746   1.113  0.00  0.00    -0.440 OA
BRANCH   3  13
ATOM     12  C   UNL     1      -0.050   1.581  -0.006  0.00  0.00    +0.013 C 
ATOM     13  C   UNL     1      -0.022   0.051  -0.005  0.00  0.00    +0.093 C 
ENDBRANCH   3  13
ENDBRANCH   1   7
BRANCH   1  14
ATOM     14  C   UNL     1      -7.930  -2.911  -0.611  0.00  0.00    +0.154 C 
ATOM     15  C   UNL     1      -8.786  -1.696  -0.248  0.00  0.00    +0.038 C 
BRANCH  14  16
ATOM     16  C   UNL     1      -8.734  -3.856  -1.466  0.00  0.00    +0.237 C 
ATOM     17  O   UNL     1      -8.356  -4.134  -2.584  0.00  0.00    -0.273 OA
ATOM     18  N   UNL     1      -9.875  -4.392  -0.988  0.00  0.00    -0.283 N 
ATOM     19  H   UNL     1     -10.136  -4.235  -0.067  0.00  0.00    +0.155 HD
BRANCH  18  20
ATOM     20  C   UNL     1     -10.682  -5.177  -1.820  0.00  0.00    +0.047 A 
ATOM     21  C   UNL     1     -10.634  -5.006  -3.197  0.00  0.00    +0.024 A 
ATOM     22  C   UNL     1     -11.431  -5.782  -4.015  0.00  0.00    +0.002 A 
ATOM     23  C   UNL     1     -12.277  -6.729  -3.465  0.00  0.00    +0.001 A 
ATOM     24  C   UNL     1     -12.327  -6.901  -2.094  0.00  0.00    +0.017 A 
ATOM     25  C   UNL     1     -11.528  -6.132  -1.270  0.00  0.00    +0.039 A 
ATOM     26 BR   UNL     1     -11.591  -6.373   0.605  0.00  0.00    -0.048 Br
ENDBRANCH  18  20
ENDBRANCH  14  16
ENDBRANCH   1  14
TORSDOF 5
