REMARK  Name = ZINC57649156
REMARK  9 active torsions:
REMARK  status: ('A' for Active; 'I' for Inactive)
REMARK    1  A    between atoms: C_1  and  C_2
REMARK    2  A    between atoms: C_5  and  N_9
REMARK    3  A    between atoms: C_6  and  C_8
REMARK    4  A    between atoms: C_12  and  C_15
REMARK    5  A    between atoms: C_15  and  S_16
REMARK    6  A    between atoms: S_16  and  C_17
REMARK    7  A    between atoms: C_19  and  C_24
REMARK    8  A    between atoms: C_21  and  N_23
REMARK    9  A    between atoms: C_25  and  C_27
REMARK                            x       y       z     vdW  Elec       q    Type
REMARK                         _______ _______ _______ _____ _____    ______ ____
ROOT
ATOM      1  N   UNL     1       0.059  -4.171  -0.021  0.00  0.00    -0.219 N 
ATOM      2  C   UNL     1       1.274  -4.850  -0.031  0.00  0.00    +0.172 A 
ATOM      3  N   UNL     1       1.484  -6.149  -0.044  0.00  0.00    -0.228 NA
ATOM      4  C   UNL     1       2.708  -6.642  -0.052  0.00  0.00    +0.061 A 
ATOM      5  C   UNL     1       3.731  -5.752  -0.046  0.00  0.00    +0.072 A 
ATOM      6  S   UNL     1       2.830  -4.210  -0.036  0.00  0.00    -0.060 S 
ATOM      7  C   UNL     1      -1.098  -4.861  -0.019  0.00  0.00    +0.223 C 
ATOM      8  O   UNL     1      -1.082  -6.074  -0.025  0.00  0.00    -0.275 OA
ATOM      9  C   UNL     1      -2.414  -4.125  -0.008  0.00  0.00    +0.110 C 
ENDROOT
BRANCH   1  14
ATOM     10  C   UNL     1      -0.018   1.503   0.010  0.00  0.00    +0.044 C 
ATOM     11  C   UNL     1       0.002  -0.004   0.002  0.00  0.00    -0.050 A 
ATOM     12  C   UNL     1       0.006  -0.688  -1.200  0.00  0.00    +0.005 A 
ATOM     13  C   UNL     1       0.025  -2.068  -1.211  0.00  0.00    +0.024 A 
ATOM     14  C   UNL     1       0.041  -2.771  -0.013  0.00  0.00    +0.046 A 
ATOM     15  C   UNL     1       0.037  -2.082   1.192  0.00  0.00    -0.028 A 
ATOM     16  C   UNL     1       0.023  -0.700   1.196  0.00  0.00    +0.008 A 
ATOM     17  C   UNL     1       0.054  -2.840   2.494  0.00  0.00    +0.046 C 
ENDBRANCH   1  14
BRANCH   4  18
ATOM     18  C   UNL     1       2.958  -8.128  -0.067  0.00  0.00    +0.133 C 
BRANCH  18  19
ATOM     19  S   UNL     1       3.055  -8.707  -1.784  0.00  0.00    -0.080 S 
BRANCH  19  20
ATOM     20  C   UNL     1       3.346 -10.439  -1.633  0.00  0.00    +0.190 A 
ATOM     21  N   UNL     1       3.474 -11.171  -2.731  0.00  0.00    -0.227 NA
ATOM     22  C   UNL     1       3.694 -12.475  -2.658  0.00  0.00    +0.044 A 
ATOM     23  C   UNL     1       3.791 -13.076  -1.418  0.00  0.00    +0.066 A 
ATOM     24  C   UNL     1       3.652 -12.279  -0.279  0.00  0.00    +0.121 A 
ATOM     25  N   UNL     1       3.437 -10.976  -0.425  0.00  0.00    -0.207 NA
ATOM     26  C   UNL     1       3.837 -13.294  -3.914  0.00  0.00    +0.066 C 
BRANCH  24  27
ATOM     27  N   UNL     1       3.741 -12.839   0.985  0.00  0.00    -0.343 N 
ATOM     28  H   UNL     1       3.901 -13.791   1.084  0.00  0.00    +0.144 HD
ATOM     29  H   UNL     1       3.643 -12.280   1.772  0.00  0.00    +0.144 HD
ENDBRANCH  24  27
ENDBRANCH  19  20
ENDBRANCH  18  19
ENDBRANCH   4  18
TORSDOF 5
