REMARK  Name = ZINC32746987
REMARK  11 active torsions:
REMARK  status: ('A' for Active; 'I' for Inactive)
REMARK    1  A    between atoms: C_1  and  C_2
REMARK    2  A    between atoms: C_2  and  C_3
REMARK    3  A    between atoms: C_3  and  N_4
REMARK    4  A    between atoms: C_8  and  S_32
REMARK    5  A    between atoms: C_12  and  C_13
REMARK    6  A    between atoms: C_13  and  C_14
REMARK    7  A    between atoms: C_14  and  C_15
REMARK    8  A    between atoms: N_17  and  C_18
REMARK    9  A    between atoms: C_18  and  C_20
REMARK   10  A    between atoms: C_18  and  C_26
REMARK   11  A    between atoms: S_32  and  N_35
REMARK                            x       y       z     vdW  Elec       q    Type
REMARK                         _______ _______ _______ _____ _____    ______ ____
ROOT
ATOM      1  C   UNL     1      -1.384  -2.335   2.526  0.00  0.00    +0.083 C 
ENDROOT
BRANCH   1  10
ATOM      2  N   UNL     1      -1.413  -1.998   0.005  0.00  0.00    -0.328 N 
ATOM      3  C   UNL     1      -1.407  -2.811  -1.112  0.00  0.00    +0.069 A 
ATOM      4  C   UNL     1      -1.416  -2.574  -2.479  0.00  0.00    +0.030 A 
ATOM      5  C   UNL     1      -1.405  -3.637  -3.357  0.00  0.00    +0.030 A 
ATOM      6  C   UNL     1      -1.386  -4.941  -2.881  0.00  0.00    +0.107 A 
ATOM      7  C   UNL     1      -1.377  -5.193  -1.539  0.00  0.00    +0.058 A 
ATOM      8  C   UNL     1      -1.387  -4.131  -0.631  0.00  0.00    +0.091 A 
ATOM      9  N   UNL     1      -1.383  -4.058   0.725  0.00  0.00    -0.232 NA
ATOM     10  C   UNL     1      -1.392  -2.811   1.096  0.00  0.00    +0.111 A 
BRANCH   6  11
ATOM     11  S   UNL     1      -1.373  -6.285  -4.021  0.00  0.00    +0.056 S 
ATOM     12  O   UNL     1      -1.906  -7.407  -3.332  0.00  0.00    -0.153 OA
ATOM     13  O   UNL     1      -1.935  -5.796  -5.231  0.00  0.00    -0.153 OA
BRANCH  11  14
ATOM     14  N   UNL     1       0.213  -6.637  -4.344  0.00  0.00    -0.204 NA
ATOM     15  H   UNL     1       0.472  -7.545  -4.567  0.00  0.00    +0.144 HD
ATOM     16  H   UNL     1       0.882  -5.936  -4.311  0.00  0.00    +0.144 HD
ENDBRANCH  11  14
ENDBRANCH   6  11
BRANCH   2  17
ATOM     17  C   UNL     1      -1.433  -0.534   0.013  0.00  0.00    +0.123 C 
BRANCH  17  19
ATOM     18  C   UNL     1      -0.019   1.526   0.010  0.00  0.00    +0.005 C 
ATOM     19  C   UNL     1       0.002  -0.004   0.002  0.00  0.00    +0.018 C 
ENDBRANCH  17  19
ENDBRANCH   2  17
ENDBRANCH   1  10
BRANCH   1  20
ATOM     20  C   UNL     1      -2.824  -2.193   3.024  0.00  0.00    +0.103 C 
BRANCH  20  21
ATOM     21  C   UNL     1      -2.816  -1.718   4.454  0.00  0.00    +0.214 C 
ATOM     22  O   UNL     1      -1.762  -1.512   5.019  0.00  0.00    -0.276 OA
ATOM     23  N   UNL     1      -3.979  -1.520   5.105  0.00  0.00    -0.308 N 
ATOM     24  H   UNL     1      -4.822  -1.684   4.653  0.00  0.00    +0.149 HD
BRANCH  23  25
ATOM     25  C   UNL     1      -3.972  -1.058   6.495  0.00  0.00    +0.106 C 
BRANCH  25  26
ATOM     26  C   UNL     1      -3.867   0.445   6.524  0.00  0.00    -0.027 A 
ATOM     27  C   UNL     1      -4.574   1.205   5.611  0.00  0.00    +0.005 A 
ATOM     28  C   UNL     1      -4.478   2.584   5.638  0.00  0.00    +0.000 A 
ATOM     29  C   UNL     1      -3.676   3.203   6.578  0.00  0.00    +0.000 A 
ATOM     30  C   UNL     1      -2.970   2.443   7.492  0.00  0.00    +0.000 A 
ATOM     31  C   UNL     1      -3.069   1.064   7.468  0.00  0.00    +0.005 A 
ENDBRANCH  25  26
BRANCH  25  32
ATOM     32  C   UNL     1      -5.267  -1.493   7.184  0.00  0.00    +0.014 C 
ATOM     33  C   UNL     1      -5.259  -1.010   8.636  0.00  0.00    +0.006 C 
ATOM     34  C   UNL     1      -6.554  -1.444   9.325  0.00  0.00    +0.000 C 
ATOM     35  C   UNL     1      -6.660  -2.970   9.296  0.00  0.00    +0.000 C 
ATOM     36  C   UNL     1      -6.668  -3.453   7.844  0.00  0.00    +0.000 C 
ATOM     37  C   UNL     1      -5.373  -3.019   7.155  0.00  0.00    +0.006 C 
ENDBRANCH  25  32
ENDBRANCH  23  25
ENDBRANCH  20  21
ENDBRANCH   1  20
TORSDOF 10
