REMARK  Name = ZINC14479281
REMARK  6 active torsions:
REMARK  status: ('A' for Active; 'I' for Inactive)
REMARK    1  A    between atoms: C_1  and  O_2
REMARK    2  A    between atoms: O_2  and  C_3
REMARK    3  A    between atoms: C_6  and  C_11
REMARK    4  A    between atoms: C_8  and  O_9
REMARK    5  A    between atoms: O_9  and  C_10
REMARK    6  A    between atoms: C_24  and  O_27
REMARK                            x       y       z     vdW  Elec       q    Type
REMARK                         _______ _______ _______ _____ _____    ______ ____
ROOT
ATOM      1  C   UNL     1       1.409  -0.275   2.051  0.00  0.00    +0.105 C 
ATOM      2  C   UNL     1       1.410  -0.364   0.523  0.00  0.00    +0.029 C 
ATOM      3  C   UNL     1       2.212   0.852  -0.022  0.00  0.00    +0.033 C 
ATOM      4  C   UNL     1       1.202   1.982   0.001  0.00  0.00    -0.030 C 
ATOM      5  C   UNL     1      -0.018   1.507   0.010  0.00  0.00    -0.023 C 
ATOM      6  C   UNL     1       0.002  -0.004   0.002  0.00  0.00    +0.049 C 
ATOM      7  C   UNL     1      -1.082  -0.554   0.881  0.00  0.00    -0.016 A 
ATOM      8  C   UNL     1      -2.395  -0.453   0.437  0.00  0.00    +0.006 A 
ATOM      9  C   UNL     1      -3.437  -0.938   1.199  0.00  0.00    +0.004 A 
ATOM     10  C   UNL     1      -3.183  -1.532   2.422  0.00  0.00    +0.047 A 
ATOM     11  C   UNL     1      -1.847  -1.638   2.896  0.00  0.00    +0.138 A 
ATOM     12  C   UNL     1      -0.799  -1.149   2.110  0.00  0.00    +0.073 A 
ATOM     13  N   UNL     1       0.504  -1.286   2.597  0.00  0.00    -0.334 N 
ATOM     14  H   UNL     1       0.857  -2.216   2.429  0.00  0.00    +0.147 HD
ENDROOT
BRANCH   1  18
ATOM     15  C   UNL     1       5.365  -0.965   3.523  0.00  0.00    +0.162 A 
ATOM     16  C   UNL     1       4.563  -2.034   3.155  0.00  0.00    +0.050 A 
ATOM     17  C   UNL     1       3.283  -1.807   2.685  0.00  0.00    +0.009 A 
ATOM     18  C   UNL     1       2.803  -0.516   2.570  0.00  0.00    -0.023 A 
ATOM     19  C   UNL     1       3.598   0.555   2.935  0.00  0.00    +0.055 A 
ATOM     20  C   UNL     1       4.880   0.335   3.412  0.00  0.00    +0.162 A 
BRANCH  15  22
ATOM     21  C   UNL     1       7.053  -2.546   4.077  0.00  0.00    +0.277 C 
ATOM     22  O   UNL     1       6.622  -1.186   3.990  0.00  0.00    -0.491 OA
ENDBRANCH  15  22
BRANCH  20  23
ATOM     23  O   UNL     1       5.663   1.387   3.772  0.00  0.00    -0.491 OA
ATOM     24  C   UNL     1       5.100   2.693   3.632  0.00  0.00    +0.277 C 
ENDBRANCH  20  23
ENDBRANCH   1  18
BRANCH  11  25
ATOM     25  O   UNL     1      -1.580  -2.221   4.096  0.00  0.00    -0.505 OA
ATOM     26  H   UNL     1      -1.571  -1.604   4.840  0.00  0.00    +0.292 HD
ENDBRANCH  11  25
TORSDOF 4
