REMARK  Name = ZINC36027168
REMARK  7 active torsions:
REMARK  status: ('A' for Active; 'I' for Inactive)
REMARK    1  A    between atoms: C_1  and  C_2
REMARK    2  A    between atoms: C_5  and  S_8
REMARK    3  A    between atoms: S_8  and  N_11
REMARK    4  A    between atoms: C_18  and  C_32
REMARK    5  A    between atoms: N_22  and  C_23
REMARK    6  A    between atoms: C_23  and  C_25
REMARK    7  A    between atoms: C_23  and  C_26
REMARK                            x       y       z     vdW  Elec       q    Type
REMARK                         _______ _______ _______ _____ _____    ______ ____
ROOT
ATOM      1  N   UNL     1       2.844  -4.159   1.151  0.00  0.00    -0.177 NA
ATOM      2  C   UNL     1       3.005  -4.158  -0.309  0.00  0.00    +0.109 C 
ATOM      3  C   UNL     1       4.430  -3.709  -0.647  0.00  0.00    +0.023 C 
ATOM      4  C   UNL     1       5.430  -4.588   0.103  0.00  0.00    +0.006 C 
ATOM      5  C   UNL     1       5.221  -4.460   1.611  0.00  0.00    +0.023 C 
ATOM      6  C   UNL     1       3.806  -4.911   1.969  0.00  0.00    +0.109 C 
ATOM      7  N   UNL     1       6.809  -4.185  -0.246  0.00  0.00    +0.401 N 
ATOM      8  C   UNL     1       7.142  -5.079  -1.382  0.00  0.00    +0.016 C 
ATOM      9  C   UNL     1       6.271  -6.300  -1.181  0.00  0.00    +0.201 C 
ATOM     10  O   UNL     1       6.430  -7.378  -1.712  0.00  0.00    -0.277 OA
ATOM     11  N   UNL     1       5.288  -5.986  -0.312  0.00  0.00    -0.307 N 
ATOM     12  C   UNL     1       6.810  -4.397  -2.711  0.00  0.00    -0.004 C 
ATOM     13  H   UNL     1       6.835  -3.218  -0.533  0.00  0.00    -0.082 HD
ATOM     14  H   UNL     1       7.434  -4.346   0.529  0.00  0.00    -0.082 HD
ENDROOT
BRANCH   1  15
ATOM     15  S   UNL     1       1.605  -3.321   1.863  0.00  0.00    +0.061 S 
ATOM     16  O   UNL     1       1.377  -3.930   3.127  0.00  0.00    -0.153 OA
ATOM     17  O   UNL     1       0.584  -3.194   0.883  0.00  0.00    -0.153 OA
BRANCH  15  22
ATOM     18  C   UNL     1       3.626   2.254   2.978  0.00  0.00    +0.044 C 
ATOM     19  C   UNL     1       3.121   0.861   2.700  0.00  0.00    -0.050 A 
ATOM     20  C   UNL     1       2.510   0.576   1.493  0.00  0.00    +0.005 A 
ATOM     21  C   UNL     1       2.047  -0.701   1.238  0.00  0.00    +0.029 A 
ATOM     22  C   UNL     1       2.196  -1.694   2.189  0.00  0.00    +0.105 A 
ATOM     23  C   UNL     1       2.808  -1.409   3.395  0.00  0.00    +0.029 A 
ATOM     24  C   UNL     1       3.275  -0.132   3.649  0.00  0.00    +0.005 A 
ENDBRANCH  15  22
ENDBRANCH   1  15
BRANCH  11  25
ATOM     25  C   UNL     1       4.240  -6.902   0.146  0.00  0.00    +0.101 C 
ATOM     26  C   UNL     1       3.849  -7.842  -0.996  0.00  0.00    +0.033 C 
BRANCH  25  27
ATOM     27  C   UNL     1       4.753  -7.710   1.310  0.00  0.00    -0.027 A 
ATOM     28  C   UNL     1       6.091  -8.055   1.375  0.00  0.00    +0.005 A 
ATOM     29  C   UNL     1       6.561  -8.797   2.443  0.00  0.00    +0.000 A 
ATOM     30  C   UNL     1       5.695  -9.194   3.444  0.00  0.00    +0.000 A 
ATOM     31  C   UNL     1       4.358  -8.849   3.379  0.00  0.00    +0.000 A 
ATOM     32  C   UNL     1       3.888  -8.103   2.314  0.00  0.00    +0.005 A 
ENDBRANCH  25  27
ENDBRANCH  11  25
TORSDOF 4
