REMARK  Name = ZINC64610970
REMARK  6 active torsions:
REMARK  status: ('A' for Active; 'I' for Inactive)
REMARK    1  A    between atoms: C_1  and  O_2
REMARK    2  A    between atoms: O_2  and  C_3
REMARK    3  A    between atoms: C_6  and  C_9
REMARK    4  A    between atoms: C_12  and  C_16
REMARK    5  A    between atoms: C_16  and  C_17
REMARK    6  A    between atoms: C_23  and  C_25
REMARK                            x       y       z     vdW  Elec       q    Type
REMARK                         _______ _______ _______ _____ _____    ______ ____
ROOT
ATOM      1  C   UNL     1       6.637  -4.904  -4.838  0.00  0.00    -0.004 C 
ATOM      2  C   UNL     1       6.987  -3.884  -5.924  0.00  0.00    +0.022 C 
ATOM      3  C   UNL     1       8.510  -3.756  -6.027  0.00  0.00    +0.108 C 
ATOM      4  N   UNL     1       9.084  -5.091  -6.245  0.00  0.00    -0.300 N 
ATOM      5  C   UNL     1       8.739  -6.170  -5.309  0.00  0.00    +0.108 C 
ATOM      6  C   UNL     1       7.213  -6.271  -5.215  0.00  0.00    +0.022 C 
ATOM      7  C   UNL     1       9.910  -5.322  -7.284  0.00  0.00    +0.242 C 
ATOM      8  O   UNL     1      10.187  -4.423  -8.050  0.00  0.00    -0.273 OA
ENDROOT
BRANCH   7   9
ATOM      9  C   UNL     1      10.490  -6.697  -7.495  0.00  0.00    +0.190 C 
ATOM     10  C   UNL     1      11.359  -7.082  -6.319  0.00  0.00    +0.016 C 
ATOM     11  C   UNL     1      12.602  -7.273  -6.817  0.00  0.00    -0.002 A 
ATOM     12  C   UNL     1      13.874  -7.656  -6.194  0.00  0.00    +0.029 A 
ATOM     13  C   UNL     1      14.977  -7.771  -6.971  0.00  0.00    +0.042 A 
ATOM     14  C   UNL     1      14.933  -7.534  -8.353  0.00  0.00    +0.022 A 
ATOM     15  C   UNL     1      13.800  -7.178  -8.996  0.00  0.00    +0.027 A 
ATOM     16  C   UNL     1      12.582  -7.029  -8.277  0.00  0.00    +0.043 A 
ATOM     17  N   UNL     1      11.373  -6.699  -8.667  0.00  0.00    -0.370 N 
ATOM     18 CL   UNL     1      16.484  -8.223  -6.238  0.00  0.00    -0.084 Cl
ATOM     19  H   UNL     1      11.107  -6.491  -9.576  0.00  0.00    +0.161 HD
ENDBRANCH   7   9
BRANCH   1  20
ATOM     20  C   UNL     1       5.117  -5.009  -4.708  0.00  0.00    +0.053 C 
BRANCH  20  23
ATOM     21  C   UNL     1       2.505  -2.503  -4.381  0.00  0.00    +0.180 C 
ATOM     22  N   UNL     1       3.098  -3.792  -3.964  0.00  0.00    -0.269 NA
ATOM     23  C   UNL     1       4.553  -3.677  -4.211  0.00  0.00    +0.211 C 
ATOM     24  O   UNL     1       4.674  -2.663  -5.235  0.00  0.00    -0.279 OA
ATOM     25  N   UNL     1       3.634  -1.675  -4.866  0.00  0.00    -0.178 NA
ATOM     26  H   UNL     1       2.910  -3.977  -2.990  0.00  0.00    +0.126 HD
ATOM     27  H   UNL     1       3.965  -1.055  -4.142  0.00  0.00    +0.156 HD
BRANCH  21  31
ATOM     28  C   UNL     1       0.606  -0.607  -1.056  0.00  0.00    +0.120 A 
ATOM     29  C   UNL     1       1.173   0.161  -2.062  0.00  0.00    +0.046 A 
ATOM     30  C   UNL     1       1.786  -0.455  -3.136  0.00  0.00    +0.010 A 
ATOM     31  C   UNL     1       1.835  -1.835  -3.209  0.00  0.00    -0.014 A 
ATOM     32  C   UNL     1       1.270  -2.602  -2.207  0.00  0.00    +0.010 A 
ATOM     33  C   UNL     1       0.661  -1.992  -1.128  0.00  0.00    +0.046 A 
BRANCH  28  35
ATOM     34  C   UNL     1      -0.017   1.425   0.010  0.00  0.00    +0.277 C 
ATOM     35  O   UNL     1       0.002  -0.004   0.002  0.00  0.00    -0.495 OA
ENDBRANCH  28  35
ENDBRANCH  21  31
ENDBRANCH  20  23
ENDBRANCH   1  20
TORSDOF 5
