REMARK  Name = ZINC04321774
REMARK  4 active torsions:
REMARK  status: ('A' for Active; 'I' for Inactive)
REMARK    1  A    between atoms: C_4  and  C_7
REMARK    2  A    between atoms: C_7  and  N_43
REMARK    3  A    between atoms: C_8  and  N_43
REMARK    4  A    between atoms: C_10  and  C_21
REMARK                            x       y       z     vdW  Elec       q    Type
REMARK                         _______ _______ _______ _____ _____    ______ ____
ROOT
ATOM      1  C   UNL     1      -1.321   5.796  -0.234  0.00  0.00    +0.047 C 
ATOM      2  C   UNL     1      -2.479   5.125   0.518  0.00  0.00    +0.197 C 
ATOM      3  O   UNL     1      -2.616   3.776   0.071  0.00  0.00    -0.485 OA
ATOM      4  C   UNL     1      -1.527   2.973   0.085  0.00  0.00    +0.132 A 
ATOM      5  C   UNL     1      -1.682   1.593   0.108  0.00  0.00    +0.046 A 
ATOM      6  C   UNL     1      -0.572   0.772   0.119  0.00  0.00    +0.004 A 
ATOM      7  C   UNL     1       0.706   1.309   0.097  0.00  0.00    +0.001 A 
ATOM      8  C   UNL     1       0.883   2.676   0.072  0.00  0.00    +0.015 A 
ATOM      9  C   UNL     1      -0.232   3.516   0.068  0.00  0.00    +0.057 A 
ATOM     10  C   UNL     1      -0.071   4.980   0.048  0.00  0.00    +0.157 C 
ATOM     11  O   UNL     1       1.003   5.507   0.246  0.00  0.00    -0.294 OA
ENDROOT
BRANCH   2  12
ATOM     12  C   UNL     1      -2.192   5.137   1.998  0.00  0.00    -0.009 A 
ATOM     13  C   UNL     1      -2.053   3.946   2.685  0.00  0.00    +0.007 A 
ATOM     14  C   UNL     1      -1.785   3.958   4.041  0.00  0.00    +0.000 A 
ATOM     15  C   UNL     1      -1.667   5.161   4.712  0.00  0.00    +0.000 A 
ATOM     16  C   UNL     1      -1.811   6.352   4.026  0.00  0.00    +0.000 A 
ATOM     17  C   UNL     1      -2.075   6.340   2.669  0.00  0.00    +0.007 A 
ENDBRANCH   2  12
BRANCH   1  18
ATOM     18  N   UNL     1      -1.605   5.796  -1.681  0.00  0.00    +0.391 N 
ATOM     19  H   UNL     1      -1.343   4.886  -2.079  0.00  0.00    -0.084 HD
ATOM     20  H   UNL     1      -2.609   5.958  -1.829  0.00  0.00    -0.084 HD
BRANCH  18  21
ATOM     21  C   UNL     1      -0.837   6.861  -2.354  0.00  0.00    -0.046 C 
BRANCH  21  25
ATOM     22  C   UNL     1      -1.716   6.794  -6.534  0.00  0.00    +0.000 A 
ATOM     23  C   UNL     1      -2.478   7.570  -5.680  0.00  0.00    +0.000 A 
ATOM     24  C   UNL     1      -2.193   7.591  -4.327  0.00  0.00    +0.002 A 
ATOM     25  C   UNL     1      -1.147   6.837  -3.829  0.00  0.00    -0.064 A 
ATOM     26  C   UNL     1      -0.382   6.066  -4.684  0.00  0.00    +0.002 A 
ATOM     27  C   UNL     1      -0.670   6.041  -6.036  0.00  0.00    +0.000 A 
ENDBRANCH  21  25
ENDBRANCH  18  21
ENDBRANCH   1  18
TORSDOF 4
