REMARK  Name = ZINC01152450
REMARK  6 active torsions:
REMARK  status: ('A' for Active; 'I' for Inactive)
REMARK    1  A    between atoms: C_1  and  C_2
REMARK    2  A    between atoms: C_5  and  N_9
REMARK    3  A    between atoms: C_6  and  C_8
REMARK    4  A    between atoms: C_10  and  C_12
REMARK    5  A    between atoms: C_13  and  C_27
REMARK    6  A    between atoms: C_18  and  C_20
REMARK                            x       y       z     vdW  Elec       q    Type
REMARK                         _______ _______ _______ _____ _____    ______ ____
ROOT
ATOM      1  C   UNL     1      -0.292  -6.374  -1.277  0.00  0.00    +0.056 C 
ATOM      2  C   UNL     1      -0.493  -6.896  -2.504  0.00  0.00    +0.019 C 
ATOM      3  N   UNL     1      -0.539  -8.248  -2.697  0.00  0.00    -0.273 N 
ATOM      4  C   UNL     1      -0.393  -9.143  -1.712  0.00  0.00    +0.304 C 
ATOM      5  O   UNL     1      -0.449 -10.328  -1.980  0.00  0.00    -0.252 OA
ATOM      6  N   UNL     1      -0.184  -8.774  -0.432  0.00  0.00    -0.288 N 
ATOM      7  C   UNL     1      -0.113  -7.337  -0.121  0.00  0.00    +0.143 C 
ATOM      8  C   UNL     1      -0.671  -5.974  -3.683  0.00  0.00    +0.061 C 
ATOM      9  H   UNL     1      -0.686  -8.578  -3.597  0.00  0.00    +0.156 HD
ATOM     10  H   UNL     1      -0.081  -9.439   0.266  0.00  0.00    +0.151 HD
ENDROOT
BRANCH   7  11
ATOM     11  C   UNL     1       1.227  -7.059   0.511  0.00  0.00    -0.009 A 
ATOM     12  C   UNL     1       2.335  -7.794   0.132  0.00  0.00    +0.007 A 
ATOM     13  C   UNL     1       3.564  -7.540   0.711  0.00  0.00    +0.000 A 
ATOM     14  C   UNL     1       3.686  -6.551   1.669  0.00  0.00    +0.001 A 
ATOM     15  C   UNL     1       2.579  -5.816   2.049  0.00  0.00    +0.015 A 
ATOM     16  C   UNL     1       1.349  -6.067   1.466  0.00  0.00    +0.023 A 
ATOM     17 BR   UNL     1      -0.165  -5.057   1.980  0.00  0.00    -0.050 Br
ENDBRANCH   7  11
BRANCH   1  19
ATOM     18  N   UNL     1      -1.388  -4.264  -0.989  0.00  0.00    -0.281 N 
ATOM     19  C   UNL     1      -0.244  -4.972  -1.077  0.00  0.00    +0.248 C 
ATOM     20  O   UNL     1       0.830  -4.407  -0.983  0.00  0.00    -0.270 OA
ATOM     21  H   UNL     1      -2.242  -4.724  -0.961  0.00  0.00    +0.155 HD
BRANCH  18  26
ATOM     22  C   UNL     1      -1.208   1.402  -0.785  0.00  0.00    +0.044 C 
ATOM     23  C   UNL     1      -1.256  -0.104  -0.839  0.00  0.00    -0.050 A 
ATOM     24  C   UNL     1      -0.197  -0.846  -0.348  0.00  0.00    +0.005 A 
ATOM     25  C   UNL     1      -0.238  -2.225  -0.396  0.00  0.00    +0.024 A 
ATOM     26  C   UNL     1      -1.344  -2.868  -0.939  0.00  0.00    +0.037 A 
ATOM     27  C   UNL     1      -2.405  -2.119  -1.431  0.00  0.00    -0.029 A 
ATOM     28  C   UNL     1      -2.361  -0.740  -1.375  0.00  0.00    +0.008 A 
ATOM     29  C   UNL     1      -3.607  -2.812  -2.020  0.00  0.00    +0.045 C 
ENDBRANCH  18  26
ENDBRANCH   1  19
TORSDOF 3
