REMARK  Name = ZINC09033197
REMARK  5 active torsions:
REMARK  status: ('A' for Active; 'I' for Inactive)
REMARK    1  A    between atoms: C_1  and  C_2
REMARK    2  A    between atoms: C_2  and  C_33
REMARK    3  A    between atoms: C_12  and  C_14
REMARK    4  A    between atoms: C_28  and  O_31
REMARK    5  A    between atoms: O_31  and  C_32
REMARK                            x       y       z     vdW  Elec       q    Type
REMARK                         _______ _______ _______ _____ _____    ______ ____
ROOT
ATOM      1  C   UNL     1      -0.206   1.045  -2.550  0.00  0.00    +0.041 C 
ATOM      2  C   UNL     1      -0.755   1.594  -1.231  0.00  0.00    +0.069 C 
ATOM      3  C   UNL     1       0.100   1.081  -0.069  0.00  0.00    +0.104 C 
ATOM      4  C   UNL     1      -0.493   1.573   1.250  0.00  0.00    +0.198 C 
ATOM      5  C   UNL     1      -1.952   1.129   1.355  0.00  0.00    +0.098 C 
ATOM      6  C   UNL     1      -2.725   1.639   0.136  0.00  0.00    +0.166 C 
ATOM      7  O   UNL     1      -2.104   1.155  -1.056  0.00  0.00    -0.374 OA
ATOM      8  N   UNL     1      -0.406   3.033   1.328  0.00  0.00    -0.206 N 
ATOM      9  C   UNL     1       0.910   3.712   1.358  0.00  0.00    +0.136 C 
ATOM     10  C   UNL     1       0.555   5.117   1.863  0.00  0.00    +0.086 C 
ATOM     11  C   UNL     1      -0.956   5.159   1.767  0.00  0.00    +0.068 C 
ATOM     12  N   UNL     1      -1.401   3.986   1.451  0.00  0.00    -0.185 NA
ATOM     13  C   UNL     1       1.760   2.954   2.343  0.00  0.00    +0.020 A 
ATOM     14  C   UNL     1       2.911   3.543   2.835  0.00  0.00    +0.009 A 
ATOM     15  C   UNL     1       3.720   2.865   3.726  0.00  0.00    +0.004 A 
ATOM     16  C   UNL     1       3.378   1.586   4.126  0.00  0.00    +0.049 A 
ATOM     17  C   UNL     1       2.226   0.994   3.643  0.00  0.00    +0.162 A 
ATOM     18  C   UNL     1       1.398   1.680   2.748  0.00  0.00    +0.170 A 
ATOM     19  O   UNL     1       0.259   1.055   2.348  0.00  0.00    -0.463 OA
ATOM     20  C   UNL     1      -0.715   3.123  -1.259  0.00  0.00    +0.041 C 
ENDROOT
BRANCH  11  21
ATOM     21  C   UNL     1      -1.791   6.353   1.996  0.00  0.00    -0.002 A 
ATOM     22  C   UNL     1      -1.183   7.574   2.341  0.00  0.00    +0.010 A 
ATOM     23  C   UNL     1      -1.929   8.688   2.551  0.00  0.00    +0.009 A 
ATOM     24  C   UNL     1      -3.330   8.628   2.438  0.00  0.00    -0.018 A 
ATOM     25  C   UNL     1      -4.124   9.767   2.658  0.00  0.00    +0.008 A 
ATOM     26  C   UNL     1      -5.478   9.678   2.541  0.00  0.00    +0.001 A 
ATOM     27  C   UNL     1      -6.093   8.474   2.206  0.00  0.00    +0.001 A 
ATOM     28  C   UNL     1      -5.357   7.350   1.986  0.00  0.00    +0.008 A 
ATOM     29  C   UNL     1      -3.956   7.402   2.097  0.00  0.00    -0.017 A 
ATOM     30  C   UNL     1      -3.168   6.262   1.877  0.00  0.00    +0.018 A 
ENDBRANCH  11  21
BRANCH  17  31
ATOM     31  O   UNL     1       1.895  -0.263   4.042  0.00  0.00    -0.491 OA
ATOM     32  C   UNL     1       2.783  -0.909   4.957  0.00  0.00    +0.277 C 
ENDBRANCH  17  31
TORSDOF 2
