REMARK  Name = ZINC42887698
REMARK  5 active torsions:
REMARK  status: ('A' for Active; 'I' for Inactive)
REMARK    1  A    between atoms: C_1  and  C_2
REMARK    2  A    between atoms: C_2  and  C_23
REMARK    3  A    between atoms: N_5  and  C_8
REMARK    4  A    between atoms: C_8  and  C_9
REMARK    5  A    between atoms: C_19  and  O_22
REMARK                            x       y       z     vdW  Elec       q    Type
REMARK                         _______ _______ _______ _____ _____    ______ ____
ROOT
ATOM      1  C   UNL     1      -0.104   1.256  -0.357  0.00  0.00    +0.016 C 
ATOM      2  C   UNL     1       0.005  -0.267  -0.256  0.00  0.00    -0.010 C 
ATOM      3  C   UNL     1       0.834  -0.800  -1.428  0.00  0.00    -0.008 C 
ATOM      4  C   UNL     1       2.255  -0.239  -1.338  0.00  0.00    -0.078 C 
ATOM      5  N   UNL     1       2.870  -0.656  -0.072  0.00  0.00    +0.380 N 
ATOM      6  C   UNL     1       2.122  -0.089   1.056  0.00  0.00    -0.078 C 
ATOM      7  C   UNL     1       0.696  -0.644   1.058  0.00  0.00    -0.008 C 
ATOM      8  H   UNL     1       2.859  -1.663  -0.009  0.00  0.00    -0.082 HD
ENDROOT
BRANCH   2   9
ATOM      9  C   UNL     1      -1.373  -0.875  -0.293  0.00  0.00    -0.042 A 
ATOM     10  C   UNL     1      -1.824  -1.630   0.773  0.00  0.00    +0.004 A 
ATOM     11  C   UNL     1      -3.089  -2.188   0.739  0.00  0.00    +0.000 A 
ATOM     12  C   UNL     1      -3.902  -1.990  -0.361  0.00  0.00    +0.000 A 
ATOM     13  C   UNL     1      -3.451  -1.233  -1.427  0.00  0.00    +0.000 A 
ATOM     14  C   UNL     1      -2.188  -0.672  -1.391  0.00  0.00    +0.004 A 
ENDBRANCH   2   9
BRANCH   5  15
ATOM     15  C   UNL     1       4.260  -0.181  -0.025  0.00  0.00    -0.075 C 
BRANCH  15  16
ATOM     16  C   UNL     1       4.949  -0.744   1.220  0.00  0.00    -0.025 C 
ATOM     17  C   UNL     1       6.283  -0.045   1.388  0.00  0.00    +0.006 C 
ATOM     18  C   UNL     1       6.917  -0.396   2.737  0.00  0.00    +0.037 C 
ATOM     19  C   UNL     1       7.688  -1.689   2.581  0.00  0.00    -0.024 A 
ATOM     20  C   UNL     1       9.074  -1.671   2.605  0.00  0.00    +0.007 A 
ATOM     21  C   UNL     1       9.743  -2.878   2.461  0.00  0.00    +0.020 A 
ATOM     22  C   UNL     1       9.009  -4.038   2.301  0.00  0.00    +0.111 A 
ATOM     23  N   UNL     1       7.690  -4.010   2.283  0.00  0.00    -0.257 NA
ATOM     24  C   UNL     1       7.024  -2.876   2.417  0.00  0.00    +0.073 A 
ATOM     25  C   UNL     1       5.509  -2.897   2.383  0.00  0.00    +0.163 C 
ATOM     26  C   UNL     1       5.047  -2.250   1.075  0.00  0.00    +0.039 C 
BRANCH  25  27
ATOM     27  O   UNL     1       4.994  -2.164   3.496  0.00  0.00    -0.386 OA
ATOM     28  H   UNL     1       5.263  -2.514   4.356  0.00  0.00    +0.210 HD
ENDBRANCH  25  27
ENDBRANCH  15  16
ENDBRANCH   5  15
TORSDOF 4
