REMARK  Name = ZINC35552503
REMARK  9 active torsions:
REMARK  status: ('A' for Active; 'I' for Inactive)
REMARK    1  A    between atoms: C_1  and  C_2
REMARK    2  A    between atoms: C_12  and  C_14
REMARK    3  A    between atoms: C_14  and  N_15
REMARK    4  A    between atoms: C_18  and  C_33
REMARK    5  A    between atoms: C_19  and  C_32
REMARK    6  A    between atoms: C_23  and  C_27
REMARK    7  A    between atoms: C_27  and  C_28
REMARK    8  A    between atoms: C_28  and  O_30
REMARK    9  A    between atoms: O_30  and  C_31
REMARK                            x       y       z     vdW  Elec       q    Type
REMARK                         _______ _______ _______ _____ _____    ______ ____
ROOT
ATOM      1  N   UNL     1       0.764  -2.104   5.956  0.00  0.00    -0.257 N 
ATOM      2  C   UNL     1       2.124  -1.951   6.272  0.00  0.00    +0.058 A 
ATOM      3  C   UNL     1       2.934  -2.700   5.437  0.00  0.00    +0.029 A 
ATOM      4  C   UNL     1       4.309  -2.673   5.602  0.00  0.00    -0.046 A 
ATOM      5  C   UNL     1       4.874  -1.899   6.598  0.00  0.00    -0.046 A 
ATOM      6  C   UNL     1       4.069  -1.147   7.437  0.00  0.00    +0.028 A 
ATOM      7  C   UNL     1       2.694  -1.171   7.277  0.00  0.00    +0.053 A 
ATOM      8  N   UNL     1       2.046  -0.350   8.214  0.00  0.00    -0.316 N 
ATOM      9  C   UNL     1       0.702  -0.125   8.359  0.00  0.00    +0.024 C 
ATOM     10  C   UNL     1      -0.324  -0.630   7.646  0.00  0.00    +0.087 C 
ATOM     11  C   UNL     1      -0.299  -1.525   6.551  0.00  0.00    +0.246 C 
ATOM     12  O   UNL     1      -1.386  -1.817   6.086  0.00  0.00    -0.270 OA
ATOM     13  C   UNL     1       6.371  -1.874   6.771  0.00  0.00    +0.044 C 
ATOM     14  C   UNL     1       5.191  -3.489   4.693  0.00  0.00    +0.044 C 
ATOM     15  H   UNL     1       2.623   0.117   8.839  0.00  0.00    +0.152 HD
ENDROOT
BRANCH   1  16
ATOM     16  C   UNL     1       0.463  -2.999   4.836  0.00  0.00    +0.210 C 
BRANCH  16  28
ATOM     17  C   UNL     1       1.691  -8.782   7.736  0.00  0.00    +0.044 C 
ATOM     18  C   UNL     1       1.007  -8.424   6.442  0.00  0.00    -0.048 A 
ATOM     19  C   UNL     1       0.467  -9.418   5.647  0.00  0.00    +0.007 A 
ATOM     20  C   UNL     1      -0.161  -9.098   4.459  0.00  0.00    +0.048 A 
ATOM     21  C   UNL     1      -0.254  -7.773   4.057  0.00  0.00    +0.142 A 
ATOM     22  C   UNL     1       0.288  -6.773   4.860  0.00  0.00    +0.079 A 
ATOM     23  C   UNL     1       0.914  -7.100   6.053  0.00  0.00    +0.030 A 
ATOM     24  N   UNL     1       0.190  -5.429   4.461  0.00  0.00    -0.264 N 
ATOM     25  C   UNL     1      -0.204  -5.156   3.068  0.00  0.00    +0.155 C 
ATOM     26  C   UNL     1      -1.336  -6.128   2.708  0.00  0.00    +0.248 C 
ATOM     27  O   UNL     1      -0.869  -7.467   2.885  0.00  0.00    -0.489 OA
ATOM     28  C   UNL     1       0.447  -4.425   5.323  0.00  0.00    +0.238 C 
ATOM     29  O   UNL     1       0.666  -4.670   6.491  0.00  0.00    -0.274 OA
ENDBRANCH  16  28
ENDBRANCH   1  16
BRANCH   9  30
ATOM     30  C   UNL     1       0.317   0.817   9.470  0.00  0.00    +0.171 C 
BRANCH  30  31
ATOM     31  C   UNL     1       0.223   0.054  10.766  0.00  0.00    +0.312 C 
ATOM     32  O   UNL     1       0.445  -1.133  10.785  0.00  0.00    -0.250 OA
BRANCH  31  33
ATOM     33  O   UNL     1      -0.108   0.694  11.899  0.00  0.00    -0.468 OA
ATOM     34  C   UNL     1      -0.179  -0.092  13.090  0.00  0.00    +0.280 C 
ENDBRANCH  31  33
ENDBRANCH  30  31
ENDBRANCH   9  30
TORSDOF 5
