REMARK  Name = ZINC33643418
REMARK  11 active torsions:
REMARK  status: ('A' for Active; 'I' for Inactive)
REMARK    1  A    between atoms: C_1  and  C_2
REMARK    2  A    between atoms: C_2  and  C_3
REMARK    3  A    between atoms: C_7  and  C_40
REMARK    4  A    between atoms: C_8  and  N_9
REMARK    5  A    between atoms: C_14  and  C_32
REMARK    6  A    between atoms: C_17  and  C_22
REMARK    7  A    between atoms: C_17  and  C_29
REMARK    8  A    between atoms: C_22  and  C_23
REMARK    9  A    between atoms: C_37  and  O_38
REMARK   10  A    between atoms: O_38  and  C_39
REMARK   11  A    between atoms: C_40  and  C_41
REMARK                            x       y       z     vdW  Elec       q    Type
REMARK                         _______ _______ _______ _____ _____    ______ ____
ROOT
ATOM      1  N   UNL     1      -2.179   2.029   2.829  0.00  0.00    -0.209 N 
ATOM      2  C   UNL     1      -0.917   1.567   2.548  0.00  0.00    +0.229 C 
ATOM      3  O   UNL     1      -0.084   1.165   3.331  0.00  0.00    -0.275 OA
ATOM      4  C   UNL     1      -0.802   1.668   1.111  0.00  0.00    +0.077 C 
ATOM      5  C   UNL     1      -0.013   1.086   0.008  0.00  0.00    -0.023 C 
ATOM      6  N   UNL     1      -0.781   1.543  -1.202  0.00  0.00    +0.396 N 
ATOM      7  C   UNL     1      -2.184   1.823  -0.770  0.00  0.00    +0.052 C 
ATOM      8  C   UNL     1      -2.275   1.302   0.663  0.00  0.00    +0.086 C 
ATOM      9  C   UNL     1      -2.965   2.126   1.716  0.00  0.00    +0.229 C 
ATOM     10  O   UNL     1      -4.001   2.745   1.601  0.00  0.00    -0.275 OA
ATOM     11  H   UNL     1      -0.317   2.454  -1.608  0.00  0.00    -0.083 HD
ATOM     12  H   UNL     1      -0.766   0.752  -1.966  0.00  0.00    -0.083 HD
ENDROOT
BRANCH   1  18
ATOM     13  C   UNL     1      -2.450   3.657   4.595  0.00  0.00    -0.026 A 
ATOM     14  C   UNL     1      -2.886   3.986   5.864  0.00  0.00    +0.005 A 
ATOM     15  C   UNL     1      -3.474   3.024   6.665  0.00  0.00    +0.001 A 
ATOM     16  C   UNL     1      -3.633   1.733   6.196  0.00  0.00    +0.005 A 
ATOM     17  C   UNL     1      -3.205   1.400   4.926  0.00  0.00    -0.026 A 
ATOM     18  C   UNL     1      -2.614   2.363   4.119  0.00  0.00    +0.050 A 
BRANCH  13  20
ATOM     19  C   UNL     1      -2.858   5.331   2.812  0.00  0.00    +0.009 C 
ATOM     20  C   UNL     1      -1.803   4.704   3.725  0.00  0.00    +0.033 C 
ENDBRANCH  13  20
BRANCH  17  21
ATOM     21  C   UNL     1      -3.380  -0.007   4.416  0.00  0.00    +0.033 C 
ATOM     22  C   UNL     1      -2.095  -0.801   4.661  0.00  0.00    +0.009 C 
ENDBRANCH  17  21
ENDBRANCH   1  18
BRANCH   5  23
ATOM     23  C   UNL     1       1.388   1.641  -0.002  0.00  0.00    -0.019 A 
ATOM     24  C   UNL     1       1.683   2.788   0.709  0.00  0.00    +0.005 A 
ATOM     25  C   UNL     1       2.968   3.297   0.701  0.00  0.00    +0.000 A 
ATOM     26  C   UNL     1       3.962   2.660  -0.020  0.00  0.00    +0.004 A 
ATOM     27  C   UNL     1       3.672   1.513  -0.734  0.00  0.00    +0.046 A 
ATOM     28  C   UNL     1       2.385   0.997  -0.722  0.00  0.00    +0.122 A 
BRANCH  28  29
ATOM     29  O   UNL     1       2.098  -0.134  -1.418  0.00  0.00    -0.495 OA
ATOM     30  C   UNL     1       3.173  -0.744  -2.136  0.00  0.00    +0.277 C 
ENDBRANCH  28  29
ENDBRANCH   5  23
BRANCH   7  31
ATOM     31  C   UNL     1      -3.161   1.092  -1.655  0.00  0.00    +0.347 C 
ATOM     32  O   UNL     1      -4.149   0.587  -1.176  0.00  0.00    -0.248 OA
ATOM     33  O   UNL     1      -2.933   1.002  -2.974  0.00  0.00    -0.248 OA
ENDBRANCH   7  31
BRANCH   7  34
ATOM     34  C   UNL     1      -2.461   3.327  -0.806  0.00  0.00    +0.035 C 
BRANCH  34  35
ATOM     35  C   UNL     1      -2.366   3.821  -2.227  0.00  0.00    -0.048 A 
ATOM     36  C   UNL     1      -1.157   4.271  -2.723  0.00  0.00    +0.003 A 
ATOM     37  C   UNL     1      -1.069   4.720  -4.028  0.00  0.00    +0.000 A 
ATOM     38  C   UNL     1      -2.193   4.729  -4.832  0.00  0.00    +0.000 A 
ATOM     39  C   UNL     1      -3.404   4.284  -4.334  0.00  0.00    +0.000 A 
ATOM     40  C   UNL     1      -3.490   3.830  -3.031  0.00  0.00    +0.003 A 
ENDBRANCH  34  35
ENDBRANCH   7  34
TORSDOF 8
