REMARK  Name = ZINC43740135
REMARK  12 active torsions:
REMARK  status: ('A' for Active; 'I' for Inactive)
REMARK    1  A    between atoms: C_1  and  C_2
REMARK    2  A    between atoms: C_13  and  O_15
REMARK    3  A    between atoms: N_21  and  O_22
REMARK    4  A    between atoms: O_22  and  C_23
REMARK    5  A    between atoms: C_23  and  C_24
REMARK    6  A    between atoms: N_26  and  C_27
REMARK    7  A    between atoms: C_27  and  C_29
REMARK    8  A    between atoms: C_27  and  C_33
REMARK    9  A    between atoms: C_29  and  C_30
REMARK   10  A    between atoms: C_38  and  C_40
REMARK   11  A    between atoms: C_38  and  C_41
REMARK   12  A    between atoms: C_44  and  C_45
REMARK                            x       y       z     vdW  Elec       q    Type
REMARK                         _______ _______ _______ _____ _____    ______ ____
ROOT
ATOM      1  C   UNL     1      -0.155   0.790   0.904  0.00  0.00    +0.014 C 
ATOM      2  C   UNL     1      -0.099  -0.732   0.750  0.00  0.00    -0.003 C 
ATOM      3  C   UNL     1       0.492  -1.155  -0.598  0.00  0.00    +0.010 C 
ATOM      4  C   UNL     1       1.992  -0.880  -0.633  0.00  0.00    +0.005 C 
ATOM      5  C   UNL     1       2.677  -1.722   0.450  0.00  0.00    +0.002 C 
ATOM      6  C   UNL     1       2.140  -1.297   1.814  0.00  0.00    -0.003 C 
ATOM      7  C   UNL     1       0.659  -1.409   1.904  0.00  0.00    +0.001 C 
ATOM      8  C   UNL     1       0.201  -2.874   1.873  0.00  0.00    +0.007 C 
ATOM      9  C   UNL     1      -1.191  -2.867   1.209  0.00  0.00    +0.032 C 
ATOM     10  C   UNL     1      -1.504  -1.395   0.863  0.00  0.00    +0.121 C 
ATOM     11  C   UNL     1       2.797  -2.144   2.909  0.00  0.00    +0.008 C 
ATOM     12  C   UNL     1       4.299  -1.853   2.940  0.00  0.00    +0.031 C 
ATOM     13  C   UNL     1       4.869  -2.100   1.554  0.00  0.00    -0.062 C 
ATOM     14  C   UNL     1       5.955  -2.858   1.459  0.00  0.00    +0.026 C 
ATOM     15  C   UNL     1       6.560  -3.116   0.141  0.00  0.00    +0.080 C 
ATOM     16  N   UNL     1       7.335  -4.133  -0.068  0.00  0.00    -0.089 NA
ATOM     17  C   UNL     1       6.225  -2.128  -0.959  0.00  0.00    +0.059 C 
ATOM     18  C   UNL     1       4.707  -1.950  -0.967  0.00  0.00    +0.017 C 
ATOM     19  C   UNL     1       4.190  -1.484   0.367  0.00  0.00    -0.007 C 
ATOM     20  C   UNL     1       4.435   0.025   0.427  0.00  0.00    +0.016 C 
ENDROOT
BRANCH  10  21
ATOM     21  O   UNL     1      -2.201  -1.309  -0.381  0.00  0.00    -0.391 OA
ATOM     22  H   UNL     1      -3.083  -1.707  -0.366  0.00  0.00    +0.210 HD
ENDBRANCH  10  21
BRANCH  16  23
ATOM     23  O   UNL     1       7.895  -4.345  -1.351  0.00  0.00    -0.384 OA
BRANCH  23  24
ATOM     24  C   UNL     1       8.729  -5.502  -1.438  0.00  0.00    +0.358 C 
BRANCH  24  25
ATOM     25  C   UNL     1       9.268  -5.629  -2.839  0.00  0.00    +0.254 C 
ATOM     26  O   UNL     1       8.968  -4.809  -3.681  0.00  0.00    -0.272 OA
ATOM     27  N   UNL     1      10.084  -6.654  -3.157  0.00  0.00    -0.309 N 
ATOM     28  H   UNL     1      10.383  -7.267  -2.468  0.00  0.00    +0.149 HD
BRANCH  27  29
ATOM     29  C   UNL     1      10.518  -6.841  -4.544  0.00  0.00    +0.087 C 
BRANCH  29  30
ATOM     30  C   UNL     1       9.922  -8.139  -5.094  0.00  0.00    +0.015 C 
ATOM     31  C   UNL     1      10.372  -8.334  -6.545  0.00  0.00    +0.033 C 
ATOM     32  C   UNL     1       9.708  -9.592  -7.112  0.00  0.00    +0.161 C 
ATOM     33  O   UNL     1       8.288  -9.465  -7.013  0.00  0.00    -0.374 OA
ATOM     34  C   UNL     1       7.806  -9.327  -5.675  0.00  0.00    +0.064 C 
ATOM     35  C   UNL     1       8.393  -8.060  -5.049  0.00  0.00    +0.040 C 
ATOM     36  C   UNL     1       8.230 -10.545  -4.852  0.00  0.00    +0.041 C 
ATOM     37  C   UNL     1       6.279  -9.228  -5.691  0.00  0.00    +0.041 C 
ENDBRANCH  29  30
BRANCH  29  38
ATOM     38  C   UNL     1      12.045  -6.921  -4.593  0.00  0.00    +0.147 C 
BRANCH  38  39
ATOM     39  C   UNL     1      12.631  -5.595  -4.179  0.00  0.00    +0.358 C 
ATOM     40  O   UNL     1      11.898  -4.642  -3.975  0.00  0.00    -0.246 OA
ATOM     41  O   UNL     1      13.837  -5.476  -4.048  0.00  0.00    -0.246 OA
ENDBRANCH  38  39
ENDBRANCH  29  38
ENDBRANCH  27  29
ENDBRANCH  24  25
ENDBRANCH  23  24
ENDBRANCH  16  23
TORSDOF 8
