REMARK  Name = ZINC09609065
REMARK  4 active torsions:
REMARK  status: ('A' for Active; 'I' for Inactive)
REMARK    1  A    between atoms: C_4  and  N_7
REMARK    2  A    between atoms: C_11  and  N_14
REMARK    3  A    between atoms: C_20  and  C_22
REMARK    4  A    between atoms: C_22  and  C_23
REMARK                            x       y       z     vdW  Elec       q    Type
REMARK                         _______ _______ _______ _____ _____    ______ ____
ROOT
ATOM      1  N   UNL     1       0.005  -0.004   0.020  0.00  0.00    -0.324 N 
ATOM      2  C   UNL     1      -0.865  -0.543  -1.034  0.00  0.00    +0.124 C 
ATOM      3  C   UNL     1      -0.677  -2.062  -1.119  0.00  0.00    +0.126 C 
ATOM      4  N   UNL     1      -0.892  -2.635   0.218  0.00  0.00    -0.298 N 
ATOM      5  C   UNL     1      -0.156  -2.054   1.351  0.00  0.00    +0.126 C 
ATOM      6  C   UNL     1      -0.364  -0.535   1.339  0.00  0.00    +0.124 C 
ATOM      7  C   UNL     1      -1.741  -3.666   0.401  0.00  0.00    +0.222 C 
ATOM      8  O   UNL     1      -1.906  -4.126   1.511  0.00  0.00    -0.275 OA
ENDROOT
BRANCH   1  13
ATOM      9  N   UNL     1      -0.077   4.119   0.024  0.00  0.00    -0.195 N 
ATOM     10  C   UNL     1       1.083   3.497  -0.264  0.00  0.00    +0.292 A 
ATOM     11  O   UNL     1       2.084   4.149  -0.518  0.00  0.00    -0.264 OA
ATOM     12  C   UNL     1       1.133   2.095  -0.271  0.00  0.00    +0.129 A 
ATOM     13  C   UNL     1      -0.015   1.381   0.020  0.00  0.00    +0.074 A 
ATOM     14  C   UNL     1      -1.208   2.076   0.310  0.00  0.00    +0.158 A 
ATOM     15  N   UNL     1      -1.228   3.380   0.315  0.00  0.00    -0.170 NA
ATOM     16 CL   UNL     1       2.615   1.269  -0.639  0.00  0.00    -0.076 Cl
BRANCH   9  20
ATOM     17  C   UNL     1      -0.235   8.283   0.047  0.00  0.00    +0.000 A 
ATOM     18  C   UNL     1      -1.196   7.559  -0.635  0.00  0.00    +0.002 A 
ATOM     19  C   UNL     1      -1.147   6.179  -0.645  0.00  0.00    +0.028 A 
ATOM     20  C   UNL     1      -0.130   5.518   0.032  0.00  0.00    +0.069 A 
ATOM     21  C   UNL     1       0.830   6.247   0.721  0.00  0.00    +0.028 A 
ATOM     22  C   UNL     1       0.779   7.627   0.722  0.00  0.00    +0.002 A 
ENDBRANCH   9  20
ENDBRANCH   1  13
BRANCH   7  23
ATOM     23  C   UNL     1      -2.485  -4.246  -0.774  0.00  0.00    +0.153 C 
BRANCH  23  24
ATOM     24  C   UNL     1      -3.362  -5.378  -0.304  0.00  0.00    +0.078 A 
ATOM     25  C   UNL     1      -4.195  -6.105  -1.262  0.00  0.00    +0.011 A 
ATOM     26  C   UNL     1      -4.199  -5.789  -2.622  0.00  0.00    +0.010 A 
ATOM     27  C   UNL     1      -4.990  -6.503  -3.480  0.00  0.00    +0.001 A 
ATOM     28  C   UNL     1      -5.787  -7.542  -3.018  0.00  0.00    +0.001 A 
ATOM     29  C   UNL     1      -5.800  -7.878  -1.682  0.00  0.00    +0.014 A 
ATOM     30  C   UNL     1      -5.001  -7.165  -0.789  0.00  0.00    +0.050 A 
ATOM     31  C   UNL     1      -4.969  -7.475   0.646  0.00  0.00    +0.272 A 
ATOM     32  O   UNL     1      -5.651  -8.377   1.101  0.00  0.00    -0.266 OA
ATOM     33  N   UNL     1      -4.172  -6.742   1.450  0.00  0.00    -0.242 N 
ATOM     34  H   UNL     1      -4.146  -6.942   2.399  0.00  0.00    +0.192 HD
ATOM     35  N   UNL     1      -3.382  -5.705   0.954  0.00  0.00    -0.175 NA
ENDBRANCH  23  24
ENDBRANCH   7  23
TORSDOF 4
