REMARK  Name = ZINC38651205
REMARK  9 active torsions:
REMARK  status: ('A' for Active; 'I' for Inactive)
REMARK    1  A    between atoms: C_1  and  C_2
REMARK    2  A    between atoms: C_2  and  C_4
REMARK    3  A    between atoms: C_2  and  O_28
REMARK    4  A    between atoms: C_4  and  O_6
REMARK    5  A    between atoms: O_6  and  C_7
REMARK    6  A    between atoms: C_14  and  N_27
REMARK    7  A    between atoms: C_15  and  C_25
REMARK    8  A    between atoms: C_16  and  C_18
REMARK    9  A    between atoms: O_28  and  C_29
REMARK                            x       y       z     vdW  Elec       q    Type
REMARK                         _______ _______ _______ _____ _____    ______ ____
ROOT
ATOM      1  C   UNL     1      -3.661  -0.577   0.876  0.00  0.00    +0.135 A 
ATOM      2  C   UNL     1      -4.013  -1.404  -0.182  0.00  0.00    +0.047 A 
ATOM      3  C   UNL     1      -5.302  -1.890  -0.279  0.00  0.00    +0.012 A 
ATOM      4  C   UNL     1      -6.247  -1.555   0.675  0.00  0.00    +0.008 A 
ATOM      5  C   UNL     1      -5.901  -0.730   1.733  0.00  0.00    +0.138 A 
ATOM      6  C   UNL     1      -4.603  -0.245   1.836  0.00  0.00    +0.093 A 
ATOM      7  O   UNL     1      -6.813  -0.391   2.678  0.00  0.00    -0.441 OA
ATOM      8  C   UNL     1      -8.125  -0.516   2.418  0.00  0.00    +0.199 C 
ATOM      9  C   UNL     1      -8.586  -1.309   1.422  0.00  0.00    +0.098 C 
ATOM     10  C   UNL     1      -7.647  -2.095   0.551  0.00  0.00    +0.098 C 
ENDROOT
BRANCH  10  11
ATOM     11  C   UNL     1      -7.663  -3.541   0.977  0.00  0.00    -0.033 A 
ATOM     12  C   UNL     1      -7.287  -3.888   2.261  0.00  0.00    +0.004 A 
ATOM     13  C   UNL     1      -7.301  -5.213   2.652  0.00  0.00    +0.002 A 
ATOM     14  C   UNL     1      -7.693  -6.193   1.760  0.00  0.00    +0.020 A 
ATOM     15  C   UNL     1      -8.070  -5.847   0.474  0.00  0.00    +0.041 A 
ATOM     16  C   UNL     1      -8.061  -4.519   0.085  0.00  0.00    +0.024 A 
ATOM     17 CL   UNL     1      -8.562  -7.077  -0.648  0.00  0.00    -0.084 Cl
ENDBRANCH  10  11
BRANCH   8  18
ATOM     18  N   UNL     1      -9.025   0.180   3.186  0.00  0.00    -0.328 N 
ATOM     19  H   UNL     1      -8.710   0.752   3.903  0.00  0.00    +0.145 HD
ATOM     20  H   UNL     1      -9.976   0.100   3.011  0.00  0.00    +0.145 HD
ENDBRANCH   8  18
BRANCH   9  21
ATOM     21  C   UNL     1      -9.997  -1.401   1.195  0.00  0.00    +0.101 C 
ATOM     22  N   UNL     1     -11.116  -1.474   1.014  0.00  0.00    -0.191 NA
ENDBRANCH   9  21
BRANCH   1  23
ATOM     23  O   UNL     1      -2.393  -0.097   0.973  0.00  0.00    -0.423 OA
BRANCH  23  24
ATOM     24  C   UNL     1      -2.032   0.900   0.150  0.00  0.00    +0.353 C 
ATOM     25  O   UNL     1      -2.850   1.407  -0.581  0.00  0.00    -0.246 OA
BRANCH  24  27
ATOM     26  C   UNL     1      -0.269   2.015   1.491  0.00  0.00    +0.064 C 
ATOM     27  C   UNL     1      -0.606   1.387   0.137  0.00  0.00    +0.279 C 
BRANCH  27  28
ATOM     28  O   UNL     1      -0.445   2.364  -0.893  0.00  0.00    -0.475 OA
BRANCH  28  29
ATOM     29  C   UNL     1       0.806   2.527  -1.399  0.00  0.00    +0.157 A 
ATOM     30  C   UNL     1       1.877   1.848  -0.837  0.00  0.00    +0.048 A 
ATOM     31  C   UNL     1       3.148   2.016  -1.353  0.00  0.00    +0.004 A 
ATOM     32  C   UNL     1       3.354   2.861  -2.428  0.00  0.00    +0.003 A 
ATOM     33  C   UNL     1       2.290   3.540  -2.991  0.00  0.00    +0.042 A 
ATOM     34  C   UNL     1       1.014   3.371  -2.483  0.00  0.00    +0.165 A 
ATOM     35  F   UNL     1      -0.027   4.030  -3.037  0.00  0.00    -0.202 F 
ENDBRANCH  28  29
ENDBRANCH  27  28
ENDBRANCH  24  27
ENDBRANCH  23  24
ENDBRANCH   1  23
TORSDOF 8
