REMARK  Name = ZINC05241798
REMARK  8 active torsions:
REMARK  status: ('A' for Active; 'I' for Inactive)
REMARK    1  A    between atoms: C_1  and  C_2
REMARK    2  A    between atoms: C_2  and  N_51
REMARK    3  A    between atoms: C_8  and  N_13
REMARK    4  A    between atoms: C_9  and  C_10
REMARK    5  A    between atoms: C_14  and  C_16
REMARK    6  A    between atoms: C_19  and  S_22
REMARK    7  A    between atoms: S_22  and  C_25
REMARK    8  A    between atoms: C_25  and  C_26
REMARK                            x       y       z     vdW  Elec       q    Type
REMARK                         _______ _______ _______ _____ _____    ______ ____
ROOT
ATOM      1  C   UNL     1       2.017   2.978  -3.634  0.00  0.00    -0.074 C 
ATOM      2  C   UNL     1       1.330   2.047  -2.631  0.00  0.00    +0.018 C 
ATOM      3  C   UNL     1       1.880   2.355  -1.243  0.00  0.00    -0.027 A 
ATOM      4  C   UNL     1       3.038   3.042  -1.109  0.00  0.00    -0.021 A 
ATOM      5  S   UNL     1       3.286   3.172   0.637  0.00  0.00    -0.079 S 
ATOM      6  C   UNL     1       1.873   2.331   1.184  0.00  0.00    +0.085 A 
ATOM      7  C   UNL     1       1.245   1.963   0.001  0.00  0.00    +0.068 A 
ATOM      8  C   UNL     1       3.895   3.563  -2.220  0.00  0.00    -0.035 C 
ATOM      9  N   UNL     1       3.482   2.880  -3.470  0.00  0.00    +0.383 N 
ATOM     10  H   UNL     1       3.747   1.890  -3.414  0.00  0.00    -0.081 HD
ENDROOT
BRANCH   7  11
ATOM     11  C   UNL     1      -0.014   1.213   0.009  0.00  0.00    +0.244 C 
ATOM     12  O   UNL     1       0.002  -0.004   0.002  0.00  0.00    -0.270 OA
ATOM     13  N   UNL     1      -1.191   1.871   0.018  0.00  0.00    -0.325 N 
ATOM     14  H   UNL     1      -2.024   1.375   0.019  0.00  0.00    +0.145 HD
ATOM     15  H   UNL     1      -1.204   2.841   0.023  0.00  0.00    +0.145 HD
ENDBRANCH   7  11
BRANCH   6  16
ATOM     16  N   UNL     1       1.469   2.083   2.486  0.00  0.00    -0.275 N 
ATOM     17  C   UNL     1       2.216   2.522   3.518  0.00  0.00    +0.249 C 
ATOM     18  O   UNL     1       3.244   3.136   3.307  0.00  0.00    -0.270 OA
ATOM     19  H   UNL     1       0.649   1.594   2.654  0.00  0.00    +0.156 HD
BRANCH  17  20
ATOM     20  C   UNL     1       1.784   2.258   4.907  0.00  0.00    +0.037 A 
ATOM     21  C   UNL     1       0.602   1.559   5.153  0.00  0.00    +0.015 A 
ATOM     22  C   UNL     1       0.208   1.310   6.451  0.00  0.00    +0.027 A 
ATOM     23  C   UNL     1       0.977   1.763   7.509  0.00  0.00    +0.088 A 
ATOM     24  C   UNL     1       2.147   2.462   7.272  0.00  0.00    +0.027 A 
ATOM     25  C   UNL     1       2.555   2.712   5.979  0.00  0.00    +0.015 A 
BRANCH  23  26
ATOM     26  S   UNL     1       0.463   1.448   9.165  0.00  0.00    -0.003 S 
ATOM     27  O   UNL     1      -0.332   0.273   9.080  0.00  0.00    -0.169 OA
ATOM     28  O   UNL     1       1.663   1.457   9.925  0.00  0.00    -0.169 OA
BRANCH  26  29
ATOM     29  C   UNL     1      -0.570   2.870   9.611  0.00  0.00    +0.168 C 
ATOM     30  C   UNL     1      -1.078   2.703  11.045  0.00  0.00    +0.028 C 
ENDBRANCH  26  29
ENDBRANCH  23  26
ENDBRANCH  17  20
ENDBRANCH   6  16
BRANCH   9  32
ATOM     31  C   UNL     1       3.710   4.944  -4.810  0.00  0.00    -0.017 C 
ATOM     32  C   UNL     1       4.163   3.494  -4.631  0.00  0.00    -0.082 C 
ENDBRANCH   9  32
TORSDOF 6
