REMARK  Name = ZINC11788852
REMARK  7 active torsions:
REMARK  status: ('A' for Active; 'I' for Inactive)
REMARK    1  A    between atoms: C_9  and  C_12
REMARK    2  A    between atoms: C_19  and  C_20
REMARK    3  A    between atoms: C_19  and  N_63
REMARK    4  A    between atoms: C_20  and  C_21
REMARK    5  A    between atoms: C_28  and  C_29
REMARK    6  A    between atoms: C_28  and  N_65
REMARK    7  A    between atoms: C_29  and  C_30
REMARK                            x       y       z     vdW  Elec       q    Type
REMARK                         _______ _______ _______ _____ _____    ______ ____
ROOT
ATOM      1  C   UNL     1       2.727  -0.387   6.756  0.00  0.00    +0.000 A 
ATOM      2  C   UNL     1       2.948  -0.123   8.095  0.00  0.00    +0.004 A 
ATOM      3  C   UNL     1       2.957   1.180   8.555  0.00  0.00    +0.046 A 
ATOM      4  C   UNL     1       2.742   2.224   7.666  0.00  0.00    +0.123 A 
ATOM      5  C   UNL     1       2.538   1.955   6.326  0.00  0.00    -0.022 A 
ATOM      6  C   UNL     1       2.522   0.654   5.868  0.00  0.00    +0.005 A 
ATOM      7  C   UNL     1       2.336   3.106   5.359  0.00  0.00    -0.039 C 
ATOM      8  C   UNL     1       1.138   4.732   6.720  0.00  0.00    -0.028 C 
ATOM      9  C   UNL     1       1.406   4.127   8.080  0.00  0.00    +0.190 C 
ATOM     10  O   UNL     1       2.698   3.508   8.115  0.00  0.00    -0.486 OA
ATOM     11  N   UNL     1       1.018   3.718   5.651  0.00  0.00    +0.385 N 
ATOM     12  H   UNL     1       0.376   2.981   5.966  0.00  0.00    -0.081 HD
ENDROOT
BRANCH   9  13
ATOM     13  C   UNL     1       1.347   5.210   9.126  0.00  0.00    +0.026 A 
ATOM     14  C   UNL     1       2.510   5.819   9.558  0.00  0.00    +0.010 A 
ATOM     15  C   UNL     1       2.456   6.813  10.517  0.00  0.00    +0.001 A 
ATOM     16  C   UNL     1       1.238   7.200  11.045  0.00  0.00    +0.003 A 
ATOM     17  C   UNL     1       0.073   6.593  10.614  0.00  0.00    +0.039 A 
ATOM     18  C   UNL     1       0.126   5.600   9.650  0.00  0.00    +0.130 A 
ATOM     19  F   UNL     1      -1.012   5.010   9.225  0.00  0.00    -0.205 F 
ENDBRANCH   9  13
BRANCH  11  20
ATOM     20  C   UNL     1       0.470   4.338   4.434  0.00  0.00    -0.069 C 
BRANCH  20  21
ATOM     21  C   UNL     1       0.112   3.227   3.444  0.00  0.00    +0.077 C 
BRANCH  21  22
ATOM     22  C   UNL     1      -0.480   3.835   2.199  0.00  0.00    +0.214 C 
ATOM     23  O   UNL     1      -0.603   5.039   2.111  0.00  0.00    -0.276 OA
ATOM     24  N   UNL     1      -0.872   3.042   1.182  0.00  0.00    -0.305 N 
ATOM     25  C   UNL     1      -0.731   1.581   1.268  0.00  0.00    +0.089 C 
ATOM     26  C   UNL     1      -0.013   1.086   0.008  0.00  0.00    -0.060 C 
ATOM     27  C   UNL     1      -0.705   3.040  -1.250  0.00  0.00    -0.060 C 
ATOM     28  C   UNL     1      -1.452   3.615  -0.042  0.00  0.00    +0.089 C 
ATOM     29  N   UNL     1      -0.753   1.564  -1.180  0.00  0.00    +0.382 N 
ATOM     30  H   UNL     1      -1.733   1.266  -1.103  0.00  0.00    -0.082 HD
BRANCH  29  31
ATOM     31  C   UNL     1      -0.170   0.981  -2.406  0.00  0.00    -0.069 C 
BRANCH  31  32
ATOM     32  C   UNL     1      -1.081   1.309  -3.590  0.00  0.00    +0.077 C 
BRANCH  32  33
ATOM     33  C   UNL     1      -0.512   0.702  -4.846  0.00  0.00    +0.209 C 
ATOM     34  O   UNL     1       0.521   0.069  -4.799  0.00  0.00    -0.276 OA
ATOM     35  N   UNL     1      -1.152   0.863  -6.021  0.00  0.00    -0.329 N 
ATOM     36  H   UNL     1      -1.978   1.369  -6.059  0.00  0.00    +0.145 HD
ATOM     37  H   UNL     1      -0.785   0.472  -6.830  0.00  0.00    +0.145 HD
ENDBRANCH  32  33
ENDBRANCH  31  32
ENDBRANCH  29  31
ENDBRANCH  21  22
ENDBRANCH  20  21
ENDBRANCH  11  20
TORSDOF 7
