REMARK  Name = ZINC24448968
REMARK  9 active torsions:
REMARK  status: ('A' for Active; 'I' for Inactive)
REMARK    1  A    between atoms: C_1  and  C_2
REMARK    2  A    between atoms: C_2  and  C_27
REMARK    3  A    between atoms: C_8  and  O_11
REMARK    4  A    between atoms: O_11  and  C_12
REMARK    5  A    between atoms: C_12  and  C_13
REMARK    6  A    between atoms: C_13  and  N_14
REMARK    7  A    between atoms: C_15  and  C_17
REMARK    8  A    between atoms: C_20  and  N_26
REMARK    9  A    between atoms: C_21  and  N_23
REMARK                            x       y       z     vdW  Elec       q    Type
REMARK                         _______ _______ _______ _____ _____    ______ ____
ROOT
ATOM      1  N   UNL     1       1.221  -4.905  -0.243  0.00  0.00    -0.308 N 
ATOM      2  C   UNL     1       0.050  -4.248  -0.126  0.00  0.00    +0.244 C 
ATOM      3  O   UNL     1      -0.994  -4.869  -0.072  0.00  0.00    -0.270 OA
ATOM      4  H   UNL     1       2.165  -4.343  -0.291  0.00  0.00    +0.149 HD
ENDROOT
BRANCH   2   5
ATOM      5  C   UNL     1       0.035  -2.774  -0.063  0.00  0.00    +0.039 A 
ATOM      6  C   UNL     1       1.234  -2.058  -0.125  0.00  0.00    +0.015 A 
ATOM      7  C   UNL     1       1.217  -0.683  -0.067  0.00  0.00    +0.026 A 
ATOM      8  C   UNL     1       0.007  -0.005   0.054  0.00  0.00    +0.055 A 
ATOM      9  C   UNL     1      -1.188  -0.716   0.120  0.00  0.00    +0.147 A 
ATOM     10  C   UNL     1      -1.178  -2.090   0.057  0.00  0.00    +0.047 A 
BRANCH   9  11
ATOM     11  N   UNL     1      -2.472   0.009   0.254  0.00  0.00    +0.058 N 
ATOM     12  O   UNL     1      -3.362  -0.451   0.947  0.00  0.00    -0.126 OA
ATOM     13  O   UNL     1      -2.639   1.065  -0.329  0.00  0.00    -0.126 OA
ENDBRANCH   9  11
BRANCH   8  14
ATOM     14  N   UNL     1      -0.007   1.384   0.113  0.00  0.00    -0.356 N 
ATOM     15  H   UNL     1      -0.963   1.921   0.208  0.00  0.00    +0.142 HD
ATOM     16  H   UNL     1       0.937   1.946   0.064  0.00  0.00    +0.142 HD
ENDBRANCH   8  14
ENDBRANCH   2   5
BRANCH   1  17
ATOM     17  C   UNL     1       1.236  -6.369  -0.305  0.00  0.00    +0.145 C 
BRANCH  17  18
ATOM     18  C   UNL     1       2.679  -6.859  -0.435  0.00  0.00    +0.248 C 
BRANCH  18  19
ATOM     19  O   UNL     1       3.405  -6.524   0.749  0.00  0.00    -0.487 OA
BRANCH  19  27
ATOM     20  C   UNL     1       5.650  -7.474   4.896  0.00  0.00    +0.056 C 
ATOM     21  C   UNL     1       6.091  -6.246   4.097  0.00  0.00    +0.109 C 
ATOM     22  C   UNL     1       7.376  -6.549   3.290  0.00  0.00    +0.086 C 
ATOM     23  C   UNL     1       6.811  -6.985   1.952  0.00  0.00    +0.002 A 
ATOM     24  C   UNL     1       7.375  -7.647   0.882  0.00  0.00    +0.007 A 
ATOM     25  C   UNL     1       6.612  -7.936  -0.235  0.00  0.00    +0.004 A 
ATOM     26  C   UNL     1       5.282  -7.558  -0.275  0.00  0.00    +0.049 A 
ATOM     27  C   UNL     1       4.714  -6.891   0.796  0.00  0.00    +0.162 A 
ATOM     28  C   UNL     1       5.483  -6.588   1.922  0.00  0.00    +0.166 A 
ATOM     29  O   UNL     1       5.136  -5.937   3.067  0.00  0.00    -0.482 OA
ATOM     30  C   UNL     1       6.301  -5.043   5.019  0.00  0.00    +0.056 C 
ENDBRANCH  19  27
ENDBRANCH  18  19
ENDBRANCH  17  18
ENDBRANCH   1  17
TORSDOF 7
