REMARK  Name = ZINC30960954
REMARK  9 active torsions:
REMARK  status: ('A' for Active; 'I' for Inactive)
REMARK    1  A    between atoms: C_1  and  C_2
REMARK    2  A    between atoms: C_2  and  C_3
REMARK    3  A    between atoms: C_2  and  C_4
REMARK    4  A    between atoms: C_4  and  C_6
REMARK    5  A    between atoms: C_4  and  N_21
REMARK    6  A    between atoms: N_8  and  N_9
REMARK    7  A    between atoms: C_10  and  C_11
REMARK    8  A    between atoms: C_13  and  N_18
REMARK    9  A    between atoms: C_22  and  C_24
REMARK                            x       y       z     vdW  Elec       q    Type
REMARK                         _______ _______ _______ _____ _____    ______ ____
ROOT
ATOM      1  C   UNL     1       0.327   1.370  -2.736  0.00  0.00    +0.253 C 
ATOM      2  O   UNL     1      -0.095   1.344  -3.873  0.00  0.00    -0.272 OA
ATOM      3  N   UNL     1       1.109   2.391  -2.332  0.00  0.00    -0.205 N 
ATOM      4  H   UNL     1       1.469   3.131  -3.062  0.00  0.00    +0.177 HD
ENDROOT
BRANCH   3   5
ATOM      5  N   UNL     1       1.462   2.510  -0.981  0.00  0.00    -0.188 NA
ATOM      6  C   UNL     1       2.113   3.554  -0.570  0.00  0.00    +0.139 C 
BRANCH   6   7
ATOM      7  C   UNL     1       1.989   4.833  -1.295  0.00  0.00    +0.015 A 
ATOM      8  C   UNL     1       0.730   5.396  -1.514  0.00  0.00    +0.043 A 
ATOM      9  C   UNL     1       0.622   6.592  -2.192  0.00  0.00    +0.127 A 
ATOM     10  C   UNL     1       1.756   7.235  -2.655  0.00  0.00    +0.034 A 
ATOM     11  C   UNL     1       3.007   6.684  -2.442  0.00  0.00    +0.023 A 
ATOM     12  C   UNL     1       3.132   5.489  -1.760  0.00  0.00    +0.050 A 
ATOM     13 CL   UNL     1       4.703   4.803  -1.488  0.00  0.00    -0.083 Cl
BRANCH   9  14
ATOM     14  N   UNL     1      -0.712   7.190  -2.425  0.00  0.00    +0.056 N 
ATOM     15  O   UNL     1      -1.712   6.626  -2.018  0.00  0.00    -0.126 OA
ATOM     16  O   UNL     1      -0.810   8.246  -3.024  0.00  0.00    -0.126 OA
ENDBRANCH   9  14
ENDBRANCH   6   7
ENDBRANCH   3   5
BRANCH   1  17
ATOM     17  C   UNL     1      -0.022   0.262  -1.777  0.00  0.00    +0.163 C 
BRANCH  17  18
ATOM     18  N   UNL     1      -1.347  -0.269  -2.105  0.00  0.00    -0.300 N 
ATOM     19  C   UNL     1      -2.085  -0.875  -1.154  0.00  0.00    +0.245 C 
ATOM     20  O   UNL     1      -1.651  -0.980  -0.023  0.00  0.00    -0.270 OA
ATOM     21  H   UNL     1      -1.740  -0.173  -3.128  0.00  0.00    +0.150 HD
BRANCH  19  22
ATOM     22  C   UNL     1      -3.422  -1.410  -1.485  0.00  0.00    +0.037 A 
ATOM     23  C   UNL     1      -3.926  -1.285  -2.781  0.00  0.00    +0.014 A 
ATOM     24  C   UNL     1      -5.171  -1.793  -3.086  0.00  0.00    +0.021 A 
ATOM     25  C   UNL     1      -5.927  -2.414  -2.106  0.00  0.00    +0.041 A 
ATOM     26  C   UNL     1      -5.436  -2.536  -0.817  0.00  0.00    +0.021 A 
ATOM     27  C   UNL     1      -4.189  -2.038  -0.502  0.00  0.00    +0.014 A 
ATOM     28 CL   UNL     1      -7.498  -3.044  -2.495  0.00  0.00    -0.084 Cl
ENDBRANCH  19  22
ENDBRANCH  17  18
BRANCH  17  30
ATOM     29  C   UNL     1       0.396  -2.178  -1.434  0.00  0.00    +0.009 C 
ATOM     30  C   UNL     1       1.017  -0.856  -1.889  0.00  0.00    +0.012 C 
ATOM     31  C   UNL     1       2.219  -0.525  -1.002  0.00  0.00    +0.009 C 
ENDBRANCH  17  30
ENDBRANCH   1  17
TORSDOF 7
