REMARK  Name = ZINC21512711
REMARK  10 active torsions:
REMARK  status: ('A' for Active; 'I' for Inactive)
REMARK    1  A    between atoms: C_1  and  C_2
REMARK    2  A    between atoms: C_2  and  C_4
REMARK    3  A    between atoms: C_2  and  O_8
REMARK    4  A    between atoms: C_4  and  C_5
REMARK    5  A    between atoms: C_5  and  C_6
REMARK    6  A    between atoms: C_5  and  C_7
REMARK    7  A    between atoms: O_8  and  C_9
REMARK    8  A    between atoms: C_9  and  C_10
REMARK    9  A    between atoms: N_12  and  C_13
REMARK   10  A    between atoms: C_14  and  N_21
REMARK                            x       y       z     vdW  Elec       q    Type
REMARK                         _______ _______ _______ _____ _____    ______ ____
ROOT
ATOM      1  C   UNL     1      -2.929  -2.207  -2.020  0.00  0.00    +0.243 C 
ATOM      2  O   UNL     1      -3.035  -3.344  -1.611  0.00  0.00    -0.273 OA
ATOM      3  N   UNL     1      -4.032  -1.472  -2.264  0.00  0.00    -0.281 N 
ATOM      4  H   UNL     1      -3.947  -0.540  -2.521  0.00  0.00    +0.155 HD
ENDROOT
BRANCH   3   5
ATOM      5  C   UNL     1      -5.302  -2.054  -2.147  0.00  0.00    +0.073 A 
ATOM      6  C   UNL     1      -5.877  -2.704  -3.239  0.00  0.00    +0.049 A 
ATOM      7  C   UNL     1      -7.133  -3.279  -3.117  0.00  0.00    +0.044 A 
ATOM      8  C   UNL     1      -7.813  -3.207  -1.915  0.00  0.00    +0.044 A 
ATOM      9  C   UNL     1      -7.244  -2.562  -0.831  0.00  0.00    +0.042 A 
ATOM     10  C   UNL     1      -5.988  -1.991  -0.943  0.00  0.00    +0.065 A 
ATOM     11 CL   UNL     1      -5.274  -1.189   0.421  0.00  0.00    -0.082 Cl
ATOM     12 CL   UNL     1      -9.386  -3.926  -1.765  0.00  0.00    -0.083 Cl
BRANCH   6  13
ATOM     13  N   UNL     1      -5.188  -2.776  -4.454  0.00  0.00    -0.356 N 
ATOM     14  H   UNL     1      -4.309  -2.374  -4.538  0.00  0.00    +0.142 HD
ATOM     15  H   UNL     1      -5.589  -3.229  -5.213  0.00  0.00    +0.142 HD
ENDBRANCH   6  13
ENDBRANCH   3   5
BRANCH   1  16
ATOM     16  C   UNL     1      -1.562  -1.615  -2.255  0.00  0.00    +0.256 C 
BRANCH  16  17
ATOM     17  O   UNL     1      -0.562  -2.581  -1.926  0.00  0.00    -0.368 OA
BRANCH  17  19
ATOM     18  C   UNL     1       1.277  -1.468  -0.823  0.00  0.00    +0.038 C 
ATOM     19  C   UNL     1       0.777  -2.119  -2.114  0.00  0.00    +0.116 C 
BRANCH  19  20
ATOM     20  C   UNL     1       1.679  -3.301  -2.472  0.00  0.00    +0.034 C 
BRANCH  20  21
ATOM     21  C   UNL     1       1.255  -3.875  -3.825  0.00  0.00    -0.015 C 
ATOM     22  C   UNL     1       1.499  -2.834  -4.919  0.00  0.00    +0.007 C 
ATOM     23  C   UNL     1       2.074  -5.132  -4.126  0.00  0.00    +0.007 C 
ENDBRANCH  20  21
ENDBRANCH  19  20
ENDBRANCH  17  19
ENDBRANCH  16  17
ENDBRANCH   1  16
TORSDOF 7
