REMARK  Name = ZINC00803790
REMARK  10 active torsions:
REMARK  status: ('A' for Active; 'I' for Inactive)
REMARK    1  A    between atoms: C_1  and  C_2
REMARK    2  A    between atoms: C_2  and  C_3
REMARK    3  A    between atoms: C_2  and  C_4
REMARK    4  A    between atoms: C_2  and  O_5
REMARK    5  A    between atoms: O_5  and  C_6
REMARK    6  A    between atoms: C_15  and  C_27
REMARK    7  A    between atoms: C_17  and  C_23
REMARK    8  A    between atoms: C_17  and  C_25
REMARK    9  A    between atoms: C_18  and  N_22
REMARK   10  A    between atoms: C_19  and  C_20
REMARK                            x       y       z     vdW  Elec       q    Type
REMARK                         _______ _______ _______ _____ _____    ______ ____
ROOT
ATOM      1  C   UNL     1       2.122  -0.456   3.846  0.00  0.00    +0.404 C 
ATOM      2  O   UNL     1       0.938  -0.314   3.618  0.00  0.00    -0.226 OA
ATOM      3  N   UNL     1       3.018   0.401   3.317  0.00  0.00    -0.263 N 
ATOM      4  C   UNL     1       4.463   0.258   3.575  0.00  0.00    +0.138 C 
ATOM      5  C   UNL     1       5.143   0.156   2.232  0.00  0.00    -0.003 C 
ATOM      6  C   UNL     1       4.621   0.715   1.159  0.00  0.00    -0.026 C 
ATOM      7  C   UNL     1       3.354   1.516   1.156  0.00  0.00    +0.048 C 
ATOM      8  C   UNL     1       2.598   1.515   2.461  0.00  0.00    +0.120 C 
ATOM      9  C   UNL     1       2.490   1.047  -0.015  0.00  0.00    +0.068 C 
ATOM     10  C   UNL     1       3.225   1.339  -1.324  0.00  0.00    +0.188 C 
ATOM     11  C   UNL     1       4.634   0.829  -1.294  0.00  0.00    +0.054 C 
ATOM     12  C   UNL     1       5.307   0.543  -0.150  0.00  0.00    +0.074 C 
ENDROOT
BRANCH   9  13
ATOM     13  C   UNL     1       1.175   1.783   0.000  0.00  0.00    -0.038 A 
ATOM     14  C   UNL     1      -0.005   1.094  -0.208  0.00  0.00    +0.007 A 
ATOM     15  C   UNL     1      -1.212   1.767  -0.195  0.00  0.00    +0.041 A 
ATOM     16  C   UNL     1      -1.240   3.133   0.027  0.00  0.00    +0.158 A 
ATOM     17  C   UNL     1      -0.057   3.824   0.241  0.00  0.00    +0.159 A 
ATOM     18  C   UNL     1       1.150   3.147   0.222  0.00  0.00    +0.045 A 
ATOM     19  F   UNL     1      -0.083   5.156   0.463  0.00  0.00    -0.202 F 
ATOM     20  F   UNL     1      -2.420   3.792   0.039  0.00  0.00    -0.202 F 
ENDBRANCH   9  13
BRANCH  11  21
ATOM     21  N   UNL     1       5.277   0.640  -2.484  0.00  0.00    -0.358 N 
ATOM     22  H   UNL     1       6.312   0.267  -2.498  0.00  0.00    +0.142 HD
ATOM     23  H   UNL     1       4.761   0.862  -3.430  0.00  0.00    +0.142 HD
ENDBRANCH  11  21
BRANCH  12  24
ATOM     24  C   UNL     1       6.661   0.082  -0.203  0.00  0.00    +0.101 C 
ATOM     25  N   UNL     1       7.736  -0.284  -0.245  0.00  0.00    -0.191 NA
ENDBRANCH  12  24
BRANCH  10  26
ATOM     26  C   UNL     1       2.505   0.694  -2.434  0.00  0.00    +0.091 C 
ATOM     27  N   UNL     1       1.949   0.196  -3.290  0.00  0.00    -0.194 NA
ENDBRANCH  10  26
BRANCH  10  28
ATOM     28  C   UNL     1       3.248   2.793  -1.547  0.00  0.00    +0.091 C 
ATOM     29  N   UNL     1       3.265   3.916  -1.720  0.00  0.00    -0.194 NA
ENDBRANCH  10  28
BRANCH   1  30
ATOM     30  O   UNL     1       2.540  -1.468   4.629  0.00  0.00    -0.445 OA
BRANCH  30  32
ATOM     31  C   UNL     1       0.758  -3.010   4.012  0.00  0.00    +0.055 C 
ATOM     32  C   UNL     1       1.520  -2.352   5.165  0.00  0.00    +0.107 C 
ATOM     33  C   UNL     1       2.180  -3.433   6.023  0.00  0.00    +0.055 C 
ATOM     34  C   UNL     1       0.545  -1.543   6.024  0.00  0.00    +0.055 C 
ENDBRANCH  30  32
ENDBRANCH   1  30
TORSDOF 7
