REMARK  Name = ZINC52540208
REMARK  4 active torsions:
REMARK  status: ('A' for Active; 'I' for Inactive)
REMARK    1  A    between atoms: C_7  and  C_12
REMARK    2  A    between atoms: C_8  and  C_10
REMARK    3  A    between atoms: C_10  and  N_11
REMARK    4  A    between atoms: C_12  and  N_13
REMARK                            x       y       z     vdW  Elec       q    Type
REMARK                         _______ _______ _______ _____ _____    ______ ____
ROOT
ATOM      1  C   UNL     1      -0.017   1.363   0.009  0.00  0.00    +0.001 A 
ATOM      2  C   UNL     1       1.170   2.082   0.002  0.00  0.00    +0.004 A 
ATOM      3  C   UNL     1       2.386   1.432  -0.013  0.00  0.00    +0.047 A 
ATOM      4  C   UNL     1       2.427   0.043  -0.021  0.00  0.00    +0.135 A 
ATOM      5  C   UNL     1       1.222  -0.679  -0.013  0.00  0.00    +0.025 A 
ATOM      6  C   UNL     1       0.002  -0.004   0.002  0.00  0.00    +0.012 A 
ATOM      7  C   UNL     1       1.613  -2.093  -0.025  0.00  0.00    +0.013 A 
ATOM      8  C   UNL     1       2.952  -2.111  -0.038  0.00  0.00    +0.093 A 
ATOM      9  O   UNL     1       3.432  -0.855  -0.036  0.00  0.00    -0.461 OA
ENDROOT
BRANCH   8  10
ATOM     10  C   UNL     1       3.799  -3.358  -0.053  0.00  0.00    -0.010 C 
BRANCH  10  11
ATOM     11  N   UNL     1       4.060  -3.756  -1.443  0.00  0.00    +0.383 N 
ATOM     12  H   UNL     1       4.627  -4.590  -1.453  0.00  0.00    -0.089 HD
ATOM     13  H   UNL     1       3.185  -3.938  -1.911  0.00  0.00    -0.089 HD
ATOM     14  H   UNL     1       4.548  -3.012  -1.919  0.00  0.00    -0.089 HD
ENDBRANCH  10  11
ENDBRANCH   8  10
BRANCH   7  15
ATOM     15  C   UNL     1       0.692  -3.286  -0.022  0.00  0.00    +0.124 C 
BRANCH  15  16
ATOM     16  N   UNL     1       0.379  -3.667  -1.406  0.00  0.00    -0.290 NA
ATOM     17  C   UNL     1      -0.367  -2.602  -2.089  0.00  0.00    +0.113 C 
ATOM     18  C   UNL     1      -0.588  -3.029  -3.545  0.00  0.00    +0.175 C 
ATOM     19  O   UNL     1      -1.334  -4.245  -3.552  0.00  0.00    -0.374 OA
ATOM     20  C   UNL     1      -0.710  -5.345  -2.885  0.00  0.00    +0.135 C 
ATOM     21  C   UNL     1      -0.311  -4.946  -1.451  0.00  0.00    +0.086 C 
ATOM     22  C   UNL     1      -1.632  -4.914  -0.668  0.00  0.00    +0.021 C 
ATOM     23  C   UNL     1      -2.599  -5.848  -1.421  0.00  0.00    +0.004 C 
ATOM     24  C   UNL     1      -1.819  -6.405  -2.631  0.00  0.00    +0.033 C 
ENDBRANCH  15  16
ENDBRANCH   7  15
TORSDOF 4
