REMARK  Name = ZINC10297771
REMARK  4 active torsions:
REMARK  status: ('A' for Active; 'I' for Inactive)
REMARK    1  A    between atoms: C_6  and  C_7
REMARK    2  A    between atoms: N_11  and  C_19
REMARK    3  A    between atoms: C_13  and  C_14
REMARK    4  A    between atoms: C_13  and  C_16
REMARK                            x       y       z     vdW  Elec       q    Type
REMARK                         _______ _______ _______ _____ _____    ______ ____
ROOT
ATOM      1  C   UNL     1       1.145   3.626  -0.081  0.00  0.00    +0.028 C 
ATOM      2  C   UNL     1       2.326   4.280   0.057  0.00  0.00    +0.079 A 
ATOM      3  C   UNL     1       2.599   5.731   0.064  0.00  0.00    +0.266 A 
ATOM      4  O   UNL     1       1.706   6.548  -0.066  0.00  0.00    -0.266 OA
ATOM      5  N   UNL     1       3.859   6.102   0.222  0.00  0.00    -0.297 N 
ATOM      6  C   UNL     1       4.854   5.168   0.360  0.00  0.00    +0.112 A 
ATOM      7  C   UNL     1       6.225   5.378   0.528  0.00  0.00    +0.158 C 
ATOM      8  S   UNL     1       3.972   3.618   0.273  0.00  0.00    -0.064 S 
ENDROOT
BRANCH   1  14
ATOM      9  C   UNL     1      -0.077   1.466  -0.238  0.00  0.00    +0.009 A 
ATOM     10  C   UNL     1      -0.083   0.101  -0.432  0.00  0.00    +0.022 A 
ATOM     11  C   UNL     1       1.102  -0.573  -0.676  0.00  0.00    +0.059 A 
ATOM     12  C   UNL     1       2.303   0.119  -0.727  0.00  0.00    +0.060 A 
ATOM     13  C   UNL     1       2.325   1.484  -0.535  0.00  0.00    +0.029 A 
ATOM     14  C   UNL     1       1.131   2.171  -0.287  0.00  0.00    -0.022 A 
ATOM     15 CL   UNL     1       3.783  -0.736  -1.034  0.00  0.00    -0.082 Cl
ATOM     16 CL   UNL     1       1.084  -2.292  -0.919  0.00  0.00    -0.082 Cl
ENDBRANCH   1  14
BRANCH   5  17
ATOM     17  C   UNL     1       4.196   7.527   0.243  0.00  0.00    +0.091 C 
ATOM     18  C   UNL     1       3.584   8.415  -0.843  0.00  0.00    +0.027 C 
ATOM     19  C   UNL     1       5.073   8.063  -0.891  0.00  0.00    +0.027 C 
ENDBRANCH   5  17
BRANCH   7  20
ATOM     20  C   UNL     1       7.133   4.273   0.459  0.00  0.00    +0.113 C 
ATOM     21  N   UNL     1       7.853   3.397   0.403  0.00  0.00    -0.190 NA
ENDBRANCH   7  20
BRANCH   7  22
ATOM     22  C   UNL     1       6.722   6.699   0.771  0.00  0.00    +0.113 C 
ATOM     23  N   UNL     1       7.116   7.747   0.963  0.00  0.00    -0.190 NA
ENDBRANCH   7  22
TORSDOF 4
