REMARK  Name = ZINC04325945
REMARK  7 active torsions:
REMARK  status: ('A' for Active; 'I' for Inactive)
REMARK    1  A    between atoms: C_1  and  S_2
REMARK    2  A    between atoms: S_2  and  C_3
REMARK    3  A    between atoms: C_4  and  C_24
REMARK    4  A    between atoms: C_5  and  S_10
REMARK    5  A    between atoms: S_10  and  C_11
REMARK    6  A    between atoms: C_11  and  C_12
REMARK    7  A    between atoms: C_12  and  C_14
REMARK                            x       y       z     vdW  Elec       q    Type
REMARK                         _______ _______ _______ _____ _____    ______ ____
ROOT
ATOM      1  S   UNL     1       2.131  -3.719   3.481  0.00  0.00    -0.097 S 
ENDROOT
BRANCH   1   4
ATOM      2  C   UNL     1       0.877  -0.427   1.472  0.00  0.00    +0.120 A 
ATOM      3  C   UNL     1       1.104  -1.777   1.808  0.00  0.00    +0.115 A 
ATOM      4  C   UNL     1       1.810  -2.055   2.997  0.00  0.00    +0.121 A 
ATOM      5  N   UNL     1       2.229  -1.040   3.747  0.00  0.00    -0.207 NA
ATOM      6  C   UNL     1       1.992   0.214   3.392  0.00  0.00    +0.215 A 
ATOM      7  N   UNL     1       1.338   0.522   2.281  0.00  0.00    -0.207 NA
ATOM      8  N   UNL     1       2.447   1.235   4.203  0.00  0.00    -0.327 N 
ATOM      9  H   UNL     1       2.931   1.028   5.017  0.00  0.00    +0.145 HD
ATOM     10  H   UNL     1       2.282   2.159   3.958  0.00  0.00    +0.145 HD
BRANCH   2  12
ATOM     11  C   UNL     1      -0.022   1.810   0.012  0.00  0.00    +0.091 C 
ATOM     12  S   UNL     1       0.002  -0.004   0.002  0.00  0.00    -0.108 S 
ENDBRANCH   2  12
BRANCH   3  13
ATOM     13  C   UNL     1       0.632  -2.836   0.967  0.00  0.00    +0.104 C 
ATOM     14  N   UNL     1       0.258  -3.675   0.299  0.00  0.00    -0.191 NA
ENDBRANCH   3  13
ENDBRANCH   1   4
BRANCH   1  15
ATOM     15  C   UNL     1       3.045  -3.554   5.039  0.00  0.00    +0.150 C 
BRANCH  15  16
ATOM     16  C   UNL     1       3.386  -4.923   5.568  0.00  0.00    +0.150 C 
ATOM     17  O   UNL     1       3.048  -5.908   4.957  0.00  0.00    -0.296 OA
BRANCH  16  18
ATOM     18  C   UNL     1       4.150  -5.063   6.860  0.00  0.00    +0.031 C 
ATOM     19  C   UNL     1       5.507  -4.369   6.728  0.00  0.00    +0.018 C 
ATOM     20  C   UNL     1       6.282  -4.510   8.040  0.00  0.00    -0.010 C 
ATOM     21  C   UNL     1       6.496  -5.994   8.348  0.00  0.00    +0.007 C 
ATOM     22  C   UNL     1       5.139  -6.688   8.480  0.00  0.00    -0.010 C 
ATOM     23  C   UNL     1       4.364  -6.546   7.168  0.00  0.00    +0.018 C 
ATOM     24  C   UNL     1       4.343  -6.041   9.615  0.00  0.00    +0.007 C 
ATOM     25  C   UNL     1       4.129  -4.557   9.307  0.00  0.00    -0.010 C 
ATOM     26  C   UNL     1       5.486  -3.863   9.175  0.00  0.00    +0.007 C 
ATOM     27  C   UNL     1       3.354  -4.415   7.995  0.00  0.00    +0.018 C 
ENDBRANCH  16  18
ENDBRANCH  15  16
ENDBRANCH   1  15
TORSDOF 6
