REMARK  Name = ZINC32093467
REMARK  6 active torsions:
REMARK  status: ('A' for Active; 'I' for Inactive)
REMARK    1  A    between atoms: C_1  and  C_2
REMARK    2  A    between atoms: C_5  and  S_8
REMARK    3  A    between atoms: S_8  and  N_11
REMARK    4  A    between atoms: N_14  and  C_17
REMARK    5  A    between atoms: C_17  and  C_19
REMARK    6  A    between atoms: C_17  and  C_30
REMARK                            x       y       z     vdW  Elec       q    Type
REMARK                         _______ _______ _______ _____ _____    ______ ____
ROOT
ATOM      1  N   UNL     1       1.593  -3.935  -0.420  0.00  0.00    -0.174 NA
ATOM      2  C   UNL     1       2.346  -4.386  -1.600  0.00  0.00    +0.125 C 
ATOM      3  C   UNL     1       3.805  -3.947  -1.444  0.00  0.00    +0.102 C 
ATOM      4  N   UNL     1       4.324  -4.428  -0.157  0.00  0.00    -0.284 NA
ATOM      5  C   UNL     1       3.595  -3.828   0.969  0.00  0.00    +0.102 C 
ATOM      6  C   UNL     1       2.129  -4.257   0.912  0.00  0.00    +0.125 C 
ENDROOT
BRANCH   1   7
ATOM      7  S   UNL     1       0.184  -3.082  -0.585  0.00  0.00    +0.061 S 
ATOM      8  O   UNL     1      -0.552  -3.277   0.615  0.00  0.00    -0.153 OA
ATOM      9  O   UNL     1      -0.342  -3.410  -1.864  0.00  0.00    -0.153 OA
BRANCH   7  14
ATOM     10  C   UNL     1       1.649   2.768  -0.775  0.00  0.00    +0.044 C 
ATOM     11  C   UNL     1       1.283   1.307  -0.728  0.00  0.00    -0.050 A 
ATOM     12  C   UNL     1       1.218   0.573  -1.897  0.00  0.00    +0.005 A 
ATOM     13  C   UNL     1       0.882  -0.767  -1.853  0.00  0.00    +0.029 A 
ATOM     14  C   UNL     1       0.613  -1.373  -0.640  0.00  0.00    +0.105 A 
ATOM     15  C   UNL     1       0.679  -0.639   0.529  0.00  0.00    +0.029 A 
ATOM     16  C   UNL     1       1.019   0.700   0.486  0.00  0.00    +0.005 A 
ENDBRANCH   7  14
ENDBRANCH   1   7
BRANCH   4  17
ATOM     17  C   UNL     1       5.766  -4.177  -0.043  0.00  0.00    +0.203 C 
BRANCH  17  18
ATOM     18  C   UNL     1       6.482  -4.832  -1.196  0.00  0.00    +0.006 A 
ATOM     19  C   UNL     1       6.076  -5.915  -1.877  0.00  0.00    +0.089 A 
ATOM     20  N   UNL     1       6.983  -6.218  -2.856  0.00  0.00    -0.360 N 
ATOM     21  H   UNL     1       6.905  -6.959  -3.478  0.00  0.00    +0.165 HD
ATOM     22  C   UNL     1       8.022  -5.315  -2.828  0.00  0.00    +0.048 A 
ATOM     23  C   UNL     1       7.751  -4.404  -1.790  0.00  0.00    +0.005 A 
ATOM     24  C   UNL     1       8.642  -3.362  -1.528  0.00  0.00    +0.012 A 
ATOM     25  C   UNL     1       9.773  -3.229  -2.284  0.00  0.00    +0.021 A 
ATOM     26  C   UNL     1      10.043  -4.124  -3.312  0.00  0.00    +0.043 A 
ATOM     27  C   UNL     1       9.180  -5.164  -3.583  0.00  0.00    +0.046 A 
ATOM     28 CL   UNL     1      11.486  -3.935  -4.259  0.00  0.00    -0.083 Cl
ENDBRANCH  17  18
BRANCH  17  29
ATOM     29  C   UNL     1       6.275  -4.750   1.255  0.00  0.00    +0.377 C 
ATOM     30  O   UNL     1       5.640  -5.619   1.828  0.00  0.00    -0.244 OA
ATOM     31  O   UNL     1       7.322  -4.345   1.731  0.00  0.00    -0.244 OA
ENDBRANCH  17  29
ENDBRANCH   4  17
TORSDOF 5
