REMARK  Name = ZINC33624103
REMARK  8 active torsions:
REMARK  status: ('A' for Active; 'I' for Inactive)
REMARK    1  A    between atoms: C_1  and  C_2
REMARK    2  A    between atoms: C_4  and  C_17
REMARK    3  A    between atoms: C_5  and  C_16
REMARK    4  A    between atoms: N_6  and  C_7
REMARK    5  A    between atoms: C_10  and  C_13
REMARK    6  A    between atoms: C_13  and  C_14
REMARK    7  A    between atoms: C_13  and  C_15
REMARK    8  A    between atoms: C_29  and  C_30
REMARK                            x       y       z     vdW  Elec       q    Type
REMARK                         _______ _______ _______ _____ _____    ______ ____
ROOT
ATOM      1  C   UNL     1       0.063  -3.339  -1.427  0.00  0.00    +0.026 C 
ATOM      2  C   UNL     1      -0.628  -3.364  -2.622  0.00  0.00    +0.085 A 
ATOM      3  C   UNL     1      -0.745  -4.605  -3.436  0.00  0.00    +0.160 A 
ATOM      4  N   UNL     1      -0.810  -5.803  -2.916  0.00  0.00    -0.281 NA
ATOM      5  N   UNL     1      -0.780  -4.360  -4.824  0.00  0.00    -0.212 N 
ATOM      6  C   UNL     1      -1.223  -3.121  -5.244  0.00  0.00    +0.199 A 
ATOM      7  N   UNL     1      -1.500  -2.087  -4.498  0.00  0.00    -0.182 NA
ATOM      8  C   UNL     1      -1.299  -2.157  -3.161  0.00  0.00    +0.283 A 
ATOM      9  O   UNL     1      -1.654  -1.255  -2.422  0.00  0.00    -0.265 OA
ATOM     10  S   UNL     1      -1.303  -3.296  -7.006  0.00  0.00    -0.031 S 
ATOM     11  C   UNL     1      -0.638  -4.950  -7.122  0.00  0.00    +0.101 A 
ATOM     12  N   UNL     1      -0.414  -5.265  -5.800  0.00  0.00    -0.283 N 
ATOM     13  C   UNL     1      -0.409  -5.707  -8.234  0.00  0.00    +0.102 C 
ATOM     14  H   UNL     1      -0.886  -6.579  -3.493  0.00  0.00    +0.188 HD
ATOM     15  H   UNL     1      -0.005  -6.110  -5.558  0.00  0.00    +0.188 HD
ENDROOT
BRANCH  13  16
ATOM     16  C   UNL     1       0.125  -6.999  -8.107  0.00  0.00    +0.242 C 
ATOM     17  O   UNL     1       0.297  -7.481  -7.000  0.00  0.00    -0.271 OA
ATOM     18  N   UNL     1       0.449  -7.706  -9.208  0.00  0.00    -0.294 N 
ATOM     19  C   UNL     1       1.112  -9.015  -9.099  0.00  0.00    +0.136 C 
ATOM     20  C   UNL     1       0.336 -10.023  -9.955  0.00  0.00    +0.179 C 
ATOM     21  O   UNL     1       0.180  -9.497 -11.275  0.00  0.00    -0.377 OA
ATOM     22  C   UNL     1      -0.580  -8.288 -11.338  0.00  0.00    +0.179 C 
ATOM     23  C   UNL     1       0.144  -7.194 -10.553  0.00  0.00    +0.136 C 
ENDBRANCH  13  16
BRANCH   1  27
ATOM     24  C   UNL     1       1.150   1.513  -0.536  0.00  0.00    +0.064 C 
ATOM     25  C   UNL     1       0.778   0.061  -0.379  0.00  0.00    +0.022 A 
ATOM     26  C   UNL     1       0.671  -0.827  -1.381  0.00  0.00    +0.031 A 
ATOM     27  C   UNL     1       0.292  -2.106  -0.765  0.00  0.00    -0.003 A 
ATOM     28  C   UNL     1       0.203  -1.860   0.596  0.00  0.00    +0.028 A 
ATOM     29  N   UNL     1       0.503  -0.563   0.806  0.00  0.00    -0.317 N 
ATOM     30  C   UNL     1      -0.159  -2.868   1.655  0.00  0.00    +0.064 C 
BRANCH  29  31
ATOM     31  C   UNL     1       0.526   0.059   2.062  0.00  0.00    +0.047 A 
ATOM     32  C   UNL     1       1.463  -0.325   3.011  0.00  0.00    +0.026 A 
ATOM     33  C   UNL     1       1.483   0.290   4.248  0.00  0.00    +0.006 A 
ATOM     34  C   UNL     1       0.571   1.287   4.541  0.00  0.00    -0.045 A 
ATOM     35  C   UNL     1      -0.364   1.672   3.597  0.00  0.00    +0.006 A 
ATOM     36  C   UNL     1      -0.385   1.065   2.357  0.00  0.00    +0.026 A 
BRANCH  34  37
ATOM     37  C   UNL     1       0.596   1.956   5.891  0.00  0.00    +0.013 C 
ATOM     38  C   UNL     1       0.844   3.455   5.713  0.00  0.00    +0.012 C 
ATOM     39  C   UNL     1      -0.748   1.741   6.591  0.00  0.00    +0.012 C 
ENDBRANCH  34  37
ENDBRANCH  29  31
ENDBRANCH   1  27
TORSDOF 4
