REMARK  Name = ZINC47152402
REMARK  7 active torsions:
REMARK  status: ('A' for Active; 'I' for Inactive)
REMARK    1  A    between atoms: C_1  and  C_2
REMARK    2  A    between atoms: C_2  and  C_4
REMARK    3  A    between atoms: C_2  and  N_16
REMARK    4  A    between atoms: N_6  and  C_7
REMARK    5  A    between atoms: C_10  and  N_13
REMARK    6  A    between atoms: C_20  and  C_21
REMARK    7  A    between atoms: C_26  and  O_27
REMARK                            x       y       z     vdW  Elec       q    Type
REMARK                         _______ _______ _______ _____ _____    ______ ____
ROOT
ATOM      1  N   UNL     1       1.169  -1.120   0.894  0.00  0.00    -0.244 N 
ATOM      2  C   UNL     1       0.423  -1.598   1.876  0.00  0.00    +0.259 C 
ATOM      3  O   UNL     1      -0.753  -1.862   1.714  0.00  0.00    -0.269 OA
ATOM      4  C   UNL     1       1.091  -1.794   3.178  0.00  0.00    +0.077 C 
ATOM      5  C   UNL     1       0.585  -2.263   4.348  0.00  0.00    +0.032 C 
ATOM      6  S   UNL     1       2.748  -1.247   2.792  0.00  0.00    -0.061 S 
ATOM      7  C   UNL     1       2.475  -0.834   1.076  0.00  0.00    +0.121 C 
ATOM      8  S   UNL     1       3.597  -0.220  -0.061  0.00  0.00    -0.027 S 
ENDROOT
BRANCH   5   9
ATOM      9  C   UNL     1       1.475  -2.497   5.491  0.00  0.00    +0.019 A 
ATOM     10  C   UNL     1       2.856  -2.615   5.296  0.00  0.00    +0.031 A 
ATOM     11  C   UNL     1       3.685  -2.835   6.375  0.00  0.00    +0.042 A 
ATOM     12  C   UNL     1       3.157  -2.939   7.653  0.00  0.00    +0.023 A 
ATOM     13  C   UNL     1       1.796  -2.824   7.860  0.00  0.00    +0.047 A 
ATOM     14  C   UNL     1       0.947  -2.597   6.789  0.00  0.00    +0.124 A 
ATOM     15 CL   UNL     1       5.398  -2.982   6.133  0.00  0.00    -0.084 Cl
BRANCH  14  16
ATOM     16  O   UNL     1      -0.390  -2.477   6.992  0.00  0.00    -0.506 OA
ATOM     17  H   UNL     1      -0.871  -3.315   6.945  0.00  0.00    +0.292 HD
ENDBRANCH  14  16
ENDBRANCH   5   9
BRANCH   1  19
ATOM     18  C   UNL     1       0.687   0.576  -0.801  0.00  0.00    +0.038 C 
ATOM     19  C   UNL     1       0.566  -0.902  -0.423  0.00  0.00    +0.166 C 
BRANCH  19  20
ATOM     20  C   UNL     1       1.281  -1.743  -1.449  0.00  0.00    +0.238 C 
ATOM     21  O   UNL     1       2.204  -2.455  -1.113  0.00  0.00    -0.273 OA
ATOM     22  N   UNL     1       0.894  -1.705  -2.739  0.00  0.00    -0.284 N 
ATOM     23  H   UNL     1       0.095  -1.217  -2.992  0.00  0.00    +0.155 HD
BRANCH  22  24
ATOM     24  C   UNL     1       1.647  -2.370  -3.715  0.00  0.00    +0.034 A 
ATOM     25  C   UNL     1       1.798  -1.811  -4.977  0.00  0.00    +0.025 A 
ATOM     26  C   UNL     1       2.540  -2.469  -5.937  0.00  0.00    +0.034 A 
ATOM     27  C   UNL     1       3.133  -3.683  -5.643  0.00  0.00    +0.126 A 
ATOM     28  C   UNL     1       2.984  -4.243  -4.387  0.00  0.00    +0.034 A 
ATOM     29  C   UNL     1       2.248  -3.586  -3.420  0.00  0.00    +0.025 A 
BRANCH  27  30
ATOM     30  N   UNL     1       3.929  -4.386  -6.675  0.00  0.00    +0.056 N 
ATOM     31  O   UNL     1       4.059  -3.899  -7.773  0.00  0.00    -0.126 OA
ATOM     32  O   UNL     1       4.447  -5.448  -6.419  0.00  0.00    -0.126 OA
ENDBRANCH  27  30
ENDBRANCH  22  24
ENDBRANCH  19  20
ENDBRANCH   1  19
TORSDOF 6
