REMARK  Name = ZINC20418646
REMARK  10 active torsions:
REMARK  status: ('A' for Active; 'I' for Inactive)
REMARK    1  A    between atoms: C_1  and  C_2
REMARK    2  A    between atoms: C_7  and  C_8
REMARK    3  A    between atoms: C_8  and  O_9
REMARK    4  A    between atoms: O_9  and  C_10
REMARK    5  A    between atoms: C_13  and  C_18
REMARK    6  A    between atoms: C_15  and  O_16
REMARK    7  A    between atoms: O_16  and  C_17
REMARK    8  A    between atoms: C_21  and  C_32
REMARK    9  A    between atoms: C_27  and  N_31
REMARK   10  A    between atoms: C_28  and  C_29
REMARK                            x       y       z     vdW  Elec       q    Type
REMARK                         _______ _______ _______ _____ _____    ______ ____
ROOT
ATOM      1  C   UNL     1       0.078   1.235   8.933  0.00  0.00    +0.102 C 
ATOM      2  C   UNL     1      -1.096   2.175   9.030  0.00  0.00    +0.054 A 
ATOM      3  C   UNL     1      -2.461   1.881   9.090  0.00  0.00    +0.100 A 
ATOM      4  N   UNL     1      -3.119   3.022   9.167  0.00  0.00    -0.171 NA
ATOM      5  N   UNL     1      -2.187   4.071   9.158  0.00  0.00    -0.246 N 
ATOM      6  H   UNL     1      -2.393   5.018   9.204  0.00  0.00    +0.192 HD
ATOM      7  C   UNL     1      -0.953   3.531   9.074  0.00  0.00    +0.223 A 
ATOM      8  O   UNL     1       0.258   4.142   9.037  0.00  0.00    -0.423 OA
ATOM      9  C   UNL     1       1.350   3.375   9.230  0.00  0.00    +0.200 C 
ATOM     10  C   UNL     1       1.337   2.023   9.198  0.00  0.00    +0.098 C 
ENDROOT
BRANCH   1  14
ATOM     11  C   UNL     1       0.243  -0.463   5.011  0.00  0.00    +0.162 A 
ATOM     12  C   UNL     1       0.234   0.913   5.174  0.00  0.00    +0.050 A 
ATOM     13  C   UNL     1       0.181   1.459   6.443  0.00  0.00    +0.008 A 
ATOM     14  C   UNL     1       0.136   0.635   7.552  0.00  0.00    -0.031 A 
ATOM     15  C   UNL     1       0.145  -0.739   7.397  0.00  0.00    +0.054 A 
ATOM     16  C   UNL     1       0.192  -1.293   6.127  0.00  0.00    +0.162 A 
BRANCH  16  17
ATOM     17  O   UNL     1       0.194  -2.644   5.973  0.00  0.00    -0.491 OA
ATOM     18  C   UNL     1       0.141  -3.433   7.163  0.00  0.00    +0.277 C 
ENDBRANCH  16  17
BRANCH  11  19
ATOM     19  O   UNL     1       0.295  -1.002   3.764  0.00  0.00    -0.484 OA
BRANCH  19  20
ATOM     20  C   UNL     1       0.345  -0.089   2.665  0.00  0.00    +0.265 C 
BRANCH  20  27
ATOM     21  C   UNL     1       0.458   1.317   0.144  0.00  0.00    +0.044 C 
ATOM     22  C   UNL     1       0.453  -0.190   0.166  0.00  0.00    -0.044 A 
ATOM     23  C   UNL     1       0.507  -0.899  -1.019  0.00  0.00    +0.004 A 
ATOM     24  C   UNL     1       0.502  -2.281  -0.999  0.00  0.00    +0.000 A 
ATOM     25  C   UNL     1       0.443  -2.954   0.207  0.00  0.00    +0.000 A 
ATOM     26  C   UNL     1       0.389  -2.245   1.393  0.00  0.00    +0.007 A 
ATOM     27  C   UNL     1       0.399  -0.863   1.372  0.00  0.00    -0.007 A 
ENDBRANCH  20  27
ENDBRANCH  19  20
ENDBRANCH  11  19
ENDBRANCH   1  14
BRANCH   3  28
ATOM     28  C   UNL     1      -3.065   0.525   9.070  0.00  0.00    +0.003 A 
ATOM     29  C   UNL     1      -4.203   0.278   8.306  0.00  0.00    +0.010 A 
ATOM     30  C   UNL     1      -4.760  -0.985   8.292  0.00  0.00    +0.001 A 
ATOM     31  C   UNL     1      -4.190  -2.004   9.034  0.00  0.00    +0.000 A 
ATOM     32  C   UNL     1      -3.060  -1.764   9.794  0.00  0.00    +0.001 A 
ATOM     33  C   UNL     1      -2.491  -0.506   9.812  0.00  0.00    +0.010 A 
ENDBRANCH   3  28
BRANCH   9  34
ATOM     34  N   UNL     1       2.546   4.003   9.474  0.00  0.00    -0.328 N 
ATOM     35  H   UNL     1       2.588   4.972   9.503  0.00  0.00    +0.145 HD
ATOM     36  H   UNL     1       3.349   3.479   9.617  0.00  0.00    +0.145 HD
ENDBRANCH   9  34
BRANCH  10  37
ATOM     37  C   UNL     1       2.560   1.314   9.424  0.00  0.00    +0.101 C 
ATOM     38  N   UNL     1       3.531   0.751   9.602  0.00  0.00    -0.191 NA
ENDBRANCH  10  37
TORSDOF 8
