REMARK  Name = ZINC15068240
REMARK  5 active torsions:
REMARK  status: ('A' for Active; 'I' for Inactive)
REMARK    1  A    between atoms: C_5  and  C_7
REMARK    2  A    between atoms: C_7  and  N_8
REMARK    3  A    between atoms: C_19  and  N_23
REMARK    4  A    between atoms: N_23  and  C_24
REMARK    5  A    between atoms: C_24  and  C_25
REMARK                            x       y       z     vdW  Elec       q    Type
REMARK                         _______ _______ _______ _____ _____    ______ ____
ROOT
ATOM      1  N   UNL     1       1.135   1.915   0.002  0.00  0.00    -0.294 N 
ATOM      2  C   UNL     1       1.136   3.273   0.007  0.00  0.00    +0.203 A 
ATOM      3  N   UNL     1       0.018   3.949   0.020  0.00  0.00    -0.230 NA
ATOM      4  C   UNL     1      -1.157   3.327   0.029  0.00  0.00    +0.116 A 
ATOM      5  C   UNL     1      -1.259   1.927   0.018  0.00  0.00    +0.076 A 
ATOM      6  C   UNL     1      -0.015   1.215   0.009  0.00  0.00    +0.263 A 
ATOM      7  O   UNL     1       0.002  -0.004   0.002  0.00  0.00    -0.267 OA
ATOM      8  C   UNL     1      -2.616   1.383   0.024  0.00  0.00    -0.023 A 
ATOM      9  C   UNL     1      -3.631   2.272   0.033  0.00  0.00    -0.003 A 
ATOM     10  S   UNL     1      -2.849   3.863   0.047  0.00  0.00    -0.073 S 
ATOM     11  C   UNL     1      -5.100   1.974   0.041  0.00  0.00    +0.061 C 
ATOM     12  C   UNL     1      -5.291   0.496   0.414  0.00  0.00    +0.059 C 
ATOM     13  C   UNL     1      -4.336  -0.351  -0.432  0.00  0.00    +0.024 C 
ATOM     14  C   UNL     1      -2.894  -0.118   0.020  0.00  0.00    +0.038 C 
ENDROOT
BRANCH  12  15
ATOM     15  N   UNL     1      -6.678   0.095   0.142  0.00  0.00    -0.307 NA
ATOM     16  H   UNL     1      -7.043   0.621  -0.752  0.00  0.00    +0.123 HD
BRANCH  15  17
ATOM     17  C   UNL     1      -7.553   0.428   1.274  0.00  0.00    +0.144 C 
BRANCH  17  18
ATOM     18  C   UNL     1      -8.964   0.003   0.960  0.00  0.00    +0.093 A 
ATOM     19  N   UNL     1      -9.535  -1.144   1.198  0.00  0.00    -0.243 NA
ATOM     20  C   UNL     1     -10.819  -1.398   0.868  0.00  0.00    +0.079 A 
ATOM     21  C   UNL     1     -11.572  -2.577   1.063  0.00  0.00    +0.029 A 
ATOM     22  C   UNL     1     -12.867  -2.649   0.653  0.00  0.00    +0.002 A 
ATOM     23  C   UNL     1     -13.495  -1.578   0.032  0.00  0.00    +0.001 A 
ATOM     24  C   UNL     1     -12.792  -0.407  -0.177  0.00  0.00    +0.017 A 
ATOM     25  C   UNL     1     -11.484  -0.324   0.234  0.00  0.00    +0.039 A 
ATOM     26  S   UNL     1     -10.219   0.921   0.186  0.00  0.00    -0.071 S 
ENDBRANCH  17  18
ENDBRANCH  15  17
ENDBRANCH  12  15
BRANCH   1  27
ATOM     27  C   UNL     1       2.412   1.197  -0.013  0.00  0.00    +0.164 C 
BRANCH  27  32
ATOM     28  C   UNL     1       4.245   1.491  -3.301  0.00  0.00    +0.000 A 
ATOM     29  C   UNL     1       3.619   0.516  -4.055  0.00  0.00    +0.003 A 
ATOM     30  C   UNL     1       2.603  -0.240  -3.503  0.00  0.00    +0.039 A 
ATOM     31  C   UNL     1       2.213  -0.023  -2.192  0.00  0.00    +0.128 A 
ATOM     32  C   UNL     1       2.837   0.957  -1.439  0.00  0.00    +0.008 A 
ATOM     33  C   UNL     1       3.854   1.711  -1.993  0.00  0.00    +0.008 A 
ATOM     34  F   UNL     1       1.223  -0.764  -1.649  0.00  0.00    -0.205 F 
ENDBRANCH  27  32
ENDBRANCH   1  27
TORSDOF 5
