REMARK  Name = ZINC19635657
REMARK  9 active torsions:
REMARK  status: ('A' for Active; 'I' for Inactive)
REMARK    1  A    between atoms: C_1  and  C_2
REMARK    2  A    between atoms: C_2  and  C_3
REMARK    3  A    between atoms: C_2  and  C_4
REMARK    4  A    between atoms: C_7  and  C_10
REMARK    5  A    between atoms: C_12  and  C_30
REMARK    6  A    between atoms: C_17  and  C_19
REMARK    7  A    between atoms: N_21  and  C_22
REMARK    8  A    between atoms: C_22  and  C_23
REMARK    9  A    between atoms: C_23  and  C_24
REMARK                            x       y       z     vdW  Elec       q    Type
REMARK                         _______ _______ _______ _____ _____    ______ ____
ROOT
ATOM      1  C   UNL     1       0.002  -0.004   0.002  0.00  0.00    +0.075 A 
ATOM      2  C   UNL     1      -1.213  -0.727   0.016  0.00  0.00    +0.060 A 
ATOM      3  C   UNL     1      -1.181  -2.078   0.004  0.00  0.00    +0.149 A 
ATOM      4  N   UNL     1       0.029  -2.718  -0.012  0.00  0.00    -0.209 N 
ATOM      5  C   UNL     1       1.191  -1.986  -0.020  0.00  0.00    +0.157 A 
ATOM      6  N   UNL     1       1.154  -0.648  -0.012  0.00  0.00    -0.228 NA
ATOM      7  C   UNL     1       2.243  -2.890  -0.035  0.00  0.00    +0.083 A 
ATOM      8  C   UNL     1       1.694  -4.177  -0.036  0.00  0.00    +0.150 A 
ATOM      9  N   UNL     1       0.375  -4.074  -0.023  0.00  0.00    -0.160 NA
ENDROOT
BRANCH   1  13
ATOM     10  C   UNL     1      -0.056   4.246   0.024  0.00  0.00    -0.045 A 
ATOM     11  C   UNL     1       1.153   3.573   0.010  0.00  0.00    +0.004 A 
ATOM     12  C   UNL     1       1.179   2.194   0.003  0.00  0.00    +0.010 A 
ATOM     13  C   UNL     1      -0.018   1.477   0.010  0.00  0.00    +0.000 A 
ATOM     14  C   UNL     1      -1.234   2.161   0.020  0.00  0.00    +0.010 A 
ATOM     15  C   UNL     1      -1.246   3.541   0.032  0.00  0.00    +0.004 A 
BRANCH  10  17
ATOM     16  C   UNL     1      -0.816   6.259  -1.208  0.00  0.00    +0.012 C 
ATOM     17  C   UNL     1      -0.076   5.753   0.032  0.00  0.00    +0.013 C 
ATOM     18  C   UNL     1      -0.792   6.247   1.291  0.00  0.00    +0.012 C 
ENDBRANCH  10  17
ENDBRANCH   1  13
BRANCH   8  19
ATOM     19  C   UNL     1       2.461  -5.442  -0.051  0.00  0.00    +0.264 C 
ATOM     20  O   UNL     1       3.676  -5.415  -0.063  0.00  0.00    -0.268 OA
ATOM     21  N   UNL     1       1.812  -6.623  -0.051  0.00  0.00    -0.310 N 
ATOM     22  H   UNL     1       0.713  -6.647  -0.040  0.00  0.00    +0.149 HD
BRANCH  21  23
ATOM     23  C   UNL     1       2.572  -7.876  -0.066  0.00  0.00    +0.111 C 
BRANCH  23  24
ATOM     24  C   UNL     1       1.603  -9.060  -0.062  0.00  0.00    +0.075 C 
BRANCH  24  25
ATOM     25  C   UNL     1       2.384 -10.348  -0.077  0.00  0.00    +0.060 A 
ATOM     26  C   UNL     1       2.269 -11.354   0.811  0.00  0.00    +0.107 A 
ATOM     27  N   UNL     1       3.155 -12.324   0.428  0.00  0.00    -0.351 N 
ATOM     28  H   UNL     1       3.240 -13.253   1.011  0.00  0.00    +0.166 HD
ATOM     29  C   UNL     1       3.782 -11.877  -0.682  0.00  0.00    +0.196 A 
ATOM     30  N   UNL     1       3.312 -10.697  -0.981  0.00  0.00    -0.241 NA
ENDBRANCH  24  25
ENDBRANCH  23  24
ENDBRANCH  21  23
ENDBRANCH   8  19
BRANCH   3  31
ATOM     31  C   UNL     1      -2.462  -2.871   0.012  0.00  0.00    +0.434 C 
ATOM     32  F   UNL     1      -2.845  -3.123   1.333  0.00  0.00    -0.164 F 
ATOM     33  F   UNL     1      -3.466  -2.142  -0.634  0.00  0.00    -0.164 F 
ATOM     34  F   UNL     1      -2.264  -4.084  -0.656  0.00  0.00    -0.164 F 
ENDBRANCH   3  31
TORSDOF 7
