REMARK  Name = ZINC62121269
REMARK  8 active torsions:
REMARK  status: ('A' for Active; 'I' for Inactive)
REMARK    1  A    between atoms: C_1  and  C_2
REMARK    2  A    between atoms: N_6  and  C_8
REMARK    3  A    between atoms: C_8  and  C_9
REMARK    4  A    between atoms: C_8  and  C_10
REMARK    5  A    between atoms: C_10  and  N_11
REMARK    6  A    between atoms: C_12  and  C_14
REMARK    7  A    between atoms: N_16  and  C_17
REMARK    8  A    between atoms: C_22  and  N_23
REMARK                            x       y       z     vdW  Elec       q    Type
REMARK                         _______ _______ _______ _____ _____    ______ ____
ROOT
ATOM      1  N   UNL     1       0.064  -4.410   2.385  0.00  0.00    -0.309 N 
ATOM      2  C   UNL     1      -0.255  -5.713   2.511  0.00  0.00    +0.299 C 
ATOM      3  O   UNL     1       0.616  -6.535   2.709  0.00  0.00    -0.265 OA
ATOM      4  H   UNL     1      -0.632  -3.753   2.226  0.00  0.00    +0.149 HD
ENDROOT
BRANCH   2   5
ATOM      5  C   UNL     1      -1.680  -6.147   2.407  0.00  0.00    +0.303 C 
ATOM      6  O   UNL     1      -2.552  -5.325   2.208  0.00  0.00    -0.265 OA
ATOM      7  N   UNL     1      -2.000  -7.450   2.533  0.00  0.00    -0.276 N 
ATOM      8  H   UNL     1      -1.298  -8.116   2.612  0.00  0.00    +0.155 HD
BRANCH   7   9
ATOM      9  C   UNL     1      -3.342  -7.843   2.549  0.00  0.00    +0.055 A 
ATOM     10  C   UNL     1      -4.325  -6.946   2.942  0.00  0.00    +0.025 A 
ATOM     11  C   UNL     1      -5.651  -7.337   2.957  0.00  0.00    +0.002 A 
ATOM     12  C   UNL     1      -6.002  -8.620   2.581  0.00  0.00    +0.002 A 
ATOM     13  C   UNL     1      -5.030  -9.521   2.188  0.00  0.00    +0.025 A 
ATOM     14  C   UNL     1      -3.697  -9.136   2.164  0.00  0.00    +0.051 A 
BRANCH  14  15
ATOM     15  N   UNL     1      -2.713 -10.043   1.760  0.00  0.00    -0.328 N 
ATOM     16  C   UNL     1      -1.992 -10.973   2.642  0.00  0.00    +0.105 C 
ATOM     17  C   UNL     1      -0.990 -11.753   1.764  0.00  0.00    +0.020 C 
ATOM     18  C   UNL     1      -0.805 -10.821   0.537  0.00  0.00    +0.020 C 
ATOM     19  C   UNL     1      -2.230 -10.230   0.380  0.00  0.00    +0.105 C 
ENDBRANCH  14  15
ENDBRANCH   7   9
ENDBRANCH   2   5
BRANCH   1  20
ATOM     20  C   UNL     1       1.462  -3.985   2.487  0.00  0.00    +0.089 C 
BRANCH  20  21
ATOM     21  C   UNL     1       1.537  -2.458   2.429  0.00  0.00    -0.054 C 
ATOM     22  C   UNL     1       3.003  -2.020   2.409  0.00  0.00    -0.012 C 
BRANCH  21  28
ATOM     23  C   UNL     1       1.628  -2.523  -2.465  0.00  0.00    +0.005 C 
ATOM     24  C   UNL     1       0.861  -2.029  -1.237  0.00  0.00    -0.031 C 
ATOM     25  C   UNL     1       0.762  -0.501  -1.276  0.00  0.00    -0.001 C 
ATOM     26  C   UNL     1       0.061  -0.013  -0.005  0.00  0.00    -0.018 C 
ATOM     27  C   UNL     1       0.830  -0.513   1.219  0.00  0.00    -0.078 C 
ATOM     28  N   UNL     1       0.866  -1.981   1.212  0.00  0.00    +0.383 N 
ATOM     29  C   UNL     1       1.600  -2.455   0.033  0.00  0.00    -0.075 C 
ATOM     30  H   UNL     1      -0.077  -2.339   1.188  0.00  0.00    -0.081 HD
ENDBRANCH  21  28
ENDBRANCH  20  21
ENDBRANCH   1  20
TORSDOF 6
