REMARK  Name = ZINC22463163
REMARK  11 active torsions:
REMARK  status: ('A' for Active; 'I' for Inactive)
REMARK    1  A    between atoms: C_1  and  C_2
REMARK    2  A    between atoms: C_2  and  C_3
REMARK    3  A    between atoms: C_3  and  C_4
REMARK    4  A    between atoms: C_3  and  C_5
REMARK    5  A    between atoms: C_3  and  C_6
REMARK    6  A    between atoms: N_14  and  C_18
REMARK    7  A    between atoms: C_18  and  C_19
REMARK    8  A    between atoms: N_21  and  C_22
REMARK    9  A    between atoms: C_22  and  C_23
REMARK   10  A    between atoms: C_23  and  C_25
REMARK   11  A    between atoms: C_23  and  N_31
REMARK                            x       y       z     vdW  Elec       q    Type
REMARK                         _______ _______ _______ _____ _____    ______ ____
ROOT
ATOM      1  C   UNL     1       3.977  -7.837  -1.287  0.00  0.00    +0.213 C 
ENDROOT
BRANCH   1  10
ATOM      2  C   UNL     1       1.009  -1.910  -1.221  0.00  0.00    -0.005 C 
ATOM      3  C   UNL     1       1.606  -2.516   0.051  0.00  0.00    +0.006 C 
ATOM      4  C   UNL     1       1.530  -4.043  -0.028  0.00  0.00    +0.035 C 
ATOM      5  C   UNL     1       2.299  -4.529  -1.252  0.00  0.00    +0.113 C 
ATOM      6  C   UNL     1       1.732  -3.914  -2.526  0.00  0.00    +0.035 C 
ATOM      7  C   UNL     1       1.806  -2.388  -2.436  0.00  0.00    +0.006 C 
ATOM      8  C   UNL     1       2.259  -6.038  -1.332  0.00  0.00    +0.247 C 
ATOM      9  O   UNL     1       1.278  -6.742  -1.447  0.00  0.00    -0.273 OA
ATOM     10  N   UNL     1       3.545  -6.438  -1.249  0.00  0.00    -0.215 N 
ATOM     11  C   UNL     1       4.378  -5.397  -1.129  0.00  0.00    +0.310 C 
ATOM     12  O   UNL     1       5.585  -5.504  -1.037  0.00  0.00    -0.252 OA
ATOM     13  N   UNL     1       3.728  -4.217  -1.120  0.00  0.00    -0.285 N 
ATOM     14  H   UNL     1       4.057  -3.171  -1.040  0.00  0.00    +0.151 HD
BRANCH   2  15
ATOM     15  C   UNL     1       1.073  -0.384  -1.137  0.00  0.00    -0.032 C 
ATOM     16  C   UNL     1       0.476   0.222  -2.409  0.00  0.00    +0.011 C 
ATOM     17  C   UNL     1       2.531   0.059  -0.997  0.00  0.00    +0.011 C 
BRANCH  15  19
ATOM     18  C   UNL     1       0.340   1.621   0.162  0.00  0.00    +0.004 C 
ATOM     19  C   UNL     1       0.276   0.094   0.078  0.00  0.00    +0.003 C 
ENDBRANCH  15  19
ENDBRANCH   2  15
ENDBRANCH   1  10
BRANCH   1  20
ATOM     20  C   UNL     1       4.239  -8.244  -2.714  0.00  0.00    +0.231 C 
ATOM     21  O   UNL     1       4.080  -7.444  -3.611  0.00  0.00    -0.274 OA
ATOM     22  N   UNL     1       4.649  -9.497  -2.993  0.00  0.00    -0.315 N 
ATOM     23  H   UNL     1       4.792 -10.223  -2.179  0.00  0.00    +0.149 HD
BRANCH  22  24
ATOM     24  C   UNL     1       4.903  -9.893  -4.380  0.00  0.00    +0.093 C 
BRANCH  24  25
ATOM     25  C   UNL     1       5.465 -11.316  -4.410  0.00  0.00    -0.020 C 
BRANCH  25  26
ATOM     26  C   UNL     1       4.418 -12.280  -3.915  0.00  0.00    -0.059 A 
ATOM     27  C   UNL     1       3.405 -12.694  -4.760  0.00  0.00    +0.002 A 
ATOM     28  C   UNL     1       2.447 -13.581  -4.307  0.00  0.00    +0.000 A 
ATOM     29  C   UNL     1       2.497 -14.048  -3.007  0.00  0.00    +0.000 A 
ATOM     30  C   UNL     1       3.507 -13.630  -2.161  0.00  0.00    +0.000 A 
ATOM     31  C   UNL     1       4.467 -12.746  -2.615  0.00  0.00    +0.002 A 
ENDBRANCH  25  26
BRANCH  25  32
ATOM     32  N   UNL     1       5.841 -11.665  -5.786  0.00  0.00    +0.385 N 
ATOM     33  C   UNL     1       6.853 -10.717  -6.319  0.00  0.00    -0.078 C 
ATOM     34  C   UNL     1       7.495 -11.504  -7.489  0.00  0.00    -0.020 C 
ATOM     35  C   UNL     1       7.541 -12.952  -6.948  0.00  0.00    -0.020 C 
ATOM     36  C   UNL     1       6.473 -13.002  -5.840  0.00  0.00    -0.078 C 
ATOM     37  H   UNL     1       4.908 -11.637  -6.368  0.00  0.00    -0.081 HD
ENDBRANCH  25  32
ENDBRANCH  24  25
ENDBRANCH  22  24
ENDBRANCH   1  20
TORSDOF 8
