REMARK  Name = ZINC39774677
REMARK  15 active torsions:
REMARK  status: ('A' for Active; 'I' for Inactive)
REMARK    1  A    between atoms: C_1  and  C_2
REMARK    2  A    between atoms: C_2  and  C_3
REMARK    3  A    between atoms: C_3  and  N_4
REMARK    4  A    between atoms: N_4  and  C_5
REMARK    5  A    between atoms: N_4  and  S_8
REMARK    6  A    between atoms: C_5  and  C_6
REMARK    7  A    between atoms: C_6  and  C_7
REMARK    8  A    between atoms: S_8  and  C_11
REMARK    9  A    between atoms: C_15  and  C_17
REMARK   10  A    between atoms: N_22  and  N_23
REMARK   11  A    between atoms: C_24  and  C_25
REMARK   12  A    between atoms: C_28  and  O_34
REMARK   13  A    between atoms: C_29  and  O_31
REMARK   14  A    between atoms: O_31  and  C_32
REMARK   15  A    between atoms: C_32  and  C_33
REMARK                            x       y       z     vdW  Elec       q    Type
REMARK                         _______ _______ _______ _____ _____    ______ ____
ROOT
ATOM      1  C   UNL     1       0.234  -5.647   3.276  0.00  0.00    +0.055 A 
ATOM      2  C   UNL     1      -0.170  -6.571   2.378  0.00  0.00    +0.075 A 
ATOM      3  S   UNL     1      -0.906  -7.814   3.428  0.00  0.00    -0.056 S 
ATOM      4  C   UNL     1      -0.624  -7.012   4.998  0.00  0.00    +0.192 A 
ATOM      5  N   UNL     1       0.015  -5.859   4.609  0.00  0.00    -0.332 N 
ATOM      6  N   UNL     1      -0.941  -7.422   6.216  0.00  0.00    -0.124 NA
ATOM      7  H   UNL     1       0.303  -5.207   5.266  0.00  0.00    +0.168 HD
ENDROOT
BRANCH   1  12
ATOM      8  C   UNL     1       1.772  -3.050   1.042  0.00  0.00    +0.106 A 
ATOM      9  C   UNL     1       2.188  -2.110   1.968  0.00  0.00    +0.028 A 
ATOM     10  C   UNL     1       1.970  -2.317   3.319  0.00  0.00    +0.003 A 
ATOM     11  C   UNL     1       1.335  -3.464   3.750  0.00  0.00    +0.010 A 
ATOM     12  C   UNL     1       0.913  -4.415   2.821  0.00  0.00    +0.001 A 
ATOM     13  C   UNL     1       1.132  -4.198   1.460  0.00  0.00    +0.038 A 
BRANCH   8  14
ATOM     14  S   UNL     1       2.055  -2.776  -0.676  0.00  0.00    +0.061 S 
ATOM     15  O   UNL     1       2.053  -4.054  -1.296  0.00  0.00    -0.153 OA
ATOM     16  O   UNL     1       3.158  -1.885  -0.769  0.00  0.00    -0.153 OA
BRANCH  14  17
ATOM     17  N   UNL     1       0.738  -1.962  -1.265  0.00  0.00    -0.177 NA
BRANCH  17  18
ATOM     18  C   UNL     1       0.718  -0.497  -1.257  0.00  0.00    +0.109 C 
BRANCH  18  20
ATOM     19  C   UNL     1      -0.019   1.526   0.010  0.00  0.00    +0.005 C 
ATOM     20  C   UNL     1       0.002  -0.004   0.002  0.00  0.00    +0.014 C 
ENDBRANCH  18  20
ENDBRANCH  17  18
BRANCH  17  21
ATOM     21  C   UNL     1      -0.407  -2.708  -1.794  0.00  0.00    +0.109 C 
BRANCH  21  22
ATOM     22  C   UNL     1      -0.269  -2.843  -3.312  0.00  0.00    +0.014 C 
ATOM     23  C   UNL     1      -1.465  -3.622  -3.865  0.00  0.00    +0.005 C 
ENDBRANCH  21  22
ENDBRANCH  17  21
ENDBRANCH  14  17
ENDBRANCH   8  14
ENDBRANCH   1  12
BRANCH   6  24
ATOM     24  N   UNL     1      -1.543  -8.551   6.380  0.00  0.00    -0.155 NA
ATOM     25  C   UNL     1      -1.856  -8.956   7.583  0.00  0.00    +0.143 C 
BRANCH  25  26
ATOM     26  C   UNL     1      -2.542 -10.244   7.770  0.00  0.00    -0.002 A 
ATOM     27  C   UNL     1      -2.854 -11.040   6.663  0.00  0.00    +0.013 A 
ATOM     28  C   UNL     1      -3.497 -12.246   6.842  0.00  0.00    +0.050 A 
ATOM     29  C   UNL     1      -3.835 -12.674   8.117  0.00  0.00    +0.158 A 
ATOM     30  C   UNL     1      -3.528 -11.887   9.225  0.00  0.00    +0.162 A 
ATOM     31  C   UNL     1      -2.879 -10.679   9.056  0.00  0.00    +0.059 A 
BRANCH  29  32
ATOM     32  O   UNL     1      -4.469 -13.865   8.287  0.00  0.00    -0.503 OA
ATOM     33  H   UNL     1      -3.871 -14.615   8.407  0.00  0.00    +0.292 HD
ENDBRANCH  29  32
BRANCH  30  34
ATOM     34  O   UNL     1      -3.863 -12.310  10.473  0.00  0.00    -0.489 OA
BRANCH  34  35
ATOM     35  C   UNL     1      -3.518 -11.453  11.563  0.00  0.00    +0.226 C 
ATOM     36  C   UNL     1      -3.970 -12.092  12.878  0.00  0.00    +0.048 C 
ENDBRANCH  34  35
ENDBRANCH  30  34
ENDBRANCH  25  26
ENDBRANCH   6  24
TORSDOF 12
