REMARK  Name = ZINC26895659
REMARK  8 active torsions:
REMARK  status: ('A' for Active; 'I' for Inactive)
REMARK    1  A    between atoms: C_1  and  C_2
REMARK    2  A    between atoms: C_3  and  N_9
REMARK    3  A    between atoms: C_10  and  C_12
REMARK    4  A    between atoms: C_12  and  S_13
REMARK    5  A    between atoms: S_13  and  C_14
REMARK    6  A    between atoms: N_20  and  C_21
REMARK    7  A    between atoms: C_21  and  C_22
REMARK    8  A    between atoms: C_22  and  C_24
REMARK                            x       y       z     vdW  Elec       q    Type
REMARK                         _______ _______ _______ _____ _____    ______ ____
ROOT
ATOM      1  C   UNL     1      -0.023   1.758  -0.019  0.00  0.00    +0.173 A 
ATOM      2  N   UNL     1      -1.182   2.387  -0.016  0.00  0.00    -0.223 NA
ATOM      3  C   UNL     1      -1.238   3.722  -0.012  0.00  0.00    +0.083 A 
ATOM      4  C   UNL     1      -0.066   4.465  -0.031  0.00  0.00    +0.050 A 
ATOM      5  C   UNL     1       1.161   3.791  -0.041  0.00  0.00    +0.259 A 
ATOM      6  O   UNL     1       2.212   4.411  -0.057  0.00  0.00    -0.267 OA
ATOM      7  N   UNL     1       1.156   2.441  -0.032  0.00  0.00    -0.283 N 
ATOM      8  C   UNL     1      -0.129   5.965  -0.044  0.00  0.00    +0.007 C 
ATOM      9  C   UNL     1       1.179   6.539  -0.620  0.00  0.00    +0.012 C 
ATOM     10  C   UNL     1       1.439   7.811   0.225  0.00  0.00    +0.001 C 
ATOM     11  C   UNL     1       0.988   7.379   1.643  0.00  0.00    +0.001 C 
ATOM     12  C   UNL     1      -0.254   6.498   1.392  0.00  0.00    +0.012 C 
ATOM     13  C   UNL     1      -1.314   6.448  -0.879  0.00  0.00    +0.047 C 
ATOM     14  C   UNL     1      -2.578   5.767  -0.422  0.00  0.00    -0.037 A 
ATOM     15  C   UNL     1      -2.534   4.439   0.007  0.00  0.00    +0.004 A 
ATOM     16  C   UNL     1      -3.697   3.807   0.437  0.00  0.00    +0.010 A 
ATOM     17  C   UNL     1      -4.892   4.500   0.434  0.00  0.00    +0.001 A 
ATOM     18  C   UNL     1      -4.932   5.814   0.005  0.00  0.00    +0.000 A 
ATOM     19  C   UNL     1      -3.777   6.447  -0.422  0.00  0.00    +0.004 A 
ENDROOT
BRANCH   1  20
ATOM     20  S   UNL     1       0.001  -0.003  -0.015  0.00  0.00    -0.078 S 
BRANCH  20  21
ATOM     21  C   UNL     1      -1.776  -0.342   0.002  0.00  0.00    +0.173 C 
BRANCH  21  23
ATOM     22  N   UNL     1      -3.259  -2.322   0.021  0.00  0.00    -0.285 N 
ATOM     23  C   UNL     1      -2.004  -1.832   0.008  0.00  0.00    +0.227 C 
ATOM     24  O   UNL     1      -1.057  -2.590   0.002  0.00  0.00    -0.275 OA
ATOM     25  H   UNL     1      -4.116  -1.638   0.118  0.00  0.00    +0.155 HD
BRANCH  22  28
ATOM     26  C   UNL     1      -5.660  -3.400   1.102  0.00  0.00    +0.047 C 
ATOM     27  C   UNL     1      -4.632  -4.268   0.424  0.00  0.00    -0.011 A 
ATOM     28  C   UNL     1      -3.474  -3.700  -0.090  0.00  0.00    +0.038 A 
ATOM     29  C   UNL     1      -2.526  -4.504  -0.710  0.00  0.00    +0.023 A 
ATOM     30  C   UNL     1      -2.739  -5.864  -0.818  0.00  0.00    +0.003 A 
ATOM     31  C   UNL     1      -3.895  -6.427  -0.310  0.00  0.00    +0.020 A 
ATOM     32  C   UNL     1      -4.843  -5.629   0.307  0.00  0.00    +0.046 A 
ATOM     33 CL   UNL     1      -6.294  -6.339   0.943  0.00  0.00    -0.083 Cl
ENDBRANCH  22  28
ENDBRANCH  21  23
ENDBRANCH  20  21
ENDBRANCH   1  20
BRANCH   7  34
ATOM     34  C   UNL     1       2.424   1.706  -0.036  0.00  0.00    +0.157 C 
BRANCH  34  35
ATOM     35  C   UNL     1       2.849   1.445  -1.458  0.00  0.00    -0.060 C 
ATOM     36  C   UNL     1       3.681   2.264  -2.053  0.00  0.00    +0.009 C 
ATOM     37  C   UNL     1       2.316   0.244  -2.195  0.00  0.00    +0.040 C 
ENDBRANCH  34  35
ENDBRANCH   7  34
TORSDOF 6
