REMARK  Name = ZINC60277629
REMARK  6 active torsions:
REMARK  status: ('A' for Active; 'I' for Inactive)
REMARK    1  A    between atoms: C_1  and  O_2
REMARK    2  A    between atoms: O_2  and  C_3
REMARK    3  A    between atoms: C_3  and  C_4
REMARK    4  A    between atoms: C_8  and  C_13
REMARK    5  A    between atoms: C_25  and  N_29
REMARK    6  A    between atoms: C_26  and  C_27
REMARK                            x       y       z     vdW  Elec       q    Type
REMARK                         _______ _______ _______ _____ _____    ______ ____
ROOT
ATOM      1  C   UNL     1      -0.615  -2.272   0.101  0.00  0.00    +0.158 A 
ATOM      2  N   UNL     1      -0.498  -2.926  -1.042  0.00  0.00    -0.214 NA
ATOM      3  C   UNL     1      -0.322  -4.237  -1.088  0.00  0.00    +0.134 A 
ATOM      4  C   UNL     1      -0.257  -4.971   0.127  0.00  0.00    +0.055 A 
ATOM      5  C   UNL     1      -0.071  -6.402   0.341  0.00  0.00    +0.002 A 
ATOM      6  C   UNL     1      -0.042  -6.873   1.610  0.00  0.00    +0.056 A 
ATOM      7  S   UNL     1      -0.263  -5.408   2.602  0.00  0.00    -0.076 S 
ATOM      8  C   UNL     1      -0.389  -4.206   1.304  0.00  0.00    +0.114 A 
ATOM      9  N   UNL     1      -0.556  -2.899   1.260  0.00  0.00    -0.222 NA
ATOM     10  N   UNL     1      -0.205  -4.885  -2.304  0.00  0.00    -0.309 N 
ATOM     11  C   UNL     1      -1.387  -5.180  -3.128  0.00  0.00    +0.111 C 
ATOM     12  C   UNL     1      -1.303  -4.403  -4.444  0.00  0.00    +0.056 C 
ATOM     13  C   UNL     1       0.086  -4.578  -5.038  0.00  0.00    -0.015 A 
ATOM     14  C   UNL     1       1.134  -4.977  -4.286  0.00  0.00    +0.013 A 
ATOM     15  S   UNL     1       2.502  -5.027  -5.405  0.00  0.00    -0.076 S 
ATOM     16  C   UNL     1       1.733  -4.546  -6.818  0.00  0.00    +0.081 A 
ATOM     17  C   UNL     1       0.417  -4.342  -6.434  0.00  0.00    +0.083 A 
ATOM     18  C   UNL     1       1.113  -5.299  -2.826  0.00  0.00    +0.149 C 
ENDROOT
BRANCH   5  19
ATOM     19  C   UNL     1       0.081  -7.324  -0.810  0.00  0.00    -0.017 A 
ATOM     20  C   UNL     1      -0.936  -7.434  -1.758  0.00  0.00    +0.008 A 
ATOM     21  C   UNL     1      -0.789  -8.294  -2.827  0.00  0.00    +0.001 A 
ATOM     22  C   UNL     1       0.365  -9.046  -2.959  0.00  0.00    +0.000 A 
ATOM     23  C   UNL     1       1.378  -8.940  -2.023  0.00  0.00    +0.001 A 
ATOM     24  C   UNL     1       1.244  -8.079  -0.953  0.00  0.00    +0.008 A 
ENDBRANCH   5  19
BRANCH  16  25
ATOM     25  N   UNL     1       2.287  -4.388  -8.077  0.00  0.00    -0.352 N 
ATOM     26  H   UNL     1       3.230  -4.564  -8.217  0.00  0.00    +0.143 HD
ATOM     27  H   UNL     1       1.731  -4.101  -8.819  0.00  0.00    +0.143 HD
ENDBRANCH  16  25
BRANCH  17  28
ATOM     28  C   UNL     1      -0.577  -3.917  -7.374  0.00  0.00    +0.102 C 
ATOM     29  N   UNL     1      -1.365  -3.579  -8.120  0.00  0.00    -0.191 NA
ENDBRANCH  17  28
BRANCH   1  30
ATOM     30  C   UNL     1      -0.812  -0.779   0.079  0.00  0.00    +0.235 C 
BRANCH  30  32
ATOM     31  C   UNL     1       0.385   1.298   0.082  0.00  0.00    +0.194 C 
ATOM     32  O   UNL     1       0.460  -0.129   0.100  0.00  0.00    -0.375 OA
ENDBRANCH  30  32
ENDBRANCH   1  30
TORSDOF 5
