REMARK  Name = ZINC20913812
REMARK  11 active torsions:
REMARK  status: ('A' for Active; 'I' for Inactive)
REMARK    1  A    between atoms: C_1  and  O_2
REMARK    2  A    between atoms: O_2  and  C_3
REMARK    3  A    between atoms: C_3  and  C_5
REMARK    4  A    between atoms: C_8  and  C_11
REMARK    5  A    between atoms: N_12  and  N_13
REMARK    6  A    between atoms: C_17  and  S_20
REMARK    7  A    between atoms: N_18  and  N_19
REMARK    8  A    between atoms: S_20  and  C_21
REMARK    9  A    between atoms: C_21  and  C_22
REMARK   10  A    between atoms: C_22  and  C_23
REMARK   11  A    between atoms: C_23  and  C_24
REMARK                            x       y       z     vdW  Elec       q    Type
REMARK                         _______ _______ _______ _____ _____    ______ ____
ROOT
ATOM      1  N   UNL     1       0.002  -0.004   0.002  0.00  0.00    -0.204 N 
ATOM      2  C   UNL     1      -0.017   1.383   0.010  0.00  0.00    +0.254 A 
ATOM      3  N   UNL     1      -1.081   2.147   0.018  0.00  0.00    -0.109 NA
ATOM      4  N   UNL     1      -0.736   3.384   0.027  0.00  0.00    -0.119 NA
ATOM      5  C   UNL     1       0.572   3.486   0.015  0.00  0.00    +0.210 A 
ATOM      6  N   UNL     1       1.075   2.212   0.004  0.00  0.00    -0.211 N 
ATOM      7  H   UNL     1       0.962  -0.541  -0.010  0.00  0.00    +0.177 HD
ENDROOT
BRANCH   6   8
ATOM      8  N   UNL     1       2.391   1.845  -0.010  0.00  0.00    -0.294 N 
ATOM      9  H   UNL     1       3.177   2.615  -0.014  0.00  0.00    +0.163 HD
ATOM     10  H   UNL     1       2.665   0.780  -0.018  0.00  0.00    +0.163 HD
ENDBRANCH   6   8
BRANCH   1  12
ATOM     11  C   UNL     1      -1.184  -2.021   0.003  0.00  0.00    +0.138 C 
ATOM     12  N   UNL     1      -1.202  -0.721   0.010  0.00  0.00    -0.188 NA
BRANCH  11  16
ATOM     13  C   UNL     1      -4.823  -4.189   0.026  0.00  0.00    +0.059 A 
ATOM     14  C   UNL     1      -3.602  -4.872   0.010  0.00  0.00    +0.015 A 
ATOM     15  C   UNL     1      -2.429  -4.174   0.003  0.00  0.00    +0.010 A 
ATOM     16  C   UNL     1      -2.448  -2.774   0.011  0.00  0.00    -0.005 A 
ATOM     17  C   UNL     1      -3.670  -2.091   0.032  0.00  0.00    +0.010 A 
ATOM     18  C   UNL     1      -4.842  -2.790   0.034  0.00  0.00    +0.015 A 
BRANCH  13  19
ATOM     19  C   UNL     1      -6.090  -4.943   0.035  0.00  0.00    +0.339 C 
ATOM     20  O   UNL     1      -6.073  -6.158   0.029  0.00  0.00    -0.245 OA
BRANCH  19  22
ATOM     21  C   UNL     1      -8.473  -5.093   0.058  0.00  0.00    +0.280 C 
ATOM     22  O   UNL     1      -7.266  -4.285   0.050  0.00  0.00    -0.464 OA
ENDBRANCH  19  22
ENDBRANCH  13  19
ENDBRANCH  11  16
ENDBRANCH   1  12
BRANCH   5  23
ATOM     23  S   UNL     1       1.505   4.981   0.015  0.00  0.00    -0.084 S 
BRANCH  23  24
ATOM     24  C   UNL     1       0.159   6.191   0.034  0.00  0.00    +0.078 C 
BRANCH  24  25
ATOM     25  C   UNL     1       0.745   7.605   0.036  0.00  0.00    +0.016 C 
BRANCH  25  26
ATOM     26  C   UNL     1      -0.392   8.628   0.053  0.00  0.00    +0.036 C 
BRANCH  26  27
ATOM     27  C   UNL     1       0.185  10.020   0.055  0.00  0.00    -0.047 A 
ATOM     28  C   UNL     1       0.455  10.654   1.253  0.00  0.00    +0.003 A 
ATOM     29  C   UNL     1       0.989  11.930   1.255  0.00  0.00    +0.000 A 
ATOM     30  C   UNL     1       1.243  12.575   0.059  0.00  0.00    +0.000 A 
ATOM     31  C   UNL     1       0.967  11.943  -1.139  0.00  0.00    +0.000 A 
ATOM     32  C   UNL     1       0.438  10.665  -1.141  0.00  0.00    +0.003 A 
ENDBRANCH  26  27
ENDBRANCH  25  26
ENDBRANCH  24  25
ENDBRANCH  23  24
ENDBRANCH   5  23
TORSDOF 10
