REMARK  Name = ZINC01461253
REMARK  13 active torsions:
REMARK  status: ('A' for Active; 'I' for Inactive)
REMARK    1  A    between atoms: C_1  and  C_2
REMARK    2  A    between atoms: C_2  and  N_26
REMARK    3  A    between atoms: C_4  and  N_15
REMARK    4  A    between atoms: C_10  and  O_13
REMARK    5  A    between atoms: O_13  and  C_14
REMARK    6  A    between atoms: C_16  and  C_17
REMARK    7  A    between atoms: C_21  and  O_24
REMARK    8  A    between atoms: C_22  and  O_23
REMARK    9  A    between atoms: O_24  and  C_25
REMARK   10  A    between atoms: C_27  and  C_28
REMARK   11  A    between atoms: C_32  and  O_35
REMARK   12  A    between atoms: C_33  and  O_34
REMARK   13  A    between atoms: O_35  and  C_36
REMARK                            x       y       z     vdW  Elec       q    Type
REMARK                         _______ _______ _______ _____ _____    ______ ____
ROOT
ATOM      1  C   UNL     1      -0.043   1.538  -0.016  0.00  0.00    +0.083 C 
ATOM      2  C   UNL     1      -0.011   0.008  -0.015  0.00  0.00    +0.201 C 
ATOM      3  C   UNL     1       0.729  -0.494  -1.261  0.00  0.00    +0.102 C 
ATOM      4  C   UNL     1       0.647  -2.022  -1.285  0.00  0.00    +0.118 C 
ATOM      5  C   UNL     1       1.021  -2.573   0.068  0.00  0.00    +0.020 A 
ATOM      6  C   UNL     1       1.377  -3.909   0.169  0.00  0.00    +0.009 A 
ATOM      7  C   UNL     1       1.722  -4.450   1.391  0.00  0.00    +0.004 A 
ATOM      8  C   UNL     1       1.714  -3.659   2.525  0.00  0.00    +0.049 A 
ATOM      9  C   UNL     1       1.361  -2.324   2.432  0.00  0.00    +0.162 A 
ATOM     10  C   UNL     1       1.015  -1.775   1.196  0.00  0.00    +0.170 A 
ATOM     11  O   UNL     1       0.685  -0.458   1.142  0.00  0.00    -0.461 OA
ENDROOT
BRANCH   4  12
ATOM     12  N   UNL     1       1.571  -2.544  -2.295  0.00  0.00    -0.383 N 
ATOM     13  C   UNL     1       1.120  -3.249  -3.282  0.00  0.00    +0.090 C 
ATOM     14  H   UNL     1       2.521  -2.361  -2.224  0.00  0.00    +0.160 HD
BRANCH  13  15
ATOM     15  C   UNL     1       2.031  -3.681  -4.357  0.00  0.00    +0.036 A 
ATOM     16  C   UNL     1       1.528  -4.342  -5.482  0.00  0.00    +0.013 A 
ATOM     17  C   UNL     1       2.384  -4.743  -6.485  0.00  0.00    +0.004 A 
ATOM     18  C   UNL     1       3.743  -4.496  -6.386  0.00  0.00    +0.049 A 
ATOM     19  C   UNL     1       4.256  -3.842  -5.278  0.00  0.00    +0.162 A 
ATOM     20  C   UNL     1       3.404  -3.426  -4.260  0.00  0.00    +0.167 A 
BRANCH  20  21
ATOM     21  O   UNL     1       3.903  -2.779  -3.175  0.00  0.00    -0.503 OA
ATOM     22  H   UNL     1       4.163  -3.367  -2.452  0.00  0.00    +0.292 HD
ENDBRANCH  20  21
BRANCH  19  23
ATOM     23  O   UNL     1       5.592  -3.603  -5.188  0.00  0.00    -0.491 OA
ATOM     24  C   UNL     1       6.406  -4.053  -6.272  0.00  0.00    +0.277 C 
ENDBRANCH  19  23
ENDBRANCH  13  15
ENDBRANCH   4  12
BRANCH   9  25
ATOM     25  O   UNL     1       1.352  -1.546   3.547  0.00  0.00    -0.491 OA
ATOM     26  C   UNL     1       1.717  -2.172   4.779  0.00  0.00    +0.277 C 
ENDBRANCH   9  25
BRANCH   2  27
ATOM     27  N   UNL     1      -1.381  -0.513  -0.010  0.00  0.00    -0.246 NA
ATOM     28  C   UNL     1      -2.182  -0.219   0.963  0.00  0.00    +0.121 C 
BRANCH  28  29
ATOM     29  C   UNL     1      -3.559  -0.743   0.967  0.00  0.00    +0.038 A 
ATOM     30  C   UNL     1      -4.429  -0.423   2.014  0.00  0.00    +0.013 A 
ATOM     31  C   UNL     1      -5.716  -0.915   2.014  0.00  0.00    +0.004 A 
ATOM     32  C   UNL     1      -6.155  -1.728   0.982  0.00  0.00    +0.049 A 
ATOM     33  C   UNL     1      -5.305  -2.054  -0.061  0.00  0.00    +0.162 A 
ATOM     34  C   UNL     1      -4.005  -1.560  -0.079  0.00  0.00    +0.167 A 
BRANCH  34  35
ATOM     35  O   UNL     1      -3.170  -1.873  -1.103  0.00  0.00    -0.503 OA
ATOM     36  H   UNL     1      -2.654  -2.678  -0.959  0.00  0.00    +0.292 HD
ENDBRANCH  34  35
BRANCH  33  37
ATOM     37  O   UNL     1      -5.743  -2.852  -1.071  0.00  0.00    -0.491 OA
ATOM     38  C   UNL     1      -7.091  -3.318  -0.992  0.00  0.00    +0.277 C 
ENDBRANCH  33  37
ENDBRANCH  28  29
ENDBRANCH   2  27
TORSDOF 9
