REMARK  Name = ZINC06472969
REMARK  8 active torsions:
REMARK  status: ('A' for Active; 'I' for Inactive)
REMARK    1  A    between atoms: C_1  and  C_2
REMARK    2  A    between atoms: C_2  and  N_3
REMARK    3  A    between atoms: C_14  and  C_28
REMARK    4  A    between atoms: C_14  and  C_29
REMARK    5  A    between atoms: C_16  and  C_17
REMARK    6  A    between atoms: C_17  and  C_19
REMARK    7  A    between atoms: C_19  and  S_20
REMARK    8  A    between atoms: S_20  and  C_21
REMARK                            x       y       z     vdW  Elec       q    Type
REMARK                         _______ _______ _______ _____ _____    ______ ____
ROOT
ATOM      1  N   UNL     1       0.051  -1.010  -2.446  0.00  0.00    -0.303 N 
ATOM      2  C   UNL     1       0.127  -1.649  -3.683  0.00  0.00    +0.038 A 
ATOM      3  C   UNL     1      -0.886  -1.943  -4.615  0.00  0.00    +0.024 A 
ATOM      4  C   UNL     1      -0.608  -2.580  -5.780  0.00  0.00    +0.010 A 
ATOM      5  C   UNL     1       0.711  -2.962  -6.079  0.00  0.00    -0.017 A 
ATOM      6  C   UNL     1       1.028  -3.623  -7.277  0.00  0.00    +0.008 A 
ATOM      7  C   UNL     1       2.317  -3.977  -7.532  0.00  0.00    +0.001 A 
ATOM      8  C   UNL     1       3.332  -3.694  -6.620  0.00  0.00    +0.001 A 
ATOM      9  C   UNL     1       3.064  -3.056  -5.449  0.00  0.00    +0.009 A 
ATOM     10  C   UNL     1       1.744  -2.674  -5.150  0.00  0.00    -0.012 A 
ATOM     11  C   UNL     1       1.427  -2.015  -3.956  0.00  0.00    -0.007 A 
ATOM     12  C   UNL     1       2.264  -1.567  -2.780  0.00  0.00    +0.031 C 
ATOM     13  C   UNL     1       1.267  -0.915  -1.846  0.00  0.00    +0.024 C 
ATOM     14  C   UNL     1       1.535  -0.347  -0.644  0.00  0.00    +0.067 C 
ATOM     15  C   UNL     1       2.929  -2.769  -2.107  0.00  0.00    +0.022 C 
ATOM     16  C   UNL     1       3.317  -0.551  -3.228  0.00  0.00    +0.022 C 
ENDROOT
BRANCH   1  18
ATOM     17  C   UNL     1      -1.405   0.950  -2.310  0.00  0.00    +0.024 C 
ATOM     18  C   UNL     1      -1.192  -0.498  -1.864  0.00  0.00    +0.107 C 
ENDBRANCH   1  18
BRANCH  14  19
ATOM     19  C   UNL     1       2.836  -0.391  -0.123  0.00  0.00    +0.168 C 
ATOM     20  O   UNL     1       3.744  -0.842  -0.793  0.00  0.00    -0.292 OA
BRANCH  19  21
ATOM     21  C   UNL     1       3.108   0.121   1.268  0.00  0.00    +0.156 C 
BRANCH  21  22
ATOM     22  S   UNL     1       4.871  -0.070   1.649  0.00  0.00    -0.076 S 
BRANCH  22  23
ATOM     23  C   UNL     1       5.025   0.565   3.285  0.00  0.00    +0.210 A 
ATOM     24  N   UNL     1       6.160   0.629   3.991  0.00  0.00    -0.188 NA
ATOM     25  H   UNL     1       4.130   1.840   5.988  0.00  0.00    +0.192 HD
ATOM     26  C   UNL     1       5.918   1.157   5.172  0.00  0.00    +0.209 A 
ATOM     27  N   UNL     1       4.601   1.443   5.238  0.00  0.00    -0.246 N 
ATOM     28  N   UNL     1       4.047   1.057   4.007  0.00  0.00    -0.144 NA
ATOM     29  N   UNL     1       6.849   1.379   6.170  0.00  0.00    -0.328 N 
ATOM     30  H   UNL     1       7.778   1.139   6.028  0.00  0.00    +0.145 HD
ATOM     31  H   UNL     1       6.574   1.775   7.011  0.00  0.00    +0.145 HD
ENDBRANCH  22  23
ENDBRANCH  21  22
ENDBRANCH  19  21
ENDBRANCH  14  19
TORSDOF 5
