REMARK  Name = ZINC36821091
REMARK  9 active torsions:
REMARK  status: ('A' for Active; 'I' for Inactive)
REMARK    1  A    between atoms: C_1  and  C_2
REMARK    2  A    between atoms: C_3  and  C_30
REMARK    3  A    between atoms: N_9  and  C_27
REMARK    4  A    between atoms: C_10  and  S_12
REMARK    5  A    between atoms: S_12  and  C_13
REMARK    6  A    between atoms: C_13  and  C_15
REMARK    7  A    between atoms: C_13  and  C_16
REMARK    8  A    between atoms: C_27  and  C_28
REMARK    9  A    between atoms: C_27  and  C_29
REMARK                            x       y       z     vdW  Elec       q    Type
REMARK                         _______ _______ _______ _____ _____    ______ ____
ROOT
ATOM      1  C   UNL     1      -0.063   1.504   0.012  0.00  0.00    +0.045 C 
ATOM      2  C   UNL     1      -0.028  -0.003   0.004  0.00  0.00    -0.026 A 
ATOM      3  C   UNL     1      -0.010  -0.674  -1.157  0.00  0.00    -0.008 A 
ATOM      4  S   UNL     1       0.029  -2.382  -0.647  0.00  0.00    -0.073 S 
ATOM      5  C   UNL     1       0.021  -2.145   1.111  0.00  0.00    +0.117 A 
ATOM      6  C   UNL     1      -0.007  -0.745   1.253  0.00  0.00    +0.075 A 
ATOM      7  C   UNL     1      -0.015  -0.255   2.597  0.00  0.00    +0.263 A 
ATOM      8  O   UNL     1      -0.043   0.944   2.817  0.00  0.00    -0.267 OA
ATOM      9  N   UNL     1       0.009  -1.134   3.615  0.00  0.00    -0.285 N 
ATOM     10  C   UNL     1       0.040  -2.480   3.388  0.00  0.00    +0.174 A 
ATOM     11  N   UNL     1       0.037  -2.958   2.160  0.00  0.00    -0.216 NA
ATOM     12  C   UNL     1      -0.021  -0.118  -2.558  0.00  0.00    +0.052 C 
ENDROOT
BRANCH   9  13
ATOM     13  C   UNL     1       0.001  -0.638   4.993  0.00  0.00    +0.087 C 
ATOM     14  C   UNL     1       1.231   0.242   5.225  0.00  0.00    +0.031 C 
ATOM     15  C   UNL     1      -1.267   0.184   5.232  0.00  0.00    +0.031 C 
ENDBRANCH   9  13
BRANCH  10  16
ATOM     16  S   UNL     1       0.070  -3.591   4.754  0.00  0.00    -0.075 S 
BRANCH  16  17
ATOM     17  C   UNL     1       0.106  -5.233   3.983  0.00  0.00    +0.137 C 
ATOM     18  C   UNL     1       1.416  -5.405   3.212  0.00  0.00    +0.029 C 
BRANCH  17  19
ATOM     19  C   UNL     1       0.010  -6.292   5.052  0.00  0.00    +0.233 C 
ATOM     20  O   UNL     1       0.385  -6.051   6.180  0.00  0.00    -0.274 OA
ATOM     21  N   UNL     1      -0.492  -7.506   4.753  0.00  0.00    -0.270 N 
ATOM     22  C   UNL     1      -0.870  -7.953   3.410  0.00  0.00    +0.118 C 
ATOM     23  C   UNL     1      -1.381  -9.391   3.591  0.00  0.00    +0.056 C 
ATOM     24  C   UNL     1      -1.250  -9.658   5.074  0.00  0.00    -0.024 A 
ATOM     25  C   UNL     1      -0.724  -8.527   5.680  0.00  0.00    +0.040 A 
ATOM     26  C   UNL     1      -0.506  -8.538   7.059  0.00  0.00    +0.024 A 
ATOM     27  C   UNL     1      -0.806  -9.660   7.802  0.00  0.00    +0.002 A 
ATOM     28  C   UNL     1      -1.325 -10.784   7.187  0.00  0.00    +0.000 A 
ATOM     29  C   UNL     1      -1.553 -10.778   5.823  0.00  0.00    +0.005 A 
ENDBRANCH  17  19
ENDBRANCH  16  17
ENDBRANCH  10  16
TORSDOF 4
