REMARK  Name = ZINC10266648
REMARK  13 active torsions:
REMARK  status: ('A' for Active; 'I' for Inactive)
REMARK    1  A    between atoms: C_1  and  C_2
REMARK    2  A    between atoms: C_2  and  C_3
REMARK    3  A    between atoms: C_3  and  C_4
REMARK    4  A    between atoms: C_4  and  C_5
REMARK    5  A    between atoms: C_5  and  N_6
REMARK    6  A    between atoms: C_19  and  S_20
REMARK    7  A    between atoms: S_20  and  C_21
REMARK    8  A    between atoms: C_21  and  C_23
REMARK    9  A    between atoms: C_21  and  C_24
REMARK   10  A    between atoms: C_24  and  C_26
REMARK   11  A    between atoms: C_27  and  N_36
REMARK   12  A    between atoms: N_28  and  C_35
REMARK   13  A    between atoms: N_31  and  C_34
REMARK                            x       y       z     vdW  Elec       q    Type
REMARK                         _______ _______ _______ _____ _____    ______ ____
ROOT
ATOM      1  N   UNL     1       6.878  -7.111   2.183  0.00  0.00    -0.277 N 
ATOM      2  C   UNL     1       6.393  -8.323   1.848  0.00  0.00    +0.263 A 
ATOM      3  O   UNL     1       7.085  -9.318   1.954  0.00  0.00    -0.267 OA
ATOM      4  C   UNL     1       5.009  -8.422   1.350  0.00  0.00    +0.064 A 
ATOM      5  C   UNL     1       4.456  -9.650   0.989  0.00  0.00    +0.015 A 
ATOM      6  C   UNL     1       3.157  -9.703   0.528  0.00  0.00    +0.001 A 
ATOM      7  C   UNL     1       2.403  -8.544   0.424  0.00  0.00    +0.002 A 
ATOM      8  C   UNL     1       2.940  -7.322   0.778  0.00  0.00    +0.027 A 
ATOM      9  C   UNL     1       4.244  -7.251   1.243  0.00  0.00    +0.064 A 
ATOM     10  N   UNL     1       4.810  -6.031   1.609  0.00  0.00    -0.256 N 
ATOM     11  C   UNL     1       6.097  -5.971   2.067  0.00  0.00    +0.240 A 
ATOM     12  N   UNL     1       6.370  -4.713   2.336  0.00  0.00    -0.109 NA
ATOM     13  N   UNL     1       5.235  -3.949   2.039  0.00  0.00    -0.120 NA
ATOM     14  C   UNL     1       4.301  -4.760   1.607  0.00  0.00    +0.198 A 
ENDROOT
BRANCH   1  15
ATOM     15  C   UNL     1       8.252  -6.996   2.679  0.00  0.00    +0.128 C 
BRANCH  15  16
ATOM     16  C   UNL     1       8.258  -7.142   4.202  0.00  0.00    +0.022 C 
BRANCH  16  17
ATOM     17  C   UNL     1       9.693  -7.022   4.720  0.00  0.00    +0.001 C 
BRANCH  17  19
ATOM     18  C   UNL     1      11.134  -7.048   6.761  0.00  0.00    +0.004 C 
ATOM     19  C   UNL     1       9.699  -7.168   6.243  0.00  0.00    -0.003 C 
ENDBRANCH  17  19
ENDBRANCH  16  17
ENDBRANCH  15  16
ENDBRANCH   1  15
BRANCH  14  20
ATOM     20  S   UNL     1       2.678  -4.295   1.103  0.00  0.00    -0.074 S 
BRANCH  20  21
ATOM     21  C   UNL     1       2.643  -2.497   1.339  0.00  0.00    +0.122 C 
ATOM     22  C   UNL     1       2.782  -2.175   2.829  0.00  0.00    +0.028 C 
BRANCH  21  23
ATOM     23  C   UNL     1       1.337  -1.948   0.826  0.00  0.00    +0.185 C 
ATOM     24  O   UNL     1       0.356  -2.663   0.775  0.00  0.00    -0.291 OA
BRANCH  23  25
ATOM     25  C   UNL     1       1.253  -0.604   0.405  0.00  0.00    +0.121 A 
ATOM     26  C   UNL     1       0.084  -0.103  -0.194  0.00  0.00    +0.116 A 
ATOM     27  N   UNL     1       0.051   1.206  -0.585  0.00  0.00    -0.284 N 
ATOM     28  C   UNL     1       1.108   2.014  -0.407  0.00  0.00    +0.333 A 
ATOM     29  O   UNL     1       1.028   3.170  -0.773  0.00  0.00    -0.246 OA
ATOM     30  N   UNL     1       2.250   1.592   0.159  0.00  0.00    -0.263 N 
ATOM     31  C   UNL     1       2.384   0.317   0.579  0.00  0.00    +0.269 A 
ATOM     32  O   UNL     1       3.421  -0.062   1.092  0.00  0.00    -0.267 OA
ATOM     33  C   UNL     1       3.365   2.528   0.322  0.00  0.00    +0.157 C 
ATOM     34  C   UNL     1      -1.160   1.736  -1.216  0.00  0.00    +0.155 C 
BRANCH  26  35
ATOM     35  N   UNL     1      -0.996  -0.908  -0.382  0.00  0.00    -0.344 N 
ATOM     36  H   UNL     1      -1.882  -0.521  -0.460  0.00  0.00    +0.144 HD
ATOM     37  H   UNL     1      -0.881  -1.869  -0.438  0.00  0.00    +0.144 HD
ENDBRANCH  26  35
ENDBRANCH  23  25
ENDBRANCH  21  23
ENDBRANCH  20  21
ENDBRANCH  14  20
TORSDOF 9
