REMARK  Name = ZINC38979619
REMARK  6 active torsions:
REMARK  status: ('A' for Active; 'I' for Inactive)
REMARK    1  A    between atoms: C_1  and  O_2
REMARK    2  A    between atoms: O_2  and  C_3
REMARK    3  A    between atoms: C_6  and  S_9
REMARK    4  A    between atoms: S_9  and  N_12
REMARK    5  A    between atoms: C_14  and  N_24
REMARK    6  A    between atoms: N_24  and  C_25
REMARK                            x       y       z     vdW  Elec       q    Type
REMARK                         _______ _______ _______ _____ _____    ______ ____
ROOT
ATOM      1  N   UNL     1      -5.872  -2.863  -1.389  0.00  0.00    -0.110 NA
ATOM      2  C   UNL     1      -6.919  -3.529  -1.778  0.00  0.00    +0.192 C 
ATOM      3  C   UNL     1      -7.169  -3.776  -3.249  0.00  0.00    +0.237 C 
ATOM      4  N   UNL     1      -8.371  -4.537  -3.623  0.00  0.00    -0.359 N 
ATOM      5  C   UNL     1      -9.160  -4.959  -2.675  0.00  0.00    +0.063 A 
ATOM      6  C   UNL     1     -10.375  -5.723  -2.997  0.00  0.00    +0.027 A 
ATOM      7  C   UNL     1     -11.168  -6.144  -1.987  0.00  0.00    +0.002 A 
ATOM      8  C   UNL     1     -10.861  -5.871  -0.644  0.00  0.00    +0.002 A 
ATOM      9  C   UNL     1      -9.765  -5.175  -0.271  0.00  0.00    +0.030 A 
ATOM     10  C   UNL     1      -8.862  -4.685  -1.248  0.00  0.00    +0.089 A 
ATOM     11  N   UNL     1      -7.792  -4.011  -0.879  0.00  0.00    -0.226 NA
ATOM     12  H   UNL     1      -8.572  -4.720  -4.554  0.00  0.00    +0.162 HD
ENDROOT
BRANCH   1  13
ATOM     13  S   UNL     1      -5.607  -2.605   0.225  0.00  0.00    +0.100 S 
ATOM     14  O   UNL     1      -5.353  -3.878   0.803  0.00  0.00    -0.146 OA
ATOM     15  O   UNL     1      -6.654  -1.758   0.678  0.00  0.00    -0.146 OA
BRANCH  13  19
ATOM     16  C   UNL     1      -1.770  -0.228   0.590  0.00  0.00    +0.120 A 
ATOM     17  C   UNL     1      -2.986   0.429   0.473  0.00  0.00    +0.047 A 
ATOM     18  C   UNL     1      -4.155  -0.298   0.362  0.00  0.00    +0.032 A 
ATOM     19  C   UNL     1      -4.114  -1.680   0.367  0.00  0.00    +0.113 A 
ATOM     20  C   UNL     1      -2.904  -2.337   0.483  0.00  0.00    +0.032 A 
ATOM     21  C   UNL     1      -1.731  -1.615   0.588  0.00  0.00    +0.047 A 
BRANCH  16  23
ATOM     22  C   UNL     1      -0.735   1.910   0.693  0.00  0.00    +0.277 C 
ATOM     23  O   UNL     1      -0.619   0.485   0.699  0.00  0.00    -0.495 OA
ENDBRANCH  16  23
ENDBRANCH  13  19
ENDBRANCH   1  13
BRANCH   3  24
ATOM     24  N   UNL     1      -7.239  -2.474  -3.916  0.00  0.00    -0.317 N 
ATOM     25  H   UNL     1      -7.737  -1.747  -3.510  0.00  0.00    +0.148 HD
BRANCH  24  26
ATOM     26  C   UNL     1      -6.587  -2.278  -5.137  0.00  0.00    +0.048 A 
ATOM     27  C   UNL     1      -5.980  -3.348  -5.782  0.00  0.00    +0.026 A 
ATOM     28  C   UNL     1      -5.337  -3.152  -6.988  0.00  0.00    +0.022 A 
ATOM     29  C   UNL     1      -5.296  -1.890  -7.555  0.00  0.00    +0.042 A 
ATOM     30  C   UNL     1      -5.899  -0.821  -6.915  0.00  0.00    +0.041 A 
ATOM     31  C   UNL     1      -6.549  -1.012  -5.711  0.00  0.00    +0.063 A 
ATOM     32 CL   UNL     1      -7.312   0.327  -4.912  0.00  0.00    -0.082 Cl
ATOM     33 CL   UNL     1      -4.487  -1.647  -9.071  0.00  0.00    -0.083 Cl
ENDBRANCH  24  26
ENDBRANCH   3  24
TORSDOF 5
