REMARK  Name = ZINC64921061
REMARK  5 active torsions:
REMARK  status: ('A' for Active; 'I' for Inactive)
REMARK    1  A    between atoms: C_1  and  C_2
REMARK    2  A    between atoms: C_7  and  S_8
REMARK    3  A    between atoms: S_8  and  N_11
REMARK    4  A    between atoms: C_15  and  C_17
REMARK    5  A    between atoms: C_30  and  C_35
REMARK                            x       y       z     vdW  Elec       q    Type
REMARK                         _______ _______ _______ _____ _____    ______ ____
ROOT
ATOM      1  S   UNL     1      -0.400   0.997   3.007  0.00  0.00    +0.062 S 
ATOM      2  O   UNL     1      -0.579  -0.412   3.010  0.00  0.00    -0.153 OA
ATOM      3  O   UNL     1      -0.876   1.824   1.954  0.00  0.00    -0.153 OA
ENDROOT
BRANCH   1  10
ATOM      4  C   UNL     1       0.157  -0.136   5.750  0.00  0.00    +0.046 C 
ATOM      5  C   UNL     1      -0.814   1.016   5.703  0.00  0.00    -0.022 A 
ATOM      6  C   UNL     1      -1.379   1.489   6.874  0.00  0.00    +0.032 A 
ATOM      7  C   UNL     1      -2.271   2.547   6.829  0.00  0.00    +0.076 A 
ATOM      8  C   UNL     1      -2.596   3.134   5.606  0.00  0.00    +0.145 A 
ATOM      9  C   UNL     1      -2.025   2.656   4.440  0.00  0.00    +0.076 A 
ATOM     10  C   UNL     1      -1.131   1.601   4.492  0.00  0.00    +0.112 A 
ATOM     11  O   UNL     1      -3.474   4.171   5.575  0.00  0.00    -0.478 OA
ATOM     12  C   UNL     1      -4.518   4.160   6.553  0.00  0.00    +0.256 C 
ATOM     13  C   UNL     1      -3.938   3.845   7.908  0.00  0.00    +0.258 C 
ATOM     14  O   UNL     1      -4.442   4.309   8.909  0.00  0.00    -0.271 OA
ATOM     15  N   UNL     1      -2.855   3.043   8.004  0.00  0.00    -0.280 N 
ATOM     16  C   UNL     1      -5.191   5.534   6.595  0.00  0.00    +0.062 C 
ATOM     17  H   UNL     1      -2.488   2.812   8.871  0.00  0.00    +0.155 HD
ENDBRANCH   1  10
BRANCH   1  18
ATOM     18  N   UNL     1       1.230   1.267   3.119  0.00  0.00    -0.165 NA
ATOM     19  C   UNL     1       2.237   0.281   3.553  0.00  0.00    +0.110 C 
ATOM     20  C   UNL     1       3.564   0.762   2.915  0.00  0.00    +0.019 C 
ATOM     21  C   UNL     1       3.424   2.303   3.028  0.00  0.00    +0.031 C 
ATOM     22  C   UNL     1       1.915   2.528   2.798  0.00  0.00    +0.166 C 
BRANCH  22  23
ATOM     23  C   UNL     1       1.663   2.895   1.358  0.00  0.00    +0.234 C 
ATOM     24  O   UNL     1       1.354   2.037   0.559  0.00  0.00    -0.274 OA
ATOM     25  N   UNL     1       1.780   4.177   0.959  0.00  0.00    -0.300 N 
ATOM     26  C   UNL     1       2.159   5.227   1.914  0.00  0.00    +0.113 C 
ATOM     27  C   UNL     1       1.112   6.344   1.860  0.00  0.00    +0.084 C 
ATOM     28  C   UNL     1       0.961   6.828   0.416  0.00  0.00    +0.173 C 
ATOM     29  C   UNL     1       0.491   5.675  -0.472  0.00  0.00    +0.084 C 
ATOM     30  C   UNL     1       1.538   4.551  -0.441  0.00  0.00    +0.113 C 
ATOM     31  O   UNL     1       0.007   7.896   0.365  0.00  0.00    -0.346 OA
ATOM     32  C   UNL     1       0.687   9.052  -0.164  0.00  0.00    +0.191 C 
ATOM     33  C   UNL     1       1.897   8.437  -0.911  0.00  0.00    +0.191 C 
ATOM     34  O   UNL     1       2.227   7.312  -0.060  0.00  0.00    -0.346 OA
ENDBRANCH  22  23
ENDBRANCH   1  18
TORSDOF 3
