REMARK  Name = ZINC67513572
REMARK  6 active torsions:
REMARK  status: ('A' for Active; 'I' for Inactive)
REMARK    1  A    between atoms: C_1  and  C_2
REMARK    2  A    between atoms: C_6  and  C_7
REMARK    3  A    between atoms: N_11  and  C_16
REMARK    4  A    between atoms: C_13  and  O_15
REMARK    5  A    between atoms: C_16  and  C_17
REMARK    6  A    between atoms: C_20  and  C_22
REMARK                            x       y       z     vdW  Elec       q    Type
REMARK                         _______ _______ _______ _____ _____    ______ ____
ROOT
ATOM      1  C   UNL     1       0.030  -0.179   2.581  0.00  0.00    +0.051 C 
ATOM      2  C   UNL     1       1.291  -0.666   3.299  0.00  0.00    -0.008 C 
ATOM      3  C   UNL     1       1.253  -0.202   4.757  0.00  0.00    -0.077 C 
ATOM      4  N   UNL     1       0.066  -0.755   5.419  0.00  0.00    +0.386 N 
ATOM      5  C   UNL     1      -1.149  -0.235   4.781  0.00  0.00    -0.046 C 
ATOM      6  C   UNL     1      -1.204  -0.699   3.324  0.00  0.00    +0.106 C 
ATOM      7  H   UNL     1       0.079  -1.762   5.345  0.00  0.00    -0.081 HD
ENDROOT
BRANCH   1  13
ATOM      8  C   UNL     1      -0.018   1.503   0.010  0.00  0.00    +0.044 C 
ATOM      9  C   UNL     1       0.002  -0.004   0.002  0.00  0.00    -0.040 A 
ATOM     10  C   UNL     1       0.006  -0.699  -1.193  0.00  0.00    +0.011 A 
ATOM     11  C   UNL     1       0.024  -2.054  -1.165  0.00  0.00    +0.046 A 
ATOM     12  S   UNL     1       0.037  -2.387   0.589  0.00  0.00    -0.101 S 
ATOM     13  C   UNL     1       0.023  -0.698   1.166  0.00  0.00    -0.002 A 
ENDBRANCH   1  13
BRANCH   6  14
ATOM     14  O   UNL     1      -2.386  -0.188   2.703  0.00  0.00    -0.393 OA
ATOM     15  H   UNL     1      -3.207  -0.477   3.123  0.00  0.00    +0.210 HD
ENDBRANCH   6  14
BRANCH   4  16
ATOM     16  C   UNL     1       0.075  -0.372   6.837  0.00  0.00    -0.003 C 
BRANCH  16  17
ATOM     17  C   UNL     1       1.252  -1.014   7.524  0.00  0.00    +0.089 A 
ATOM     18  C   UNL     1       2.481  -0.475   7.647  0.00  0.00    +0.043 A 
ATOM     19  C   UNL     1       3.271  -1.405   8.353  0.00  0.00    +0.052 A 
ATOM     20  C   UNL     1       2.472  -2.471   8.625  0.00  0.00    +0.155 A 
ATOM     21  O   UNL     1       1.249  -2.218   8.121  0.00  0.00    -0.460 OA
BRANCH  20  22
ATOM     22  C   UNL     1       2.875  -3.694   9.352  0.00  0.00    +0.127 A 
ATOM     23  C   UNL     1       2.051  -4.804   9.631  0.00  0.00    +0.052 A 
ATOM     24  C   UNL     1       2.790  -5.708  10.309  0.00  0.00    +0.105 A 
ATOM     25  N   UNL     1       4.033  -5.203  10.460  0.00  0.00    -0.284 N 
ATOM     26  H   UNL     1       4.774  -5.638  10.911  0.00  0.00    +0.188 HD
ATOM     27  N   UNL     1       4.070  -3.942   9.850  0.00  0.00    -0.171 NA
ENDBRANCH  20  22
ENDBRANCH  16  17
ENDBRANCH   4  16
TORSDOF 5
