REMARK  Name = ZINC39996792
REMARK  8 active torsions:
REMARK  status: ('A' for Active; 'I' for Inactive)
REMARK    1  A    between atoms: C_1  and  C_2
REMARK    2  A    between atoms: C_2  and  C_4
REMARK    3  A    between atoms: C_2  and  S_18
REMARK    4  A    between atoms: N_6  and  C_7
REMARK    5  A    between atoms: C_8  and  C_15
REMARK    6  A    between atoms: S_18  and  C_19
REMARK    7  A    between atoms: C_23  and  C_28
REMARK    8  A    between atoms: N_24  and  C_25
REMARK                            x       y       z     vdW  Elec       q    Type
REMARK                         _______ _______ _______ _____ _____    ______ ____
ROOT
ATOM      1  S   UNL     1       0.611  -0.824  -1.352  0.00  0.00    -0.106 S 
ENDROOT
BRANCH   1   2
ATOM      2  C   UNL     1      -0.223  -0.059  -2.770  0.00  0.00    +0.238 C 
ATOM      3  N   UNL     1      -0.397   1.386  -2.547  0.00  0.00    -0.237 N 
ATOM      4  N   UNL     1      -1.776   1.626  -2.557  0.00  0.00    -0.169 NA
ATOM      5  C   UNL     1      -2.449   0.523  -2.755  0.00  0.00    +0.147 C 
ATOM      6  N   UNL     1      -1.595  -0.577  -2.901  0.00  0.00    -0.282 N 
ATOM      7  H   UNL     1       0.305   2.042  -2.418  0.00  0.00    +0.171 HD
BRANCH   5   8
ATOM      8  C   UNL     1      -3.849   0.450  -2.814  0.00  0.00    +0.022 C 
ATOM      9  C   UNL     1      -4.752   1.514  -2.777  0.00  0.00    +0.006 A 
ATOM     10  C   UNL     1      -4.575   2.910  -2.676  0.00  0.00    +0.010 A 
ATOM     11  C   UNL     1      -5.660   3.727  -2.663  0.00  0.00    +0.001 A 
ATOM     12  C   UNL     1      -6.958   3.219  -2.748  0.00  0.00    +0.002 A 
ATOM     13  C   UNL     1      -7.202   1.889  -2.848  0.00  0.00    +0.026 A 
ATOM     14  C   UNL     1      -6.118   0.974  -2.867  0.00  0.00    +0.043 A 
ATOM     15  N   UNL     1      -6.089  -0.342  -2.956  0.00  0.00    -0.380 N 
ATOM     16  C   UNL     1      -4.695  -0.797  -2.939  0.00  0.00    +0.152 C 
ATOM     17  H   UNL     1      -6.867  -0.917  -3.025  0.00  0.00    +0.160 HD
ENDBRANCH   5   8
BRANCH   6  18
ATOM     18  C   UNL     1      -1.987  -1.969  -3.137  0.00  0.00    +0.078 C 
ATOM     19  C   UNL     1      -0.875  -3.019  -3.176  0.00  0.00    +0.024 C 
ATOM     20  C   UNL     1      -1.579  -2.601  -4.469  0.00  0.00    +0.024 C 
ENDBRANCH   6  18
ENDBRANCH   1   2
BRANCH   1  22
ATOM     21  C   UNL     1      -0.442   1.110   0.272  0.00  0.00    +0.029 C 
ATOM     22  C   UNL     1      -0.450  -0.405   0.059  0.00  0.00    +0.133 C 
BRANCH  22  23
ATOM     23  C   UNL     1       0.068  -1.089   1.298  0.00  0.00    +0.230 C 
ATOM     24  O   UNL     1       1.238  -1.398   1.375  0.00  0.00    -0.274 OA
ATOM     25  N   UNL     1      -0.769  -1.358   2.319  0.00  0.00    -0.278 N 
ATOM     26  H   UNL     1      -1.705  -1.111   2.257  0.00  0.00    +0.155 HD
BRANCH  25  27
ATOM     27  C   UNL     1      -0.292  -1.987   3.459  0.00  0.00    +0.084 A 
ATOM     28  C   UNL     1      -0.999  -2.344   4.592  0.00  0.00    +0.068 A 
ATOM     29  C   UNL     1      -0.257  -3.004   5.665  0.00  0.00    -0.023 A 
ATOM     30  C   UNL     1       1.050  -3.180   5.400  0.00  0.00    -0.004 A 
ATOM     31  S   UNL     1       1.273  -2.498   3.777  0.00  0.00    -0.077 S 
ATOM     32  C   UNL     1       1.766  -3.859   6.536  0.00  0.00    +0.043 C 
ATOM     33  C   UNL     1       0.815  -3.706   7.744  0.00  0.00    +0.010 C 
ATOM     34  C   UNL     1      -0.556  -3.573   7.050  0.00  0.00    +0.037 C 
BRANCH  28  35
ATOM     35  C   UNL     1      -2.434  -2.070   4.714  0.00  0.00    +0.244 C 
ATOM     36  O   UNL     1      -3.245  -2.895   4.335  0.00  0.00    -0.270 OA
ATOM     37  N   UNL     1      -2.856  -0.905   5.245  0.00  0.00    -0.325 N 
ATOM     38  H   UNL     1      -2.209  -0.247   5.546  0.00  0.00    +0.145 HD
ATOM     39  H   UNL     1      -3.805  -0.724   5.325  0.00  0.00    +0.145 HD
ENDBRANCH  28  35
ENDBRANCH  25  27
ENDBRANCH  22  23
ENDBRANCH   1  22
TORSDOF 7
