REMARK  Name = ZINC41076333
REMARK  7 active torsions:
REMARK  status: ('A' for Active; 'I' for Inactive)
REMARK    1  A    between atoms: C_1  and  C_2
REMARK    2  A    between atoms: C_2  and  C_3
REMARK    3  A    between atoms: C_8  and  N_9
REMARK    4  A    between atoms: C_10  and  C_33
REMARK    5  A    between atoms: C_12  and  C_15
REMARK    6  A    between atoms: C_13  and  C_14
REMARK    7  A    between atoms: C_25  and  C_27
REMARK                            x       y       z     vdW  Elec       q    Type
REMARK                         _______ _______ _______ _____ _____    ______ ____
ROOT
ATOM      1  C   UNL     1       4.961   1.533   1.737  0.00  0.00    +0.026 C 
ATOM      2  C   UNL     1       5.663   1.145   2.860  0.00  0.00    +0.081 C 
ATOM      3  C   UNL     1       6.453   2.116   3.666  0.00  0.00    +0.152 C 
ATOM      4  N   UNL     1       6.109   3.368   3.820  0.00  0.00    -0.283 NA
ATOM      5  N   UNL     1       7.610   1.553   4.246  0.00  0.00    -0.152 N 
ATOM      6  C   UNL     1       7.625   0.188   4.439  0.00  0.00    +0.181 C 
ATOM      7  N   UNL     1       6.722  -0.681   4.060  0.00  0.00    -0.152 NA
ATOM      8  C   UNL     1       5.665  -0.261   3.332  0.00  0.00    +0.273 C 
ATOM      9  O   UNL     1       4.742  -1.014   3.067  0.00  0.00    -0.268 OA
ATOM     10  S   UNL     1       9.161  -0.050   5.291  0.00  0.00    -0.038 S 
ATOM     11  C   UNL     1       9.721   1.647   5.243  0.00  0.00    +0.103 C 
ATOM     12  N   UNL     1       8.729   2.248   4.650  0.00  0.00    -0.169 NA
ATOM     13  H   UNL     1       6.660   3.959   4.356  0.00  0.00    +0.188 HD
ENDROOT
BRANCH   1  17
ATOM     14  N   UNL     1       2.941  -0.507  -0.418  0.00  0.00    -0.317 N 
ATOM     15  C   UNL     1       4.021  -1.334  -0.281  0.00  0.00    +0.022 A 
ATOM     16  C   UNL     1       4.930  -0.745   0.514  0.00  0.00    +0.031 A 
ATOM     17  C   UNL     1       4.364   0.555   0.901  0.00  0.00    -0.003 A 
ATOM     18  C   UNL     1       3.129   0.632   0.278  0.00  0.00    +0.028 A 
ATOM     19  C   UNL     1       2.164   1.786   0.365  0.00  0.00    +0.064 C 
ATOM     20  C   UNL     1       4.170  -2.691  -0.920  0.00  0.00    +0.064 C 
BRANCH  14  26
ATOM     21  C   UNL     1       0.796  -1.598  -0.648  0.00  0.00    -0.024 A 
ATOM     22  C   UNL     1      -0.329  -1.880  -1.398  0.00  0.00    +0.005 A 
ATOM     23  C   UNL     1      -0.452  -1.374  -2.679  0.00  0.00    +0.000 A 
ATOM     24  C   UNL     1       0.550  -0.585  -3.213  0.00  0.00    +0.002 A 
ATOM     25  C   UNL     1       1.677  -0.299  -2.468  0.00  0.00    +0.026 A 
ATOM     26  C   UNL     1       1.801  -0.801  -1.179  0.00  0.00    +0.050 A 
BRANCH  21  28
ATOM     27  C   UNL     1       0.390  -1.130   1.753  0.00  0.00    +0.009 C 
ATOM     28  C   UNL     1       0.929  -2.149   0.748  0.00  0.00    +0.034 C 
ENDBRANCH  21  28
ENDBRANCH  14  26
ENDBRANCH   1  17
BRANCH  11  29
ATOM     29  C   UNL     1      11.011   2.233   5.757  0.00  0.00    +0.046 C 
ATOM     30  C   UNL     1      10.809   3.717   6.068  0.00  0.00    +0.010 C 
ATOM     31  C   UNL     1      12.119   4.312   6.589  0.00  0.00    +0.001 C 
ATOM     32  C   UNL     1      13.208   4.157   5.526  0.00  0.00    +0.000 C 
ATOM     33  C   UNL     1      13.410   2.672   5.215  0.00  0.00    +0.001 C 
ATOM     34  C   UNL     1      12.101   2.078   4.694  0.00  0.00    +0.010 C 
ENDBRANCH  11  29
TORSDOF 4
