REMARK  Name = ZINC43722108
REMARK  11 active torsions:
REMARK  status: ('A' for Active; 'I' for Inactive)
REMARK    1  A    between atoms: C_1  and  C_2
REMARK    2  A    between atoms: C_2  and  O_4
REMARK    3  A    between atoms: O_4  and  C_5
REMARK    4  A    between atoms: C_10  and  C_41
REMARK    5  A    between atoms: C_13  and  C_30
REMARK    6  A    between atoms: C_19  and  C_25
REMARK    7  A    between atoms: C_21  and  C_24
REMARK    8  A    between atoms: C_31  and  O_40
REMARK    9  A    between atoms: C_34  and  O_39
REMARK   10  A    between atoms: C_36  and  C_37
REMARK   11  A    between atoms: C_36  and  C_38
REMARK                            x       y       z     vdW  Elec       q    Type
REMARK                         _______ _______ _______ _____ _____    ______ ____
ROOT
ATOM      1  C   UNL     1      -1.806  -3.075  -0.279  0.00  0.00    +0.187 C 
ATOM      2  C   UNL     1      -1.943  -3.839  -1.586  0.00  0.00    +0.050 C 
ATOM      3  C   UNL     1      -2.022  -5.352  -1.455  0.00  0.00    +0.009 C 
ATOM      4  C   UNL     1      -3.062  -5.772  -0.430  0.00  0.00    +0.001 C 
ATOM      5  C   UNL     1      -2.901  -5.022   0.872  0.00  0.00    +0.011 C 
ATOM      6  C   UNL     1      -2.832  -3.507   0.763  0.00  0.00    +0.030 C 
ATOM      7  C   UNL     1      -2.421  -2.999   2.140  0.00  0.00    -0.043 C 
ATOM      8  C   UNL     1      -1.428  -2.115   2.218  0.00  0.00    +0.092 C 
ATOM      9  C   UNL     1      -0.990  -1.601   3.530  0.00  0.00    +0.333 C 
ATOM     10  O   UNL     1       0.013  -0.917   3.639  0.00  0.00    -0.246 OA
ATOM     11  O   UNL     1      -1.746  -1.921   4.609  0.00  0.00    -0.453 OA
ATOM     12  C   UNL     1      -2.249  -3.257   4.616  0.00  0.00    +0.220 C 
ATOM     13  C   UNL     1      -3.113  -3.503   3.373  0.00  0.00    +0.031 C 
ATOM     14  C   UNL     1      -3.425  -4.994   3.293  0.00  0.00    +0.015 C 
ATOM     15  C   UNL     1      -3.955  -5.396   1.914  0.00  0.00    +0.006 C 
ATOM     16  C   UNL     1      -4.419  -2.733   3.592  0.00  0.00    +0.020 C 
ATOM     17  C   UNL     1      -4.168  -2.853   0.404  0.00  0.00    +0.020 C 
ATOM     18  C   UNL     1      -3.028  -7.285  -0.174  0.00  0.00    +0.123 C 
ATOM     19  C   UNL     1      -1.617  -7.773   0.114  0.00  0.00    +0.063 C 
ATOM     20  C   UNL     1      -0.725  -7.503  -1.090  0.00  0.00    +0.123 C 
ATOM     21  C   UNL     1      -0.659  -6.000  -1.374  0.00  0.00    -0.005 C 
ATOM     22  C   UNL     1       0.036  -5.846  -2.748  0.00  0.00    +0.014 C 
ATOM     23  C   UNL     1       0.253  -5.355  -0.329  0.00  0.00    +0.014 C 
ATOM     24  C   UNL     1      -4.459  -5.517  -1.043  0.00  0.00    +0.014 C 
ENDROOT
BRANCH  12  25
ATOM     25  C   UNL     1      -3.094  -3.456   5.848  0.00  0.00    +0.031 A 
ATOM     26  C   UNL     1      -3.129  -4.606   6.670  0.00  0.00    +0.048 A 
ATOM     27  C   UNL     1      -4.014  -4.357   7.652  0.00  0.00    +0.195 A 
ATOM     28  O   UNL     1      -4.513  -3.124   7.470  0.00  0.00    -0.471 OA
ATOM     29  C   UNL     1      -3.956  -2.571   6.380  0.00  0.00    +0.202 A 
ENDBRANCH  12  25
BRANCH  20  30
ATOM     30  O   UNL     1      -1.200  -8.194  -2.243  0.00  0.00    -0.391 OA
ATOM     31  H   UNL     1      -1.233  -9.155  -2.139  0.00  0.00    +0.210 HD
ENDBRANCH  20  30
BRANCH  18  32
ATOM     32  O   UNL     1      -3.567  -7.962  -1.314  0.00  0.00    -0.391 OA
ATOM     33  H   UNL     1      -3.580  -8.925  -1.230  0.00  0.00    +0.210 HD
ENDBRANCH  18  32
BRANCH   1  34
ATOM     34  O   UNL     1      -2.038  -1.678  -0.571  0.00  0.00    -0.461 OA
BRANCH  34  36
ATOM     35  C   UNL     1      -1.133   0.525  -1.221  0.00  0.00    +0.136 C 
ATOM     36  C   UNL     1      -0.968  -0.939  -0.903  0.00  0.00    +0.304 C 
ATOM     37  O   UNL     1       0.127  -1.447  -0.948  0.00  0.00    -0.251 OA
ENDBRANCH  34  36
ENDBRANCH   1  34
TORSDOF 5
