REMARK  Name = ZINC39849816
REMARK  6 active torsions:
REMARK  status: ('A' for Active; 'I' for Inactive)
REMARK    1  A    between atoms: C_1  and  C_2
REMARK    2  A    between atoms: C_7  and  C_8
REMARK    3  A    between atoms: C_8  and  N_9
REMARK    4  A    between atoms: N_21  and  C_24
REMARK    5  A    between atoms: C_24  and  C_26
REMARK    6  A    between atoms: C_24  and  C_27
REMARK                            x       y       z     vdW  Elec       q    Type
REMARK                         _______ _______ _______ _____ _____    ______ ____
ROOT
ATOM      1  N   UNL     1      -1.024  -0.212   3.288  0.00  0.00    -0.283 N 
ATOM      2  C   UNL     1      -1.476   1.015   2.875  0.00  0.00    +0.097 A 
ATOM      3  C   UNL     1      -2.773   1.436   3.159  0.00  0.00    +0.074 A 
ATOM      4  C   UNL     1      -3.129   2.765   2.661  0.00  0.00    -0.023 A 
ATOM      5  C   UNL     1      -2.146   3.400   1.992  0.00  0.00    -0.004 A 
ATOM      6  S   UNL     1      -0.783   2.272   2.019  0.00  0.00    -0.075 S 
ATOM      7  C   UNL     1      -2.214   4.761   1.370  0.00  0.00    +0.043 C 
ATOM      8  C   UNL     1      -3.689   5.177   1.281  0.00  0.00    +0.005 C 
ATOM      9  C   UNL     1      -4.361   4.916   2.632  0.00  0.00    +0.005 C 
ATOM     10  C   UNL     1      -4.492   3.410   2.867  0.00  0.00    +0.037 C 
ATOM     11  C   UNL     1      -3.609   0.485   3.924  0.00  0.00    +0.266 A 
ATOM     12  O   UNL     1      -4.756   0.770   4.216  0.00  0.00    -0.267 OA
ATOM     13  N   UNL     1      -3.087  -0.699   4.291  0.00  0.00    -0.253 N 
ATOM     14  C   UNL     1      -1.828  -1.043   3.977  0.00  0.00    +0.334 A 
ATOM     15  O   UNL     1      -1.402  -2.127   4.328  0.00  0.00    -0.246 OA
ENDROOT
BRANCH  13  16
ATOM     16  C   UNL     1      -3.916  -1.639   5.049  0.00  0.00    +0.122 C 
ATOM     17  C   UNL     1      -5.203  -0.941   5.494  0.00  0.00    +0.036 C 
BRANCH  16  18
ATOM     18  C   UNL     1      -4.261  -2.820   4.178  0.00  0.00    -0.025 A 
ATOM     19  C   UNL     1      -4.594  -2.625   2.851  0.00  0.00    +0.005 A 
ATOM     20  C   UNL     1      -4.910  -3.708   2.051  0.00  0.00    +0.000 A 
ATOM     21  C   UNL     1      -4.892  -4.985   2.579  0.00  0.00    +0.000 A 
ATOM     22  C   UNL     1      -4.558  -5.180   3.906  0.00  0.00    +0.000 A 
ATOM     23  C   UNL     1      -4.238  -4.098   4.705  0.00  0.00    +0.005 A 
ENDBRANCH  16  18
ENDBRANCH  13  16
BRANCH   1  24
ATOM     24  C   UNL     1       0.346  -0.624   2.972  0.00  0.00    +0.162 C 
BRANCH  24  31
ATOM     25  C   UNL     1       2.806  -1.764   1.974  0.00  0.00    +0.044 C 
ATOM     26  C   UNL     1       1.542  -1.869   1.160  0.00  0.00    -0.046 A 
ATOM     27  C   UNL     1       1.558  -2.516  -0.062  0.00  0.00    +0.004 A 
ATOM     28  C   UNL     1       0.398  -2.612  -0.808  0.00  0.00    +0.000 A 
ATOM     29  C   UNL     1      -0.778  -2.062  -0.333  0.00  0.00    +0.000 A 
ATOM     30  C   UNL     1      -0.794  -1.416   0.889  0.00  0.00    +0.005 A 
ATOM     31  C   UNL     1       0.365  -1.323   1.638  0.00  0.00    -0.025 A 
ENDBRANCH  24  31
ENDBRANCH   1  24
TORSDOF 4
