REMARK  Name = ZINC53391520
REMARK  6 active torsions:
REMARK  status: ('A' for Active; 'I' for Inactive)
REMARK    1  A    between atoms: C_1  and  C_2
REMARK    2  A    between atoms: N_11  and  C_12
REMARK    3  A    between atoms: C_12  and  C_13
REMARK    4  A    between atoms: C_13  and  N_14
REMARK    5  A    between atoms: N_14  and  C_15
REMARK    6  A    between atoms: C_15  and  C_16
REMARK                            x       y       z     vdW  Elec       q    Type
REMARK                         _______ _______ _______ _____ _____    ______ ____
ROOT
ATOM      1  C   UNL     1       0.050  -0.064   2.422  0.00  0.00    +0.066 C 
ENDROOT
BRANCH   1  11
ATOM      2  C   UNL     1      -0.019   1.526   0.010  0.00  0.00    +0.029 C 
ATOM      3  C   UNL     1       0.002  -0.004   0.002  0.00  0.00    +0.084 C 
ATOM      4  C   UNL     1       0.723  -0.500  -1.248  0.00  0.00    -0.020 A 
ATOM      5  C   UNL     1       0.555   0.057  -2.514  0.00  0.00    +0.013 A 
ATOM      6  C   UNL     1       1.237  -0.445  -3.570  0.00  0.00    +0.046 A 
ATOM      7  S   UNL     1       2.175  -1.763  -2.811  0.00  0.00    -0.101 S 
ATOM      8  C   UNL     1       1.590  -1.547  -1.154  0.00  0.00    -0.004 A 
ATOM      9  C   UNL     1       1.935  -2.311   0.083  0.00  0.00    +0.058 C 
ATOM     10  C   UNL     1       0.896  -1.954   1.159  0.00  0.00    +0.090 C 
ATOM     11  N   UNL     1       0.719  -0.494   1.186  0.00  0.00    -0.297 NA
ENDBRANCH   1  11
BRANCH   1  12
ATOM     12  C   UNL     1       0.948  -0.373   3.622  0.00  0.00    -0.067 C 
BRANCH  12  13
ATOM     13  N   UNL     1       0.279   0.057   4.857  0.00  0.00    +0.383 N 
ATOM     14  H   UNL     1       0.102   1.050   4.816  0.00  0.00    -0.085 HD
ATOM     15  H   UNL     1      -0.596  -0.436   4.955  0.00  0.00    -0.085 HD
BRANCH  13  16
ATOM     16  C   UNL     1       1.140  -0.240   6.009  0.00  0.00    -0.039 C 
BRANCH  16  17
ATOM     17  C   UNL     1       0.454   0.201   7.276  0.00  0.00    -0.026 A 
ATOM     18  C   UNL     1      -0.376  -0.500   8.086  0.00  0.00    +0.024 A 
ATOM     19  C   UNL     1      -0.895   0.116   9.210  0.00  0.00    +0.025 A 
ATOM     20  C   UNL     1      -0.558   1.403   9.468  0.00  0.00    +0.060 A 
ATOM     21  S   UNL     1       0.531   1.781   8.104  0.00  0.00    -0.102 S 
ATOM     22 BR   UNL     1      -2.058  -0.823  10.368  0.00  0.00    -0.050 Br
ENDBRANCH  16  17
ENDBRANCH  13  16
ENDBRANCH  12  13
ENDBRANCH   1  12
TORSDOF 5
