REMARK  Name = ZINC42389943
REMARK  3 active torsions:
REMARK  status: ('A' for Active; 'I' for Inactive)
REMARK    1  A    between atoms: C_5  and  O_10
REMARK    2  A    between atoms: C_6  and  N_7
REMARK    3  A    between atoms: O_10  and  C_11
REMARK                            x       y       z     vdW  Elec       q    Type
REMARK                         _______ _______ _______ _____ _____    ______ ____
ROOT
ATOM      1  C   UNL     1      -0.017   1.379   0.010  0.00  0.00    +0.055 A 
ATOM      2  C   UNL     1       1.195   2.058   0.002  0.00  0.00    +0.038 A 
ATOM      3  C   UNL     1       2.373   1.337  -0.013  0.00  0.00    +0.130 A 
ATOM      4  N   UNL     1       2.358   0.018  -0.021  0.00  0.00    -0.218 NA
ATOM      5  C   UNL     1       1.225  -0.663  -0.014  0.00  0.00    +0.246 A 
ATOM      6  C   UNL     1       0.002  -0.004   0.002  0.00  0.00    +0.188 A 
ATOM      7 BR   UNL     1       1.232   3.949   0.011  0.00  0.00    -0.049 Br
ENDROOT
BRANCH   6   8
ATOM      8  N   UNL     1      -1.264  -0.771   0.011  0.00  0.00    +0.062 N 
ATOM      9  O   UNL     1      -2.323  -0.189   0.024  0.00  0.00    -0.126 OA
ATOM     10  O   UNL     1      -1.238  -1.980   0.004  0.00  0.00    -0.126 OA
ENDBRANCH   6   8
BRANCH   5  11
ATOM     11  O   UNL     1       1.256  -2.020  -0.022  0.00  0.00    -0.472 OA
BRANCH  11  12
ATOM     12  C   UNL     1       2.544  -2.639  -0.038  0.00  0.00    +0.175 C 
ATOM     13  C   UNL     1       3.012  -2.781  -1.501  0.00  0.00    +0.044 C 
ATOM     14  C   UNL     1       4.508  -2.938  -1.511  0.00  0.00    +0.004 C 
ATOM     15  C   UNL     1       4.945  -4.416  -1.528  0.00  0.00    +0.000 C 
ATOM     16  C   UNL     1       4.103  -5.299  -0.588  0.00  0.00    +0.000 C 
ATOM     17  C   UNL     1       3.825  -4.633   0.732  0.00  0.00    +0.004 C 
ATOM     18  C   UNL     1       2.459  -3.922   0.644  0.00  0.00    +0.044 C 
ENDBRANCH  11  12
ENDBRANCH   5  11
TORSDOF 3
