REMARK  Name = ZINC06443901
REMARK  12 active torsions:
REMARK  status: ('A' for Active; 'I' for Inactive)
REMARK    1  A    between atoms: C_1  and  C_2
REMARK    2  A    between atoms: C_12  and  C_14
REMARK    3  A    between atoms: C_14  and  C_16
REMARK    4  A    between atoms: C_14  and  N_69
REMARK    5  A    between atoms: N_20  and  C_21
REMARK    6  A    between atoms: C_21  and  C_22
REMARK    7  A    between atoms: C_21  and  C_23
REMARK    8  A    between atoms: C_21  and  C_24
REMARK    9  A    between atoms: C_25  and  C_26
REMARK   10  A    between atoms: C_25  and  N_69
REMARK   11  A    between atoms: C_32  and  C_33
REMARK   12  A    between atoms: C_32  and  N_69
REMARK                            x       y       z     vdW  Elec       q    Type
REMARK                         _______ _______ _______ _____ _____    ______ ____
ROOT
ATOM      1  C   UNL     1       0.352  -2.442   5.405  0.00  0.00    +0.040 C 
ENDROOT
BRANCH   1  13
ATOM      2  C   UNL     1       1.002   0.658  -0.355  0.00  0.00    +0.046 C 
ATOM      3  C   UNL     1       0.455  -0.704  -0.014  0.00  0.00    -0.026 A 
ATOM      4  C   UNL     1      -0.025  -1.527  -1.011  0.00  0.00    +0.005 A 
ATOM      5  C   UNL     1      -0.526  -2.786  -0.711  0.00  0.00    +0.001 A 
ATOM      6  C   UNL     1      -0.563  -3.229   0.581  0.00  0.00    +0.010 A 
ATOM      7  C   UNL     1      -0.087  -2.410   1.609  0.00  0.00    -0.001 A 
ATOM      8  C   UNL     1       0.428  -1.134   1.308  0.00  0.00    +0.052 A 
ATOM      9  N   UNL     1       0.896  -0.331   2.326  0.00  0.00    -0.322 N 
ATOM     10  H   UNL     1       1.250   0.548   2.116  0.00  0.00    +0.169 HD
ATOM     11  C   UNL     1       0.869  -0.747   3.604  0.00  0.00    +0.251 A 
ATOM     12  O   UNL     1       1.291  -0.009   4.478  0.00  0.00    -0.268 OA
ATOM     13  C   UNL     1       0.364  -2.016   3.959  0.00  0.00    +0.011 A 
ATOM     14  C   UNL     1      -0.112  -2.853   3.005  0.00  0.00    +0.017 A 
ENDBRANCH   1  13
BRANCH   1  15
ATOM     15  C   UNL     1      -0.648  -1.611   6.165  0.00  0.00    +0.143 A 
ATOM     16  N   UNL     1      -0.587  -0.320   6.387  0.00  0.00    -0.115 NA
ATOM     17  N   UNL     1      -1.626   0.016   7.071  0.00  0.00    -0.023 NA
ATOM     18  N   UNL     1      -2.349  -1.026   7.291  0.00  0.00    -0.043 NA
ATOM     19  N   UNL     1      -1.782  -2.049   6.744  0.00  0.00    -0.225 N 
BRANCH  19  20
ATOM     20  C   UNL     1      -2.278  -3.427   6.753  0.00  0.00    +0.059 C 
ATOM     21  C   UNL     1      -1.264  -4.329   7.460  0.00  0.00    +0.036 C 
ATOM     22  C   UNL     1      -3.615  -3.483   7.496  0.00  0.00    +0.036 C 
ATOM     23  C   UNL     1      -2.474  -3.909   5.314  0.00  0.00    +0.036 C 
ENDBRANCH  19  20
ENDBRANCH   1  15
BRANCH   1  24
ATOM     24  N   UNL     1       1.699  -2.222   5.974  0.00  0.00    +0.395 N 
ATOM     25  H   UNL     1       2.034  -1.295   5.689  0.00  0.00    -0.079 HD
BRANCH  24  26
ATOM     26  C   UNL     1       1.638  -2.278   7.450  0.00  0.00    -0.041 C 
BRANCH  26  27
ATOM     27  C   UNL     1       2.966  -1.836   8.009  0.00  0.00    -0.064 A 
ATOM     28  C   UNL     1       3.954  -2.768   8.261  0.00  0.00    +0.002 A 
ATOM     29  C   UNL     1       5.175  -2.362   8.768  0.00  0.00    +0.000 A 
ATOM     30  C   UNL     1       5.402  -1.025   9.033  0.00  0.00    +0.000 A 
ATOM     31  C   UNL     1       4.412  -0.093   8.787  0.00  0.00    +0.000 A 
ATOM     32  C   UNL     1       3.193  -0.498   8.274  0.00  0.00    +0.002 A 
ENDBRANCH  26  27
ENDBRANCH  24  26
BRANCH  24  33
ATOM     33  C   UNL     1       2.635  -3.248   5.469  0.00  0.00    -0.040 C 
BRANCH  33  34
ATOM     34  C   UNL     1       3.061  -2.867   4.074  0.00  0.00    -0.046 A 
ATOM     35  C   UNL     1       2.655  -3.629   2.995  0.00  0.00    +0.003 A 
ATOM     36  C   UNL     1       3.042  -3.276   1.715  0.00  0.00    +0.000 A 
ATOM     37  C   UNL     1       3.844  -2.168   1.516  0.00  0.00    +0.001 A 
ATOM     38  C   UNL     1       4.255  -1.409   2.595  0.00  0.00    +0.020 A 
ATOM     39  C   UNL     1       3.863  -1.758   3.875  0.00  0.00    +0.042 A 
ATOM     40 CL   UNL     1       4.380  -0.805   5.232  0.00  0.00    -0.083 Cl
ENDBRANCH  33  34
ENDBRANCH  24  33
ENDBRANCH   1  24
TORSDOF 8
