REMARK  Name = ZINC39913420
REMARK  7 active torsions:
REMARK  status: ('A' for Active; 'I' for Inactive)
REMARK    1  A    between atoms: C_1  and  C_2
REMARK    2  A    between atoms: N_16  and  C_29
REMARK    3  A    between atoms: C_17  and  C_19
REMARK    4  A    between atoms: C_21  and  O_27
REMARK    5  A    between atoms: C_22  and  O_26
REMARK    6  A    between atoms: O_27  and  C_28
REMARK    7  A    between atoms: C_29  and  C_30
REMARK                            x       y       z     vdW  Elec       q    Type
REMARK                         _______ _______ _______ _____ _____    ______ ____
ROOT
ATOM      1  C   UNL     1      -0.018   1.503   0.010  0.00  0.00    +0.045 C 
ATOM      2  C   UNL     1       0.002  -0.004   0.002  0.00  0.00    -0.029 A 
ATOM      3  C   UNL     1       0.006  -0.677  -1.199  0.00  0.00    +0.051 A 
ATOM      4  C   UNL     1       0.026  -2.071  -1.222  0.00  0.00    +0.140 A 
ATOM      5  C   UNL     1       0.047  -2.767  -0.001  0.00  0.00    +0.066 A 
ATOM      6  C   UNL     1       0.040  -2.075   1.209  0.00  0.00    +0.035 A 
ATOM      7  C   UNL     1       0.023  -0.696   1.206  0.00  0.00    +0.045 A 
ATOM      8 CL   UNL     1       0.021   0.175   2.707  0.00  0.00    -0.083 Cl
ATOM      9  C   UNL     1       0.085  -4.251  -0.018  0.00  0.00    +0.199 A 
ATOM     10  O   UNL     1      -0.063  -4.933   0.980  0.00  0.00    -0.287 OA
ATOM     11  C   UNL     1       0.317  -4.817  -1.351  0.00  0.00    +0.072 A 
ATOM     12  C   UNL     1       0.278  -4.030  -2.467  0.00  0.00    +0.199 A 
ATOM     13  O   UNL     1       0.021  -2.708  -2.416  0.00  0.00    -0.450 OA
ATOM     14  C   UNL     1       0.555  -4.877  -3.640  0.00  0.00    +0.283 C 
ATOM     15  O   UNL     1       0.599  -4.483  -4.788  0.00  0.00    -0.267 OA
ATOM     16  N   UNL     1       0.754  -6.154  -3.253  0.00  0.00    -0.280 N 
ATOM     17  C   UNL     1       0.617  -6.213  -1.789  0.00  0.00    +0.145 C 
ENDROOT
BRANCH  17  18
ATOM     18  C   UNL     1      -0.515  -7.132  -1.409  0.00  0.00    -0.018 A 
ATOM     19  C   UNL     1      -0.400  -7.944  -0.296  0.00  0.00    +0.055 A 
ATOM     20  C   UNL     1      -1.440  -8.790   0.055  0.00  0.00    +0.163 A 
ATOM     21  C   UNL     1      -2.599  -8.819  -0.715  0.00  0.00    +0.173 A 
ATOM     22  C   UNL     1      -2.708  -8.003  -1.829  0.00  0.00    +0.063 A 
ATOM     23  C   UNL     1      -1.668  -7.157  -2.171  0.00  0.00    +0.025 A 
ATOM     24 BR   UNL     1      -4.281  -8.039  -2.879  0.00  0.00    -0.046 Br
BRANCH  21  25
ATOM     25  O   UNL     1      -3.622  -9.648  -0.375  0.00  0.00    -0.503 OA
ATOM     26  H   UNL     1      -4.268  -9.251   0.226  0.00  0.00    +0.292 HD
ENDBRANCH  21  25
BRANCH  20  27
ATOM     27  O   UNL     1      -1.328  -9.590   1.149  0.00  0.00    -0.491 OA
ATOM     28  C   UNL     1      -0.110  -9.507   1.891  0.00  0.00    +0.277 C 
ENDBRANCH  20  27
ENDBRANCH  17  18
BRANCH  16  29
ATOM     29  C   UNL     1       1.053  -7.284  -4.136  0.00  0.00    +0.136 C 
BRANCH  29  30
ATOM     30  C   UNL     1       2.546  -7.413  -4.299  0.00  0.00    -0.016 C 
ATOM     31  C   UNL     1       3.138  -8.549  -4.025  0.00  0.00    +0.005 C 
ENDBRANCH  29  30
ENDBRANCH  16  29
TORSDOF 5
