REMARK  Name = ZINC02952866
REMARK  5 active torsions:
REMARK  status: ('A' for Active; 'I' for Inactive)
REMARK    1  A    between atoms: C_1  and  C_2
REMARK    2  A    between atoms: C_6  and  C_18
REMARK    3  A    between atoms: N_8  and  C_9
REMARK    4  A    between atoms: C_21  and  C_24
REMARK    5  A    between atoms: C_24  and  O_25
REMARK                            x       y       z     vdW  Elec       q    Type
REMARK                         _______ _______ _______ _____ _____    ______ ____
ROOT
ATOM      1  C   UNL     1       0.565   7.262   0.076  0.00  0.00    +0.069 C 
ATOM      2  C   UNL     1       0.793   5.773   0.062  0.00  0.00    +0.081 A 
ATOM      3  C   UNL     1       2.088   5.274   0.033  0.00  0.00    +0.159 A 
ATOM      4  C   UNL     1       2.276   3.878   0.029  0.00  0.00    +0.027 A 
ATOM      5  C   UNL     1       3.634   3.331   0.012  0.00  0.00    +0.030 A 
ATOM      6  C   UNL     1       4.669   4.201   0.274  0.00  0.00    +0.099 A 
ATOM      7  C   UNL     1       4.316   5.609   0.550  0.00  0.00    +0.233 A 
ATOM      8  N   UNL     1       5.097   6.369   1.285  0.00  0.00    -0.212 NA
ATOM      9  O   UNL     1       3.163   6.096   0.011  0.00  0.00    -0.435 OA
ATOM     10  C   UNL     1       1.147   3.050   0.039  0.00  0.00    +0.007 A 
ATOM     11  C   UNL     1      -0.100   3.638   0.067  0.00  0.00    +0.117 A 
ATOM     12  N   UNL     1      -0.237   4.952   0.078  0.00  0.00    -0.256 NA
ENDROOT
BRANCH   8  13
ATOM     13  C   UNL     1       4.810   7.697   1.440  0.00  0.00    +0.069 A 
ATOM     14  C   UNL     1       5.253   8.626   0.494  0.00  0.00    +0.029 A 
ATOM     15  C   UNL     1       4.956   9.963   0.653  0.00  0.00    +0.023 A 
ATOM     16  C   UNL     1       4.229  10.388   1.752  0.00  0.00    +0.059 A 
ATOM     17  C   UNL     1       3.791   9.474   2.697  0.00  0.00    +0.061 A 
ATOM     18  C   UNL     1       4.077   8.132   2.546  0.00  0.00    +0.049 A 
ATOM     19 CL   UNL     1       2.881  10.017   4.071  0.00  0.00    -0.082 Cl
ATOM     20 CL   UNL     1       3.864  12.074   1.947  0.00  0.00    -0.082 Cl
ENDBRANCH   8  13
BRANCH   6  21
ATOM     21  C   UNL     1       6.072   3.747   0.277  0.00  0.00    +0.247 C 
ATOM     22  O   UNL     1       6.334   2.582   0.046  0.00  0.00    -0.270 OA
ATOM     23  N   UNL     1       7.063   4.622   0.537  0.00  0.00    -0.325 N 
ATOM     24  H   UNL     1       6.854   5.552   0.721  0.00  0.00    +0.145 HD
ATOM     25  H   UNL     1       7.986   4.324   0.539  0.00  0.00    +0.145 HD
ENDBRANCH   6  21
BRANCH  10  26
ATOM     26  C   UNL     1       1.292   1.550   0.025  0.00  0.00    +0.193 C 
BRANCH  26  27
ATOM     27  O   UNL     1      -0.003   0.946   0.046  0.00  0.00    -0.390 OA
ATOM     28  H   UNL     1       0.014  -0.021   0.039  0.00  0.00    +0.210 HD
ENDBRANCH  26  27
ENDBRANCH  10  26
TORSDOF 4
