REMARK  Name = ZINC11024235
REMARK  9 active torsions:
REMARK  status: ('A' for Active; 'I' for Inactive)
REMARK    1  A    between atoms: C_1  and  C_2
REMARK    2  A    between atoms: C_3  and  C_29
REMARK    3  A    between atoms: C_4  and  C_23
REMARK    4  A    between atoms: C_6  and  C_21
REMARK    5  A    between atoms: C_7  and  S_9
REMARK    6  A    between atoms: S_9  and  C_10
REMARK    7  A    between atoms: C_10  and  C_11
REMARK    8  A    between atoms: N_13  and  C_14
REMARK    9  A    between atoms: N_31  and  C_32
REMARK                            x       y       z     vdW  Elec       q    Type
REMARK                         _______ _______ _______ _____ _____    ______ ____
ROOT
ATOM      1  C   UNL     1       0.323   3.521   0.111  0.00  0.00    +0.061 C 
ATOM      2  C   UNL     1       1.716   2.953   0.035  0.00  0.00    +0.014 C 
ATOM      3  C   UNL     1       1.884   1.625  -0.075  0.00  0.00    +0.044 C 
ATOM      4  C   UNL     1       3.249   1.005  -0.158  0.00  0.00    +0.098 C 
ATOM      5  C   UNL     1       4.307   1.977   0.275  0.00  0.00    +0.069 C 
ATOM      6  C   UNL     1       4.045   3.308   0.372  0.00  0.00    +0.080 C 
ATOM      7  N   UNL     1       2.792   3.797   0.078  0.00  0.00    -0.312 N 
ATOM      8  H   UNL     1       2.657   4.870  -0.123  0.00  0.00    +0.152 HD
ENDROOT
BRANCH   4   9
ATOM      9  C   UNL     1       3.518   0.588  -1.581  0.00  0.00    -0.032 A 
ATOM     10  C   UNL     1       3.511   1.520  -2.607  0.00  0.00    +0.024 A 
ATOM     11  C   UNL     1       3.767   1.101  -3.900  0.00  0.00    +0.111 A 
ATOM     12  N   UNL     1       4.004  -0.169  -4.162  0.00  0.00    -0.263 NA
ATOM     13  C   UNL     1       4.013  -1.084  -3.213  0.00  0.00    +0.111 A 
ATOM     14  C   UNL     1       3.771  -0.739  -1.896  0.00  0.00    +0.024 A 
ENDBRANCH   4   9
BRANCH   3  15
ATOM     15  C   UNL     1       0.743   0.787  -0.106  0.00  0.00    +0.247 C 
ATOM     16  O   UNL     1      -0.371   1.276  -0.137  0.00  0.00    -0.270 OA
ATOM     17  N   UNL     1       0.891  -0.553  -0.106  0.00  0.00    -0.282 N 
ATOM     18  H   UNL     1       1.896  -0.995  -0.176  0.00  0.00    +0.155 HD
BRANCH  17  19
ATOM     19  C   UNL     1      -0.233  -1.381  -0.016  0.00  0.00    +0.034 A 
ATOM     20  C   UNL     1      -1.390  -0.919   0.598  0.00  0.00    +0.025 A 
ATOM     21  C   UNL     1      -2.500  -1.736   0.680  0.00  0.00    +0.022 A 
ATOM     22  C   UNL     1      -2.457  -3.018   0.161  0.00  0.00    +0.041 A 
ATOM     23  C   UNL     1      -1.304  -3.483  -0.447  0.00  0.00    +0.022 A 
ATOM     24  C   UNL     1      -0.193  -2.668  -0.536  0.00  0.00    +0.025 A 
ATOM     25 CL   UNL     1      -3.852  -4.045   0.272  0.00  0.00    -0.084 Cl
ENDBRANCH  17  19
ENDBRANCH   3  15
BRANCH   5  26
ATOM     26  C   UNL     1       5.616   1.493   0.596  0.00  0.00    +0.098 C 
ATOM     27  N   UNL     1       6.654   1.109   0.851  0.00  0.00    -0.191 NA
ENDBRANCH   5  26
BRANCH   6  28
ATOM     28  S   UNL     1       5.318   4.415   0.881  0.00  0.00    -0.100 S 
BRANCH  28  29
ATOM     29  C   UNL     1       4.414   5.982   0.826  0.00  0.00    +0.171 C 
BRANCH  29  30
ATOM     30  C   UNL     1       5.330   7.106   1.234  0.00  0.00    +0.227 C 
ATOM     31  O   UNL     1       6.482   6.871   1.533  0.00  0.00    -0.275 OA
ATOM     32  N   UNL     1       4.871   8.372   1.267  0.00  0.00    -0.285 N 
ATOM     33  H   UNL     1       3.805   8.576   1.082  0.00  0.00    +0.155 HD
BRANCH  32  34
ATOM     34  C   UNL     1       5.748   9.429   1.537  0.00  0.00    +0.033 A 
ATOM     35  C   UNL     1       5.308  10.533   2.255  0.00  0.00    +0.024 A 
ATOM     36  C   UNL     1       6.178  11.571   2.525  0.00  0.00    +0.017 A 
ATOM     37  C   UNL     1       7.484  11.517   2.071  0.00  0.00    +0.018 A 
ATOM     38  C   UNL     1       7.923  10.421   1.351  0.00  0.00    +0.017 A 
ATOM     39  C   UNL     1       7.059   9.377   1.083  0.00  0.00    +0.024 A 
ATOM     40 BR   UNL     1       8.670  12.944   2.437  0.00  0.00    -0.050 Br
ENDBRANCH  32  34
ENDBRANCH  29  30
ENDBRANCH  28  29
ENDBRANCH   6  28
TORSDOF 8
