REMARK  Name = ZINC39736080
REMARK  5 active torsions:
REMARK  status: ('A' for Active; 'I' for Inactive)
REMARK    1  A    between atoms: C_4  and  C_7
REMARK    2  A    between atoms: C_7  and  C_9
REMARK    3  A    between atoms: C_7  and  N_20
REMARK    4  A    between atoms: C_9  and  C_11
REMARK    5  A    between atoms: C_23  and  C_26
REMARK                            x       y       z     vdW  Elec       q    Type
REMARK                         _______ _______ _______ _____ _____    ______ ____
ROOT
ATOM      1  C   UNL     1       4.334  -1.010  -0.357  0.00  0.00    +0.035 C 
ENDROOT
BRANCH   1   2
ATOM      2  N   UNL     1       4.201  -2.155   0.552  0.00  0.00    +0.389 N 
ATOM      3  C   UNL     1       5.526  -2.530   1.062  0.00  0.00    -0.077 C 
ATOM      4  C   UNL     1       5.404  -3.773   1.946  0.00  0.00    -0.006 C 
ATOM      5  C   UNL     1       4.470  -3.467   3.121  0.00  0.00    +0.072 C 
ATOM      6  C   UNL     1       3.115  -3.006   2.577  0.00  0.00    -0.006 C 
ATOM      7  C   UNL     1       3.322  -1.792   1.670  0.00  0.00    -0.077 C 
ATOM      8  H   UNL     1       3.803  -2.936   0.052  0.00  0.00    -0.080 HD
BRANCH   5   9
ATOM      9  C   UNL     1       4.283  -4.710   3.953  0.00  0.00    +0.219 C 
ATOM     10  O   UNL     1       4.317  -5.802   3.427  0.00  0.00    -0.275 OA
ATOM     11  N   UNL     1       4.078  -4.607   5.281  0.00  0.00    -0.301 N 
ATOM     12  C   UNL     1       4.022  -5.818   6.069  0.00  0.00    +0.108 C 
ATOM     13  C   UNL     1       2.564  -6.337   6.121  0.00  0.00    +0.019 C 
ATOM     14  C   UNL     1       1.738  -5.457   6.962  0.00  0.00    +0.002 C 
ATOM     15  C   UNL     1       1.612  -4.028   6.443  0.00  0.00    +0.002 C 
ATOM     16  C   UNL     1       2.792  -3.218   6.918  0.00  0.00    +0.019 C 
ATOM     17  C   UNL     1       3.926  -3.263   5.872  0.00  0.00    +0.108 C 
ENDBRANCH   5   9
ENDBRANCH   1   2
BRANCH   1  21
ATOM     18  C   UNL     1       0.486   0.067  -1.867  0.00  0.00    +0.000 A 
ATOM     19  C   UNL     1       1.391   1.051  -1.517  0.00  0.00    +0.000 A 
ATOM     20  C   UNL     1       2.637   0.703  -1.029  0.00  0.00    +0.002 A 
ATOM     21  C   UNL     1       2.976  -0.630  -0.889  0.00  0.00    -0.054 A 
ATOM     22  C   UNL     1       2.071  -1.614  -1.238  0.00  0.00    +0.002 A 
ATOM     23  C   UNL     1       0.826  -1.266  -1.727  0.00  0.00    +0.000 A 
ENDBRANCH   1  21
BRANCH   1  24
ATOM     24  C   UNL     1       5.237  -1.382  -1.505  0.00  0.00    +0.152 C 
ATOM     25  O   UNL     1       5.430  -2.551  -1.772  0.00  0.00    -0.294 OA
BRANCH  24  26
ATOM     26  C   UNL     1       5.858  -0.372  -2.271  0.00  0.00    +0.022 C 
ATOM     27  C   UNL     1       6.704  -0.543  -3.352  0.00  0.00    +0.006 A 
ATOM     28  C   UNL     1       7.201  -1.691  -4.013  0.00  0.00    +0.010 A 
ATOM     29  C   UNL     1       8.034  -1.561  -5.070  0.00  0.00    +0.001 A 
ATOM     30  C   UNL     1       8.442  -0.310  -5.559  0.00  0.00    +0.002 A 
ATOM     31  C   UNL     1       8.025   0.847  -5.000  0.00  0.00    +0.026 A 
ATOM     32  C   UNL     1       7.115   0.795  -3.843  0.00  0.00    +0.043 A 
ATOM     33  N   UNL     1       6.569   1.734  -3.124  0.00  0.00    -0.380 N 
ATOM     34  C   UNL     1       5.733   1.124  -2.085  0.00  0.00    +0.152 C 
ATOM     35  H   UNL     1       6.692   2.686  -3.258  0.00  0.00    +0.160 HD
ENDBRANCH  24  26
ENDBRANCH   1  24
TORSDOF 5
