REMARK  Name = ZINC21024543
REMARK  9 active torsions:
REMARK  status: ('A' for Active; 'I' for Inactive)
REMARK    1  A    between atoms: C_1  and  C_2
REMARK    2  A    between atoms: C_3  and  C_19
REMARK    3  A    between atoms: C_4  and  C_16
REMARK    4  A    between atoms: C_5  and  C_15
REMARK    5  A    between atoms: N_6  and  C_7
REMARK    6  A    between atoms: C_7  and  C_8
REMARK    7  A    between atoms: C_19  and  N_20
REMARK    8  A    between atoms: N_20  and  C_21
REMARK    9  A    between atoms: C_24  and  C_27
REMARK                            x       y       z     vdW  Elec       q    Type
REMARK                         _______ _______ _______ _____ _____    ______ ____
ROOT
ATOM      1  C   UNL     1       1.800  -1.246  -0.455  0.00  0.00    +0.064 C 
ATOM      2  C   UNL     1       1.108   0.079  -0.260  0.00  0.00    +0.018 A 
ATOM      3  C   UNL     1       1.660   1.286  -0.477  0.00  0.00    -0.030 A 
ATOM      4  C   UNL     1       0.625   2.276  -0.158  0.00  0.00    +0.085 A 
ATOM      5  C   UNL     1      -0.482   1.555   0.233  0.00  0.00    +0.031 A 
ATOM      6  N   UNL     1      -0.177   0.246   0.167  0.00  0.00    -0.343 N 
ATOM      7  C   UNL     1      -1.808   2.133   0.656  0.00  0.00    +0.064 C 
ENDROOT
BRANCH   4   8
ATOM      8  C   UNL     1       0.746   3.740  -0.238  0.00  0.00    +0.388 C 
ATOM      9  O   UNL     1       1.131   4.372   0.726  0.00  0.00    -0.241 OA
ATOM     10  O   UNL     1       0.430   4.381  -1.381  0.00  0.00    -0.241 OA
ENDBRANCH   4   8
BRANCH   6  11
ATOM     11  C   UNL     1      -1.095  -0.845   0.504  0.00  0.00    +0.158 C 
BRANCH  11  12
ATOM     12  C   UNL     1      -1.322  -0.868   1.993  0.00  0.00    -0.009 A 
ATOM     13  C   UNL     1      -2.373  -0.157   2.543  0.00  0.00    +0.007 A 
ATOM     14  C   UNL     1      -2.581  -0.178   3.909  0.00  0.00    +0.000 A 
ATOM     15  C   UNL     1      -1.740  -0.910   4.726  0.00  0.00    +0.001 A 
ATOM     16  C   UNL     1      -0.690  -1.621   4.178  0.00  0.00    +0.020 A 
ATOM     17  C   UNL     1      -0.484  -1.605   2.810  0.00  0.00    +0.046 A 
ATOM     18 CL   UNL     1       0.831  -2.504   2.119  0.00  0.00    -0.083 Cl
ENDBRANCH  11  12
ENDBRANCH   6  11
BRANCH   3  19
ATOM     19  C   UNL     1       3.061   1.565  -0.955  0.00  0.00    -0.044 C 
BRANCH  19  20
ATOM     20  N   UNL     1       3.077   1.620  -2.423  0.00  0.00    +0.384 N 
ATOM     21  H   UNL     1       2.737   0.656  -2.829  0.00  0.00    -0.085 HD
ATOM     22  H   UNL     1       2.406   2.421  -2.767  0.00  0.00    -0.085 HD
BRANCH  20  23
ATOM     23  C   UNL     1       4.431   1.891  -2.925  0.00  0.00    -0.071 C 
ATOM     24  C   UNL     1       4.679   3.401  -2.931  0.00  0.00    -0.015 C 
ATOM     25  C   UNL     1       6.089   3.684  -3.454  0.00  0.00    +0.002 C 
ATOM     26  C   UNL     1       6.224   3.139  -4.877  0.00  0.00    -0.014 C 
ATOM     27  C   UNL     1       5.975   1.629  -4.871  0.00  0.00    +0.002 C 
ATOM     28  C   UNL     1       4.566   1.346  -4.348  0.00  0.00    -0.015 C 
ATOM     29  C   UNL     1       5.197   3.821  -5.784  0.00  0.00    +0.007 C 
ENDBRANCH  20  23
ENDBRANCH  19  20
ENDBRANCH   3  19
TORSDOF 6
