REMARK  Name = ZINC35870985
REMARK  6 active torsions:
REMARK  status: ('A' for Active; 'I' for Inactive)
REMARK    1  A    between atoms: C_5  and  C_7
REMARK    2  A    between atoms: C_7  and  N_8
REMARK    3  A    between atoms: C_9  and  C_11
REMARK    4  A    between atoms: C_16  and  N_35
REMARK    5  A    between atoms: N_24  and  C_27
REMARK    6  A    between atoms: C_27  and  C_28
REMARK                            x       y       z     vdW  Elec       q    Type
REMARK                         _______ _______ _______ _____ _____    ______ ____
ROOT
ATOM      1  C   UNL     1       1.817  -4.512   2.961  0.00  0.00    +0.098 C 
ATOM      2  C   UNL     1       3.169  -3.987   3.444  0.00  0.00    +0.051 C 
ATOM      3  C   UNL     1       4.267  -4.580   2.599  0.00  0.00    -0.023 A 
ATOM      4  C   UNL     1       5.464  -3.897   2.470  0.00  0.00    +0.038 A 
ATOM      5  C   UNL     1       6.482  -4.421   1.696  0.00  0.00    +0.127 A 
ATOM      6  C   UNL     1       6.308  -5.631   1.048  0.00  0.00    +0.034 A 
ATOM      7  C   UNL     1       5.118  -6.318   1.176  0.00  0.00    +0.025 A 
ATOM      8  C   UNL     1       4.092  -5.793   1.956  0.00  0.00    +0.033 A 
ATOM      9  N   UNL     1       2.897  -6.520   2.076  0.00  0.00    -0.329 N 
ATOM     10  C   UNL     1       1.838  -6.044   2.952  0.00  0.00    +0.069 C 
ATOM     11  C   UNL     1       0.459  -6.554   2.566  0.00  0.00    -0.055 C 
ATOM     12  N   UNL     1       0.497  -7.943   2.111  0.00  0.00    +0.385 N 
ATOM     13  C   UNL     1       1.342  -8.027   0.910  0.00  0.00    -0.059 C 
ATOM     14  C   UNL     1       2.790  -7.770   1.319  0.00  0.00    +0.087 C 
ATOM     15  H   UNL     1       0.883  -8.526   2.837  0.00  0.00    -0.081 HD
ENDROOT
BRANCH   1  17
ATOM     16  N   UNL     1       1.488  -2.679   1.333  0.00  0.00    -0.311 N 
ATOM     17  C   UNL     1       1.550  -4.005   1.567  0.00  0.00    +0.218 C 
ATOM     18  O   UNL     1       1.392  -4.790   0.656  0.00  0.00    -0.275 OA
ATOM     19  H   UNL     1       1.614  -2.051   2.062  0.00  0.00    +0.149 HD
BRANCH  16  20
ATOM     20  C   UNL     1       1.228  -2.186  -0.022  0.00  0.00    +0.142 C 
BRANCH  20  25
ATOM     21  C   UNL     1      -0.017   1.378   0.010  0.00  0.00    +0.000 A 
ATOM     22  C   UNL     1       1.171   2.087   0.002  0.00  0.00    +0.003 A 
ATOM     23  C   UNL     1       2.377   1.414  -0.013  0.00  0.00    +0.038 A 
ATOM     24  C   UNL     1       2.397   0.029  -0.021  0.00  0.00    +0.128 A 
ATOM     25  C   UNL     1       1.208  -0.679  -0.013  0.00  0.00    +0.005 A 
ATOM     26  C   UNL     1       0.002  -0.004   0.002  0.00  0.00    +0.008 A 
ATOM     27  F   UNL     1       3.577  -0.630  -0.036  0.00  0.00    -0.205 F 
ENDBRANCH  20  25
ENDBRANCH  16  20
ENDBRANCH   1  17
BRANCH   5  28
ATOM     28  N   UNL     1       7.760  -3.688   1.560  0.00  0.00    +0.056 N 
ATOM     29  O   UNL     1       7.913  -2.630   2.127  0.00  0.00    -0.126 OA
ATOM     30  O   UNL     1       8.651  -4.145   0.883  0.00  0.00    -0.126 OA
ENDBRANCH   5  28
BRANCH  12  31
ATOM     31  C   UNL     1      -0.864  -8.392   1.787  0.00  0.00    -0.043 C 
BRANCH  31  32
ATOM     32  C   UNL     1      -0.839  -9.857   1.436  0.00  0.00    -0.064 A 
ATOM     33  C   UNL     1      -0.641 -10.250   0.126  0.00  0.00    +0.003 A 
ATOM     34  C   UNL     1      -0.618 -11.594  -0.197  0.00  0.00    +0.020 A 
ATOM     35  C   UNL     1      -0.794 -12.546   0.792  0.00  0.00    +0.041 A 
ATOM     36  C   UNL     1      -0.993 -12.151   2.103  0.00  0.00    +0.020 A 
ATOM     37  C   UNL     1      -1.010 -10.807   2.425  0.00  0.00    +0.003 A 
ATOM     38 CL   UNL     1      -0.766 -14.234   0.387  0.00  0.00    -0.084 Cl
ENDBRANCH  31  32
ENDBRANCH  12  31
TORSDOF 6
