REMARK  Name = ZINC60065841
REMARK  13 active torsions:
REMARK  status: ('A' for Active; 'I' for Inactive)
REMARK    1  A    between atoms: C_1  and  C_2
REMARK    2  A    between atoms: C_2  and  C_3
REMARK    3  A    between atoms: C_5  and  C_14
REMARK    4  A    between atoms: C_6  and  O_13
REMARK    5  A    between atoms: C_7  and  C_9
REMARK    6  A    between atoms: C_9  and  C_10
REMARK    7  A    between atoms: C_9  and  C_11
REMARK    8  A    between atoms: C_9  and  C_12
REMARK    9  A    between atoms: C_14  and  N_15
REMARK   10  A    between atoms: N_15  and  C_16
REMARK   11  A    between atoms: N_15  and  C_17
REMARK   12  A    between atoms: C_17  and  C_18
REMARK   13  A    between atoms: N_20  and  C_21
REMARK                            x       y       z     vdW  Elec       q    Type
REMARK                         _______ _______ _______ _____ _____    ______ ____
ROOT
ATOM      1  C   UNL     1      -0.152  -1.413  -4.796  0.00  0.00    -0.039 C 
ENDROOT
BRANCH   1   4
ATOM      2  C   UNL     1       0.707  -0.490  -1.238  0.00  0.00    -0.047 A 
ATOM      3  C   UNL     1      -0.012  -0.718  -2.397  0.00  0.00    +0.009 A 
ATOM      4  C   UNL     1       0.632  -1.164  -3.534  0.00  0.00    -0.022 A 
ATOM      5  C   UNL     1       2.002  -1.383  -3.514  0.00  0.00    +0.122 A 
ATOM      6  C   UNL     1       2.722  -1.153  -2.350  0.00  0.00    -0.000 A 
ATOM      7  C   UNL     1       2.073  -0.702  -1.216  0.00  0.00    +0.011 A 
BRANCH   6   8
ATOM      8  C   UNL     1       4.210  -1.389  -2.325  0.00  0.00    -0.009 C 
ATOM      9  C   UNL     1       4.754  -1.062  -0.933  0.00  0.00    +0.015 C 
ATOM     10  C   UNL     1       4.499  -2.855  -2.654  0.00  0.00    +0.015 C 
ATOM     11  C   UNL     1       4.887  -0.490  -3.361  0.00  0.00    +0.015 C 
ENDBRANCH   6   8
BRANCH   2  13
ATOM     12  C   UNL     1      -0.019   1.526   0.010  0.00  0.00    +0.009 C 
ATOM     13  C   UNL     1       0.002  -0.004   0.002  0.00  0.00    +0.032 C 
ENDBRANCH   2  13
BRANCH   5  14
ATOM     14  O   UNL     1       2.638  -1.822  -4.632  0.00  0.00    -0.506 OA
ATOM     15  H   UNL     1       2.959  -1.113  -5.206  0.00  0.00    +0.292 HD
ENDBRANCH   5  14
ENDBRANCH   1   4
BRANCH   1  16
ATOM     16  N   UNL     1      -0.417  -2.852  -4.933  0.00  0.00    +0.386 N 
ATOM     17  C   UNL     1      -1.290  -3.295  -3.838  0.00  0.00    -0.095 C 
ATOM     18  H   UNL     1       0.455  -3.359  -4.894  0.00  0.00    -0.081 HD
BRANCH  16  19
ATOM     19  C   UNL     1      -1.076  -3.109  -6.220  0.00  0.00    +0.019 C 
BRANCH  19  20
ATOM     20  C   UNL     1      -1.236  -4.595  -6.414  0.00  0.00    +0.197 C 
ATOM     21  O   UNL     1      -0.841  -5.364  -5.564  0.00  0.00    -0.278 OA
ATOM     22  N   UNL     1      -1.820  -5.069  -7.533  0.00  0.00    -0.312 N 
ATOM     23  H   UNL     1      -2.137  -4.454  -8.213  0.00  0.00    +0.149 HD
BRANCH  22  24
ATOM     24  C   UNL     1      -1.976  -6.513  -7.722  0.00  0.00    +0.095 C 
ATOM     25  C   UNL     1      -3.271  -6.981  -7.037  0.00  0.00    +0.046 C 
ATOM     26  C   UNL     1      -3.573  -8.431  -7.512  0.00  0.00    +0.168 C 
ATOM     27  S   UNL     1      -3.142  -8.298  -9.298  0.00  0.00    -0.029 S 
ATOM     28  O   UNL     1      -4.312  -7.964 -10.033  0.00  0.00    -0.174 OA
ATOM     29  O   UNL     1      -2.380  -9.437  -9.676  0.00  0.00    -0.174 OA
ATOM     30  C   UNL     1      -2.037  -6.830  -9.236  0.00  0.00    +0.188 C 
ENDBRANCH  22  24
ENDBRANCH  19  20
ENDBRANCH  16  19
ENDBRANCH   1  16
TORSDOF 8
