REMARK  Name = ZINC02208054
REMARK  6 active torsions:
REMARK  status: ('A' for Active; 'I' for Inactive)
REMARK    1  A    between atoms: C_1  and  C_2
REMARK    2  A    between atoms: C_2  and  S_3
REMARK    3  A    between atoms: S_3  and  C_4
REMARK    4  A    between atoms: C_16  and  C_17
REMARK    5  A    between atoms: C_16  and  N_46
REMARK    6  A    between atoms: N_23  and  N_24
REMARK                            x       y       z     vdW  Elec       q    Type
REMARK                         _______ _______ _______ _____ _____    ______ ____
ROOT
ATOM      1  C   UNL     1       3.942   6.081  -7.891  0.00  0.00    +0.191 A 
ATOM      2  N   UNL     1       5.048   5.988  -7.167  0.00  0.00    -0.205 NA
ATOM      3  C   UNL     1       5.065   5.967  -5.837  0.00  0.00    +0.145 A 
ATOM      4  C   UNL     1       3.795   6.054  -5.195  0.00  0.00    +0.052 A 
ATOM      5  C   UNL     1       3.533   6.054  -3.767  0.00  0.00    -0.028 A 
ATOM      6  C   UNL     1       2.237   6.145  -3.385  0.00  0.00    -0.021 A 
ATOM      7  S   UNL     1       1.312   6.236  -4.895  0.00  0.00    -0.075 S 
ATOM      8  C   UNL     1       2.656   6.151  -6.034  0.00  0.00    +0.115 A 
ATOM      9  N   UNL     1       2.724   6.165  -7.351  0.00  0.00    -0.215 NA
ATOM     10  C   UNL     1       1.720   6.162  -1.981  0.00  0.00    -0.035 C 
ATOM     11  C   UNL     1       4.047   6.430  -1.372  0.00  0.00    -0.073 C 
ATOM     12  C   UNL     1       4.628   5.958  -2.707  0.00  0.00    +0.018 C 
ATOM     13  N   UNL     1       6.244   5.870  -5.121  0.00  0.00    -0.267 N 
ATOM     14  H   UNL     1       6.219   5.684  -4.169  0.00  0.00    +0.167 HD
ATOM     15  N   UNL     1       2.804   5.685  -1.089  0.00  0.00    +0.386 N 
ATOM     16  H   UNL     1       2.965   4.686  -1.263  0.00  0.00    -0.081 HD
ENDROOT
BRANCH  13  17
ATOM     17  N   UNL     1       7.443   6.034  -5.753  0.00  0.00    -0.255 NA
ATOM     18  H   UNL     1       8.210   5.935  -5.105  0.00  0.00    +0.140 HD
ATOM     19  H   UNL     1       7.536   5.390  -6.525  0.00  0.00    +0.140 HD
ENDBRANCH  13  17
BRANCH   1  20
ATOM     20  S   UNL     1       4.085   6.094  -9.647  0.00  0.00    -0.086 S 
BRANCH  20  22
ATOM     21  C   UNL     1       2.212   6.261 -11.628  0.00  0.00    +0.016 C 
ATOM     22  C   UNL     1       2.339   6.231 -10.104  0.00  0.00    +0.074 C 
ENDBRANCH  20  22
ENDBRANCH   1  20
BRANCH  15  23
ATOM     23  C   UNL     1       2.413   5.869   0.326  0.00  0.00    -0.043 C 
BRANCH  23  24
ATOM     24  C   UNL     1       1.020   5.333   0.528  0.00  0.00    -0.064 A 
ATOM     25  C   UNL     1       0.832   4.006   0.868  0.00  0.00    +0.002 A 
ATOM     26  C   UNL     1      -0.446   3.513   1.054  0.00  0.00    +0.000 A 
ATOM     27  C   UNL     1      -1.537   4.347   0.895  0.00  0.00    +0.000 A 
ATOM     28  C   UNL     1      -1.350   5.675   0.562  0.00  0.00    +0.000 A 
ATOM     29  C   UNL     1      -0.072   6.168   0.376  0.00  0.00    +0.002 A 
ENDBRANCH  23  24
ENDBRANCH  15  23
TORSDOF 5
