REMARK  Name = ZINC58948706
REMARK  8 active torsions:
REMARK  status: ('A' for Active; 'I' for Inactive)
REMARK    1  A    between atoms: C_1  and  C_2
REMARK    2  A    between atoms: C_2  and  O_3
REMARK    3  A    between atoms: O_3  and  C_4
REMARK    4  A    between atoms: C_4  and  C_6
REMARK    5  A    between atoms: C_7  and  C_26
REMARK    6  A    between atoms: C_9  and  N_25
REMARK    7  A    between atoms: C_10  and  C_22
REMARK    8  A    between atoms: C_11  and  C_13
REMARK                            x       y       z     vdW  Elec       q    Type
REMARK                         _______ _______ _______ _____ _____    ______ ____
ROOT
ATOM      1  C   UNL     1       1.711  -2.347   2.322  0.00  0.00    +0.086 C 
ATOM      2  C   UNL     1       1.475  -3.638   2.587  0.00  0.00    +0.115 C 
ATOM      3  O   UNL     1       1.858  -4.207   3.741  0.00  0.00    -0.446 OA
ATOM      4  C   UNL     1       2.149  -3.437   4.805  0.00  0.00    +0.193 C 
ATOM      5  C   UNL     1       2.429  -2.116   4.667  0.00  0.00    +0.083 C 
ATOM      6  C   UNL     1       2.428  -1.467   3.308  0.00  0.00    +0.099 C 
ATOM      7  C   UNL     1       0.758  -4.477   1.561  0.00  0.00    +0.087 C 
ENDROOT
BRANCH   6   8
ATOM      8  C   UNL     1       3.848  -1.254   2.850  0.00  0.00    -0.031 A 
ATOM      9  C   UNL     1       4.690  -2.339   2.686  0.00  0.00    +0.008 A 
ATOM     10  C   UNL     1       5.992  -2.149   2.265  0.00  0.00    +0.050 A 
ATOM     11  C   UNL     1       6.458  -0.870   2.006  0.00  0.00    +0.166 A 
ATOM     12  C   UNL     1       5.610   0.223   2.171  0.00  0.00    +0.167 A 
ATOM     13  C   UNL     1       4.304   0.024   2.588  0.00  0.00    +0.054 A 
ATOM     14  O   UNL     1       6.297   1.360   1.857  0.00  0.00    -0.453 OA
ATOM     15  C   UNL     1       7.689   0.990   1.892  0.00  0.00    +0.466 C 
ATOM     16  O   UNL     1       7.676  -0.417   1.589  0.00  0.00    -0.453 OA
ENDBRANCH   6   8
BRANCH   5  17
ATOM     17  C   UNL     1       2.726  -1.347   5.806  0.00  0.00    +0.243 C 
ATOM     18  O   UNL     1       1.870  -0.635   6.301  0.00  0.00    -0.271 OA
ATOM     19  N   UNL     1       3.958  -1.397   6.350  0.00  0.00    -0.325 N 
ATOM     20  H   UNL     1       4.640  -1.964   5.956  0.00  0.00    +0.145 HD
ATOM     21  H   UNL     1       4.164  -0.866   7.135  0.00  0.00    +0.145 HD
ENDBRANCH   5  17
BRANCH   4  22
ATOM     22  N   UNL     1       2.163  -3.998   6.055  0.00  0.00    -0.329 N 
ATOM     23  H   UNL     1       2.061  -4.957   6.157  0.00  0.00    +0.145 HD
ATOM     24  H   UNL     1       2.273  -3.436   6.837  0.00  0.00    +0.145 HD
ENDBRANCH   4  22
BRANCH   1  25
ATOM     25  C   UNL     1       1.282  -1.802   1.086  0.00  0.00    +0.339 C 
ATOM     26  O   UNL     1       0.307  -1.076   1.048  0.00  0.00    -0.245 OA
BRANCH  25  27
ATOM     27  O   UNL     1       1.956  -2.087  -0.047  0.00  0.00    -0.462 OA
BRANCH  27  29
ATOM     28  C   UNL     1       2.353  -1.938  -2.426  0.00  0.00    +0.048 C 
ATOM     29  C   UNL     1       1.468  -1.503  -1.256  0.00  0.00    +0.229 C 
ENDBRANCH  27  29
ENDBRANCH  25  27
ENDBRANCH   1  25
TORSDOF 6
