REMARK  Name = ZINC39874085
REMARK  11 active torsions:
REMARK  status: ('A' for Active; 'I' for Inactive)
REMARK    1  A    between atoms: C_1  and  C_2
REMARK    2  A    between atoms: C_2  and  C_3
REMARK    3  A    between atoms: C_3  and  C_4
REMARK    4  A    between atoms: C_4  and  O_5
REMARK    5  A    between atoms: O_5  and  C_6
REMARK    6  A    between atoms: C_9  and  C_14
REMARK    7  A    between atoms: C_11  and  O_12
REMARK    8  A    between atoms: O_12  and  C_13
REMARK    9  A    between atoms: N_29  and  C_30
REMARK   10  A    between atoms: C_33  and  C_36
REMARK   11  A    between atoms: C_36  and  C_37
REMARK                            x       y       z     vdW  Elec       q    Type
REMARK                         _______ _______ _______ _____ _____    ______ ____
ROOT
ATOM      1  C   UNL     1       1.844  -8.068  -3.111  0.00  0.00    +0.150 C 
ATOM      2  C   UNL     1       2.924  -8.609  -2.232  0.00  0.00    +0.072 A 
ATOM      3  C   UNL     1       4.364  -8.338  -2.193  0.00  0.00    +0.199 A 
ATOM      4  O   UNL     1       4.891  -7.438  -2.822  0.00  0.00    -0.287 OA
ATOM      5  C   UNL     1       5.120  -9.265  -1.314  0.00  0.00    +0.066 A 
ATOM      6  C   UNL     1       6.514  -9.267  -1.323  0.00  0.00    +0.035 A 
ATOM      7  C   UNL     1       7.199 -10.138  -0.503  0.00  0.00    +0.042 A 
ATOM      8  C   UNL     1       6.502 -11.009   0.325  0.00  0.00    +0.023 A 
ATOM      9  C   UNL     1       5.126 -11.014   0.343  0.00  0.00    +0.048 A 
ATOM     10  C   UNL     1       4.410 -10.140  -0.475  0.00  0.00    +0.140 A 
ATOM     11  O   UNL     1       3.058 -10.159  -0.430  0.00  0.00    -0.450 OA
ATOM     12  C   UNL     1       2.350  -9.496  -1.366  0.00  0.00    +0.199 A 
ATOM     13  C   UNL     1       0.908  -9.560  -1.657  0.00  0.00    +0.287 C 
ATOM     14  O   UNL     1       0.109 -10.259  -1.067  0.00  0.00    -0.266 OA
ATOM     15  N   UNL     1       0.602  -8.728  -2.676  0.00  0.00    -0.253 N 
ATOM     16 CL   UNL     1       8.935 -10.149  -0.507  0.00  0.00    -0.084 Cl
ENDROOT
BRANCH   1  20
ATOM     17  C   UNL     1       1.514  -3.834  -2.603  0.00  0.00    +0.162 A 
ATOM     18  C   UNL     1       0.980  -4.692  -1.655  0.00  0.00    +0.050 A 
ATOM     19  C   UNL     1       1.089  -6.060  -1.822  0.00  0.00    +0.009 A 
ATOM     20  C   UNL     1       1.728  -6.576  -2.934  0.00  0.00    -0.018 A 
ATOM     21  C   UNL     1       2.263  -5.725  -3.884  0.00  0.00    +0.055 A 
ATOM     22  C   UNL     1       2.153  -4.353  -3.725  0.00  0.00    +0.162 A 
BRANCH  22  23
ATOM     23  O   UNL     1       2.673  -3.515  -4.662  0.00  0.00    -0.491 OA
ATOM     24  C   UNL     1       3.315  -4.118  -5.787  0.00  0.00    +0.277 C 
ENDBRANCH  22  23
BRANCH  17  25
ATOM     25  O   UNL     1       1.408  -2.488  -2.441  0.00  0.00    -0.488 OA
BRANCH  25  26
ATOM     26  C   UNL     1       0.739  -2.027  -1.265  0.00  0.00    +0.229 C 
BRANCH  26  27
ATOM     27  C   UNL     1       0.718  -0.497  -1.257  0.00  0.00    +0.041 C 
BRANCH  27  29
ATOM     28  C   UNL     1      -0.019   1.526   0.010  0.00  0.00    +0.004 C 
ATOM     29  C   UNL     1       0.002  -0.004   0.002  0.00  0.00    -0.000 C 
ENDBRANCH  27  29
ENDBRANCH  26  27
ENDBRANCH  25  26
ENDBRANCH  17  25
ENDBRANCH   1  20
BRANCH  15  30
ATOM     30  C   UNL     1      -0.669  -8.528  -3.222  0.00  0.00    +0.038 A 
ATOM     31  C   UNL     1      -0.842  -7.640  -4.277  0.00  0.00    +0.024 A 
ATOM     32  C   UNL     1      -2.099  -7.445  -4.814  0.00  0.00    +0.005 A 
ATOM     33  C   UNL     1      -3.185  -8.131  -4.303  0.00  0.00    -0.048 A 
ATOM     34  C   UNL     1      -3.017  -9.015  -3.252  0.00  0.00    +0.005 A 
ATOM     35  C   UNL     1      -1.761  -9.220  -2.714  0.00  0.00    +0.024 A 
BRANCH  33  36
ATOM     36  C   UNL     1      -4.556  -7.916  -4.891  0.00  0.00    +0.032 C 
ATOM     37  C   UNL     1      -4.785  -8.913  -6.029  0.00  0.00    +0.009 C 
ENDBRANCH  33  36
ENDBRANCH  15  30
TORSDOF 8
