REMARK  Name = ZINC40374123
REMARK  10 active torsions:
REMARK  status: ('A' for Active; 'I' for Inactive)
REMARK    1  A    between atoms: C_1  and  C_2
REMARK    2  A    between atoms: C_2  and  C_3
REMARK    3  A    between atoms: C_6  and  C_9
REMARK    4  A    between atoms: C_9  and  C_11
REMARK    5  A    between atoms: C_9  and  N_29
REMARK    6  A    between atoms: C_11  and  N_12
REMARK    7  A    between atoms: N_12  and  C_13
REMARK    8  A    between atoms: C_14  and  C_27
REMARK    9  A    between atoms: C_16  and  C_18
REMARK   10  A    between atoms: C_23  and  N_24
REMARK                            x       y       z     vdW  Elec       q    Type
REMARK                         _______ _______ _______ _____ _____    ______ ____
ROOT
ATOM      1  N   UNL     1      -5.981   0.168   0.495  0.00  0.00    -0.314 N 
ATOM      2  H   UNL     1      -5.595   0.061   1.378  0.00  0.00    +0.149 HD
ENDROOT
BRANCH   1   3
ATOM      3  C   UNL     1      -6.984   1.089   0.288  0.00  0.00    +0.225 A 
ATOM      4  C   UNL     1      -7.538   1.936   1.236  0.00  0.00    +0.201 A 
ATOM      5  N   UNL     1      -8.489   2.671   0.601  0.00  0.00    -0.196 NA
ATOM      6  C   UNL     1      -8.527   2.310  -0.655  0.00  0.00    +0.233 A 
ATOM      7  O   UNL     1      -7.611   1.347  -0.875  0.00  0.00    -0.420 OA
BRANCH   6   8
ATOM      8  C   UNL     1      -9.430   2.875  -1.679  0.00  0.00    +0.067 A 
ATOM      9  C   UNL     1      -9.459   4.253  -1.905  0.00  0.00    +0.015 A 
ATOM     10  C   UNL     1     -10.305   4.774  -2.861  0.00  0.00    +0.001 A 
ATOM     11  C   UNL     1     -11.123   3.935  -3.597  0.00  0.00    +0.002 A 
ATOM     12  C   UNL     1     -11.100   2.569  -3.378  0.00  0.00    +0.033 A 
ATOM     13  C   UNL     1     -10.255   2.034  -2.428  0.00  0.00    +0.138 A 
BRANCH  13  14
ATOM     14  N   UNL     1     -10.226   0.571  -2.199  0.00  0.00    +0.057 N 
ATOM     15  O   UNL     1     -10.867  -0.165  -2.913  0.00  0.00    -0.126 OA
ATOM     16  O   UNL     1      -9.563   0.113  -1.298  0.00  0.00    -0.126 OA
ENDBRANCH  13  14
ENDBRANCH   6   8
BRANCH   4  17
ATOM     17  C   UNL     1      -7.178   2.020   2.619  0.00  0.00    +0.124 C 
ATOM     18  N   UNL     1      -6.893   2.087   3.717  0.00  0.00    -0.189 NA
ENDBRANCH   4  17
ENDBRANCH   1   3
BRANCH   1  19
ATOM     19  C   UNL     1      -5.498  -0.652  -0.619  0.00  0.00    +0.094 C 
BRANCH  19  20
ATOM     20  C   UNL     1      -4.476  -1.666  -0.101  0.00  0.00    -0.020 C 
BRANCH  20  24
ATOM     21  C   UNL     1      -0.986   0.392   1.253  0.00  0.00    -0.048 A 
ATOM     22  C   UNL     1      -1.931  -0.040   2.165  0.00  0.00    +0.004 A 
ATOM     23  C   UNL     1      -3.060  -0.706   1.727  0.00  0.00    +0.002 A 
ATOM     24  C   UNL     1      -3.245  -0.939   0.377  0.00  0.00    -0.059 A 
ATOM     25  C   UNL     1      -2.301  -0.506  -0.535  0.00  0.00    +0.002 A 
ATOM     26  C   UNL     1      -1.173   0.164  -0.097  0.00  0.00    +0.004 A 
BRANCH  21  28
ATOM     27  C   UNL     1      -0.035   2.621   1.776  0.00  0.00    +0.009 C 
ATOM     28  C   UNL     1       0.245   1.118   1.731  0.00  0.00    +0.032 C 
ENDBRANCH  21  28
ENDBRANCH  20  24
BRANCH  20  29
ATOM     29  N   UNL     1      -4.110  -2.589  -1.183  0.00  0.00    +0.385 N 
ATOM     30  C   UNL     1      -3.214  -3.655  -0.666  0.00  0.00    -0.078 C 
ATOM     31  C   UNL     1      -3.383  -4.794  -1.702  0.00  0.00    -0.020 C 
ATOM     32  C   UNL     1      -4.886  -4.717  -2.058  0.00  0.00    -0.020 C 
ATOM     33  C   UNL     1      -5.314  -3.285  -1.689  0.00  0.00    -0.078 C 
ATOM     34  H   UNL     1      -3.659  -2.087  -1.932  0.00  0.00    -0.081 HD
ENDBRANCH  20  29
ENDBRANCH  19  20
ENDBRANCH   1  19
TORSDOF 9
