REMARK  Name = ZINC35746488
REMARK  12 active torsions:
REMARK  status: ('A' for Active; 'I' for Inactive)
REMARK    1  A    between atoms: C_1  and  C_2
REMARK    2  A    between atoms: C_5  and  C_39
REMARK    3  A    between atoms: C_6  and  C_8
REMARK    4  A    between atoms: C_17  and  C_19
REMARK    5  A    between atoms: C_19  and  N_20
REMARK    6  A    between atoms: N_20  and  C_21
REMARK    7  A    between atoms: N_20  and  C_28
REMARK    8  A    between atoms: C_21  and  C_22
REMARK    9  A    between atoms: C_28  and  C_29
REMARK   10  A    between atoms: C_29  and  C_31
REMARK   11  A    between atoms: C_29  and  O_38
REMARK   12  A    between atoms: C_31  and  C_32
REMARK                            x       y       z     vdW  Elec       q    Type
REMARK                         _______ _______ _______ _____ _____    ______ ____
ROOT
ATOM      1  C   UNL     1       3.872  -6.326   4.242  0.00  0.00    -0.003 C 
ENDROOT
BRANCH   1  11
ATOM      2  C   UNL     1      -1.116  -4.293   2.376  0.00  0.00    +0.004 A 
ATOM      3  C   UNL     1      -2.077  -4.321   3.330  0.00  0.00    +0.056 A 
ATOM      4  S   UNL     1      -1.235  -5.008   4.744  0.00  0.00    -0.076 S 
ATOM      5  C   UNL     1       0.371  -5.239   4.027  0.00  0.00    +0.116 A 
ATOM      6  C   UNL     1       0.216  -4.784   2.708  0.00  0.00    +0.080 A 
ATOM      7  C   UNL     1       1.384  -4.863   1.884  0.00  0.00    +0.260 A 
ATOM      8  O   UNL     1       1.350  -4.487   0.725  0.00  0.00    -0.267 OA
ATOM      9  N   UNL     1       2.521  -5.357   2.408  0.00  0.00    -0.312 N 
ATOM     10  H   UNL     1       3.315  -5.413   1.855  0.00  0.00    +0.170 HD
ATOM     11  C   UNL     1       2.577  -5.780   3.697  0.00  0.00    +0.094 A 
ATOM     12  N   UNL     1       1.531  -5.712   4.477  0.00  0.00    -0.229 NA
BRANCH   2  18
ATOM     13  C   UNL     1      -2.381  -0.515  -0.632  0.00  0.00    +0.044 C 
ATOM     14  C   UNL     1      -2.023  -1.965  -0.432  0.00  0.00    -0.050 A 
ATOM     15  C   UNL     1      -1.974  -2.820  -1.518  0.00  0.00    +0.003 A 
ATOM     16  C   UNL     1      -1.647  -4.152  -1.343  0.00  0.00    +0.004 A 
ATOM     17  C   UNL     1      -1.367  -4.636  -0.081  0.00  0.00    -0.043 A 
ATOM     18  C   UNL     1      -1.415  -3.779   1.018  0.00  0.00    -0.013 A 
ATOM     19  C   UNL     1      -1.740  -2.436   0.834  0.00  0.00    +0.012 A 
ATOM     20  C   UNL     1      -1.011  -6.088   0.109  0.00  0.00    +0.044 C 
ENDBRANCH   2  18
ENDBRANCH   1  11
BRANCH   1  21
ATOM     21  N   UNL     1       3.731  -6.574   5.683  0.00  0.00    +0.389 N 
ATOM     22  H   UNL     1       2.921  -7.152   5.847  0.00  0.00    -0.081 HD
BRANCH  21  23
ATOM     23  C   UNL     1       3.571  -5.295   6.386  0.00  0.00    -0.042 C 
BRANCH  23  24
ATOM     24  C   UNL     1       4.690  -4.363   5.997  0.00  0.00    -0.064 A 
ATOM     25  C   UNL     1       5.902  -4.426   6.658  0.00  0.00    +0.002 A 
ATOM     26  C   UNL     1       6.929  -3.572   6.301  0.00  0.00    +0.000 A 
ATOM     27  C   UNL     1       6.743  -2.655   5.283  0.00  0.00    +0.000 A 
ATOM     28  C   UNL     1       5.531  -2.593   4.622  0.00  0.00    +0.000 A 
ATOM     29  C   UNL     1       4.506  -3.450   4.976  0.00  0.00    +0.002 A 
ENDBRANCH  23  24
ENDBRANCH  21  23
BRANCH  21  30
ATOM     30  C   UNL     1       4.931  -7.260   6.181  0.00  0.00    -0.046 C 
BRANCH  30  31
ATOM     31  C   UNL     1       4.592  -8.008   7.472  0.00  0.00    +0.102 C 
BRANCH  31  32
ATOM     32  O   UNL     1       4.144  -7.077   8.459  0.00  0.00    -0.393 OA
ATOM     33  H   UNL     1       4.793  -6.394   8.679  0.00  0.00    +0.210 HD
ENDBRANCH  31  32
BRANCH  31  34
ATOM     34  C   UNL     1       5.838  -8.733   7.983  0.00  0.00    +0.064 C 
BRANCH  34  35
ATOM     35  C   UNL     1       5.476  -9.569   9.184  0.00  0.00    -0.045 A 
ATOM     36  C   UNL     1       5.549  -9.024  10.452  0.00  0.00    +0.004 A 
ATOM     37  C   UNL     1       5.217  -9.790  11.554  0.00  0.00    +0.000 A 
ATOM     38  C   UNL     1       4.811 -11.101  11.387  0.00  0.00    +0.000 A 
ATOM     39  C   UNL     1       4.737 -11.646  10.118  0.00  0.00    +0.000 A 
ATOM     40  C   UNL     1       5.065 -10.878   9.017  0.00  0.00    +0.004 A 
ENDBRANCH  34  35
ENDBRANCH  31  34
ENDBRANCH  30  31
ENDBRANCH  21  30
ENDBRANCH   1  21
TORSDOF 10
