REMARK  Name = ZINC02408596
REMARK  12 active torsions:
REMARK  status: ('A' for Active; 'I' for Inactive)
REMARK    1  A    between atoms: C_1  and  C_2
REMARK    2  A    between atoms: C_2  and  C_3
REMARK    3  A    between atoms: C_2  and  C_4
REMARK    4  A    between atoms: C_4  and  N_5
REMARK    5  A    between atoms: N_5  and  C_6
REMARK    6  A    between atoms: N_5  and  C_25
REMARK    7  A    between atoms: C_6  and  C_7
REMARK    8  A    between atoms: C_15  and  O_24
REMARK    9  A    between atoms: C_16  and  C_18
REMARK   10  A    between atoms: C_25  and  C_26
REMARK   11  A    between atoms: C_26  and  C_27
REMARK   12  A    between atoms: C_26  and  C_28
REMARK                            x       y       z     vdW  Elec       q    Type
REMARK                         _______ _______ _______ _____ _____    ______ ____
ROOT
ATOM      1  C   UNL     1      -4.507  -2.511  -1.176  0.00  0.00    -0.046 A 
ATOM      2  C   UNL     1      -4.907  -3.531  -0.375  0.00  0.00    +0.094 A 
ATOM      3  C   UNL     1      -5.512  -4.673  -0.942  0.00  0.00    +0.337 A 
ATOM      4  O   UNL     1      -5.866  -5.581  -0.213  0.00  0.00    -0.245 OA
ATOM      5  O   UNL     1      -5.708  -4.783  -2.265  0.00  0.00    -0.422 OA
ATOM      6  C   UNL     1      -5.334  -3.804  -3.118  0.00  0.00    +0.140 A 
ATOM      7  C   UNL     1      -4.729  -2.635  -2.620  0.00  0.00    +0.022 A 
ATOM      8  C   UNL     1      -4.343  -1.614  -3.495  0.00  0.00    +0.057 A 
ATOM      9  C   UNL     1      -4.562  -1.754  -4.849  0.00  0.00    +0.125 A 
ATOM     10  C   UNL     1      -5.170  -2.917  -5.346  0.00  0.00    +0.027 A 
ATOM     11  C   UNL     1      -5.546  -3.938  -4.481  0.00  0.00    +0.059 A 
ENDROOT
BRANCH  10  12
ATOM     12  C   UNL     1      -5.403  -3.061  -6.803  0.00  0.00    -0.014 A 
ATOM     13  C   UNL     1      -5.005  -4.223  -7.463  0.00  0.00    +0.008 A 
ATOM     14  C   UNL     1      -5.224  -4.352  -8.820  0.00  0.00    +0.001 A 
ATOM     15  C   UNL     1      -5.837  -3.331  -9.524  0.00  0.00    +0.000 A 
ATOM     16  C   UNL     1      -6.233  -2.176  -8.874  0.00  0.00    +0.001 A 
ATOM     17  C   UNL     1      -6.025  -2.039  -7.517  0.00  0.00    +0.008 A 
ENDBRANCH  10  12
BRANCH   9  18
ATOM     18  O   UNL     1      -4.188  -0.765  -5.703  0.00  0.00    -0.506 OA
ATOM     19  H   UNL     1      -3.286  -0.856  -6.039  0.00  0.00    +0.292 HD
ENDBRANCH   9  18
BRANCH   1  20
ATOM     20  C   UNL     1      -3.859  -1.280  -0.596  0.00  0.00    -0.042 C 
BRANCH  20  21
ATOM     21  N   UNL     1      -2.398  -1.421  -0.658  0.00  0.00    +0.383 N 
ATOM     22  H   UNL     1      -2.123  -2.278  -0.202  0.00  0.00    -0.081 HD
BRANCH  21  23
ATOM     23  C   UNL     1      -1.767  -0.281   0.019  0.00  0.00    -0.075 C 
BRANCH  23  25
ATOM     24  C   UNL     1      -0.890   0.555   2.205  0.00  0.00    +0.005 C 
ATOM     25  C   UNL     1      -1.673  -0.567   1.519  0.00  0.00    -0.034 C 
ATOM     26  C   UNL     1      -3.081  -0.643   2.113  0.00  0.00    +0.005 C 
ENDBRANCH  23  25
ENDBRANCH  21  23
BRANCH  21  27
ATOM     27  C   UNL     1      -1.969  -1.455  -2.063  0.00  0.00    -0.075 C 
BRANCH  27  28
ATOM     28  C   UNL     1      -0.462  -1.711  -2.130  0.00  0.00    -0.034 C 
ATOM     29  C   UNL     1      -0.151  -3.086  -1.534  0.00  0.00    +0.005 C 
ATOM     30  C   UNL     1      -0.002  -1.672  -3.588  0.00  0.00    +0.005 C 
ENDBRANCH  27  28
ENDBRANCH  21  27
ENDBRANCH  20  21
ENDBRANCH   1  20
TORSDOF 8
