REMARK  Name = ZINC01221500
REMARK  9 active torsions:
REMARK  status: ('A' for Active; 'I' for Inactive)
REMARK    1  A    between atoms: C_1  and  C_2
REMARK    2  A    between atoms: C_5  and  C_8
REMARK    3  A    between atoms: C_11  and  S_14
REMARK    4  A    between atoms: N_12  and  C_13
REMARK    5  A    between atoms: S_14  and  C_15
REMARK    6  A    between atoms: C_15  and  C_16
REMARK    7  A    between atoms: N_18  and  C_19
REMARK    8  A    between atoms: N_18  and  C_32
REMARK    9  A    between atoms: C_19  and  C_20
REMARK                            x       y       z     vdW  Elec       q    Type
REMARK                         _______ _______ _______ _____ _____    ______ ____
ROOT
ATOM      1  C   UNL     1      -0.983   2.724  -1.492  0.00  0.00    +0.226 C 
ATOM      2  O   UNL     1      -0.212   3.540  -1.032  0.00  0.00    -0.275 OA
ATOM      3  N   UNL     1      -0.795   1.411  -1.255  0.00  0.00    -0.293 N 
ENDROOT
BRANCH   3   4
ATOM      4  C   UNL     1      -1.638   0.418  -1.925  0.00  0.00    +0.076 C 
ATOM      5  C   UNL     1      -1.331   0.417  -3.424  0.00  0.00    +0.022 C 
ATOM      6  C   UNL     1      -2.211  -0.621  -4.124  0.00  0.00    +0.002 C 
ATOM      7  C   UNL     1      -3.684  -0.271  -3.906  0.00  0.00    +0.000 C 
ATOM      8  C   UNL     1      -3.991  -0.270  -2.407  0.00  0.00    +0.002 C 
ATOM      9  C   UNL     1      -3.111   0.768  -1.707  0.00  0.00    +0.022 C 
ENDBRANCH   3   4
BRANCH   1  10
ATOM     10  C   UNL     1      -2.152   3.179  -2.327  0.00  0.00    +0.173 C 
BRANCH  10  11
ATOM     11  S   UNL     1      -1.877   4.883  -2.872  0.00  0.00    -0.077 S 
BRANCH  11  15
ATOM     12  C   UNL     1      -4.920   6.035  -5.035  0.00  0.00    +0.165 A 
ATOM     13  N   UNL     1      -5.245   4.805  -4.713  0.00  0.00    -0.128 NA
ATOM     14  N   UNL     1      -4.320   4.282  -3.990  0.00  0.00    -0.122 NA
ATOM     15  C   UNL     1      -3.351   5.149  -3.800  0.00  0.00    +0.192 A 
ATOM     16  N   UNL     1      -3.696   6.294  -4.461  0.00  0.00    -0.305 N 
ATOM     17  C   UNL     1      -2.926   7.537  -4.542  0.00  0.00    +0.153 C 
BRANCH  12  22
ATOM     18  C   UNL     1      -8.023   9.663  -8.249  0.00  0.00    +0.044 C 
ATOM     19  C   UNL     1      -7.211   8.713  -7.407  0.00  0.00    -0.050 A 
ATOM     20  C   UNL     1      -5.860   8.946  -7.215  0.00  0.00    +0.004 A 
ATOM     21  C   UNL     1      -5.111   8.080  -6.446  0.00  0.00    +0.012 A 
ATOM     22  C   UNL     1      -5.717   6.967  -5.861  0.00  0.00    +0.019 A 
ATOM     23  C   UNL     1      -7.078   6.735  -6.064  0.00  0.00    +0.012 A 
ATOM     24  C   UNL     1      -7.818   7.611  -6.831  0.00  0.00    +0.004 A 
ENDBRANCH  12  22
ENDBRANCH  11  15
ENDBRANCH  10  11
ENDBRANCH   1  10
BRANCH   3  25
ATOM     25  C   UNL     1       0.252   0.977  -0.327  0.00  0.00    +0.144 C 
BRANCH  25  26
ATOM     26  C   UNL     1      -0.356   0.702   1.024  0.00  0.00    -0.016 A 
ATOM     27  C   UNL     1      -0.764  -0.546   1.360  0.00  0.00    +0.076 A 
ATOM     28  C   UNL     1      -1.332  -0.792   2.628  0.00  0.00    +0.249 A 
ATOM     29  O   UNL     1      -1.692  -1.922   2.909  0.00  0.00    -0.268 OA
ATOM     30  N   UNL     1      -1.486   0.189   3.534  0.00  0.00    -0.322 N 
ATOM     31  H   UNL     1      -1.880  -0.014   4.397  0.00  0.00    +0.169 HD
ATOM     32  C   UNL     1      -1.091   1.481   3.255  0.00  0.00    +0.049 A 
ATOM     33  C   UNL     1      -0.514   1.777   2.006  0.00  0.00    +0.003 A 
ATOM     34  C   UNL     1      -0.117   3.086   1.715  0.00  0.00    +0.010 A 
ATOM     35  C   UNL     1      -0.284   4.068   2.651  0.00  0.00    +0.001 A 
ATOM     36  C   UNL     1      -0.848   3.778   3.886  0.00  0.00    +0.002 A 
ATOM     37  C   UNL     1      -1.251   2.496   4.192  0.00  0.00    +0.026 A 
ENDBRANCH  25  26
ENDBRANCH   3  25
TORSDOF 7
