REMARK  Name = ZINC57273966
REMARK  9 active torsions:
REMARK  status: ('A' for Active; 'I' for Inactive)
REMARK    1  A    between atoms: C_1  and  O_2
REMARK    2  A    between atoms: O_2  and  C_3
REMARK    3  A    between atoms: C_6  and  C_9
REMARK    4  A    between atoms: C_9  and  C_11
REMARK    5  A    between atoms: C_9  and  N_32
REMARK    6  A    between atoms: C_11  and  N_12
REMARK    7  A    between atoms: N_18  and  C_21
REMARK    8  A    between atoms: C_21  and  C_22
REMARK    9  A    between atoms: N_24  and  C_25
REMARK                            x       y       z     vdW  Elec       q    Type
REMARK                         _______ _______ _______ _____ _____    ______ ____
ROOT
ATOM      1  N   UNL     1       4.714  -3.571   5.153  0.00  0.00    -0.300 N 
ATOM      2  C   UNL     1       5.990  -3.997   5.072  0.00  0.00    +0.302 C 
ATOM      3  O   UNL     1       6.596  -3.905   4.022  0.00  0.00    -0.253 OA
ATOM      4  N   UNL     1       6.595  -4.523   6.155  0.00  0.00    -0.283 N 
ATOM      5  C   UNL     1       5.845  -4.761   7.398  0.00  0.00    +0.124 C 
ATOM      6  C   UNL     1       6.086  -6.207   7.843  0.00  0.00    +0.104 C 
ATOM      7  N   UNL     1       7.532  -6.454   7.933  0.00  0.00    -0.291 NA
ATOM      8  C   UNL     1       8.178  -6.318   6.621  0.00  0.00    +0.104 C 
ATOM      9  C   UNL     1       8.021  -4.882   6.124  0.00  0.00    +0.124 C 
ATOM     10  H   UNL     1       4.208  -3.710   5.969  0.00  0.00    +0.150 HD
ENDROOT
BRANCH   1  11
ATOM     11  C   UNL     1       4.092  -2.900   4.009  0.00  0.00    +0.095 C 
BRANCH  11  12
ATOM     12  C   UNL     1       2.696  -2.411   4.402  0.00  0.00    -0.020 C 
BRANCH  12  16
ATOM     13  C   UNL     1       3.027   0.435   7.573  0.00  0.00    +0.120 A 
ATOM     14  C   UNL     1       2.683  -0.880   7.853  0.00  0.00    +0.046 A 
ATOM     15  C   UNL     1       2.576  -1.798   6.826  0.00  0.00    +0.005 A 
ATOM     16  C   UNL     1       2.813  -1.407   5.521  0.00  0.00    -0.059 A 
ATOM     17  C   UNL     1       3.156  -0.098   5.240  0.00  0.00    +0.005 A 
ATOM     18  C   UNL     1       3.258   0.825   6.263  0.00  0.00    +0.046 A 
BRANCH  13  20
ATOM     19  C   UNL     1       2.880   0.867   9.907  0.00  0.00    +0.277 C 
ATOM     20  O   UNL     1       3.132   1.340   8.582  0.00  0.00    -0.495 OA
ENDBRANCH  13  20
ENDBRANCH  12  16
BRANCH  12  21
ATOM     21  N   UNL     1       2.054  -1.779   3.242  0.00  0.00    +0.385 N 
ATOM     22  C   UNL     1       1.754  -2.799   2.205  0.00  0.00    -0.078 C 
ATOM     23  C   UNL     1       0.632  -2.133   1.368  0.00  0.00    -0.020 C 
ATOM     24  C   UNL     1      -0.204  -1.392   2.437  0.00  0.00    -0.020 C 
ATOM     25  C   UNL     1       0.749  -1.204   3.632  0.00  0.00    -0.078 C 
ATOM     26  H   UNL     1       2.651  -1.060   2.862  0.00  0.00    -0.081 HD
ENDBRANCH  12  21
ENDBRANCH  11  12
ENDBRANCH   1  11
BRANCH   7  27
ATOM     27  C   UNL     1       7.805  -7.772   8.521  0.00  0.00    +0.180 C 
BRANCH  27  28
ATOM     28  C   UNL     1       9.276  -7.892   8.824  0.00  0.00    +0.231 C 
ATOM     29  O   UNL     1      10.024  -6.970   8.575  0.00  0.00    -0.274 OA
ATOM     30  N   UNL     1       9.761  -9.024   9.372  0.00  0.00    -0.284 N 
ATOM     31  H   UNL     1       9.181  -9.791   9.494  0.00  0.00    +0.155 HD
BRANCH  30  32
ATOM     32  C   UNL     1      11.103  -9.092   9.764  0.00  0.00    +0.036 A 
ATOM     33  C   UNL     1      11.805 -10.284   9.639  0.00  0.00    +0.023 A 
ATOM     34  C   UNL     1      13.129 -10.349  10.026  0.00  0.00    +0.005 A 
ATOM     35  C   UNL     1      13.757  -9.229  10.539  0.00  0.00    +0.038 A 
ATOM     36  C   UNL     1      13.061  -8.039  10.665  0.00  0.00    +0.125 A 
ATOM     37  C   UNL     1      11.736  -7.966  10.274  0.00  0.00    +0.061 A 
ATOM     38  F   UNL     1      13.677  -6.946  11.167  0.00  0.00    -0.205 F 
ENDBRANCH  30  32
ENDBRANCH  27  28
ENDBRANCH   7  27
TORSDOF 8
