REMARK  Name = ZINC64340348
REMARK  5 active torsions:
REMARK  status: ('A' for Active; 'I' for Inactive)
REMARK    1  A    between atoms: C_1  and  C_2
REMARK    2  A    between atoms: C_2  and  C_16
REMARK    3  A    between atoms: N_3  and  N_4
REMARK    4  A    between atoms: C_5  and  C_7
REMARK    5  A    between atoms: C_21  and  O_22
REMARK                            x       y       z     vdW  Elec       q    Type
REMARK                         _______ _______ _______ _____ _____    ______ ____
ROOT
ATOM      1  N   UNL     1       0.024   0.034   2.341  0.00  0.00    -0.203 N 
ATOM      2  C   UNL     1       0.044  -0.646   3.504  0.00  0.00    +0.262 C 
ATOM      3  O   UNL     1       0.060  -1.863   3.498  0.00  0.00    -0.269 OA
ATOM      4  H   UNL     1       0.011   1.004   2.346  0.00  0.00    +0.178 HD
ENDROOT
BRANCH   2   5
ATOM      5  C   UNL     1       0.046   0.080   4.777  0.00  0.00    +0.044 C 
ATOM      6  C   UNL     1       0.071  -0.462   6.045  0.00  0.00    +0.008 A 
ATOM      7  C   UNL     1       0.100  -1.797   6.521  0.00  0.00    +0.010 A 
ATOM      8  C   UNL     1       0.120  -2.045   7.849  0.00  0.00    +0.001 A 
ATOM      9  C   UNL     1       0.113  -1.019   8.807  0.00  0.00    +0.002 A 
ATOM     10  C   UNL     1       0.086   0.286   8.458  0.00  0.00    +0.026 A 
ATOM     11  C   UNL     1       0.064   0.644   7.032  0.00  0.00    +0.043 A 
ATOM     12  N   UNL     1       0.036   1.798   6.424  0.00  0.00    -0.380 N 
ATOM     13  C   UNL     1       0.028   1.579   4.974  0.00  0.00    +0.154 C 
ATOM     14  H   UNL     1       0.025   2.664   6.862  0.00  0.00    +0.160 HD
ENDBRANCH   2   5
BRANCH   1  17
ATOM     15  C   UNL     1      -0.018   1.503   0.010  0.00  0.00    +0.068 C 
ATOM     16  C   UNL     1       0.002  -0.004   0.002  0.00  0.00    +0.067 C 
ATOM     17  N   UNL     1       0.022  -0.660   1.124  0.00  0.00    -0.184 NA
BRANCH  16  18
ATOM     18  C   UNL     1      -0.000  -0.734  -1.277  0.00  0.00    +0.042 A 
ATOM     19  C   UNL     1      -0.015  -0.032  -2.486  0.00  0.00    +0.033 A 
ATOM     20  C   UNL     1      -0.017  -0.721  -3.681  0.00  0.00    +0.043 A 
ATOM     21  C   UNL     1      -0.004  -2.107  -3.689  0.00  0.00    +0.043 A 
ATOM     22  C   UNL     1       0.011  -2.812  -2.499  0.00  0.00    +0.084 A 
ATOM     23  C   UNL     1       0.019  -2.135  -1.290  0.00  0.00    +0.144 A 
ATOM     24 CL   UNL     1       0.027  -4.548  -2.521  0.00  0.00    -0.080 Cl
ATOM     25 CL   UNL     1      -0.036   0.151  -5.182  0.00  0.00    -0.083 Cl
BRANCH  23  26
ATOM     26  O   UNL     1       0.039  -2.827  -0.121  0.00  0.00    -0.505 OA
ATOM     27  H   UNL     1      -0.838  -3.039   0.226  0.00  0.00    +0.292 HD
ENDBRANCH  23  26
ENDBRANCH  16  18
ENDBRANCH   1  17
TORSDOF 4
