REMARK  Name = ZINC14017570
REMARK  4 active torsions:
REMARK  status: ('A' for Active; 'I' for Inactive)
REMARK    1  A    between atoms: C_5  and  O_9
REMARK    2  A    between atoms: C_6  and  C_7
REMARK    3  A    between atoms: O_9  and  C_10
REMARK    4  A    between atoms: C_10  and  C_12
REMARK                            x       y       z     vdW  Elec       q    Type
REMARK                         _______ _______ _______ _____ _____    ______ ____
ROOT
ATOM      1  C   UNL     1      -1.226   2.401   0.021  0.00  0.00    +0.034 A 
ATOM      2  C   UNL     1      -0.021   1.732   0.012  0.00  0.00    +0.043 A 
ATOM      3  C   UNL     1       1.172   2.438   0.004  0.00  0.00    +0.043 A 
ATOM      4  C   UNL     1       1.167   3.820   0.011  0.00  0.00    +0.085 A 
ATOM      5  C   UNL     1      -0.036   4.512   0.025  0.00  0.00    +0.160 A 
ATOM      6  C   UNL     1      -1.246   3.801   0.033  0.00  0.00    +0.059 A 
ATOM      7 CL   UNL     1       2.668   4.692   0.000  0.00  0.00    -0.080 Cl
ATOM      8 CL   UNL     1       0.002  -0.004   0.002  0.00  0.00    -0.083 Cl
ENDROOT
BRANCH   6   9
ATOM      9  C   UNL     1      -2.526   4.521   0.048  0.00  0.00    +0.262 C 
ATOM     10  O   UNL     1      -2.539   5.734   0.053  0.00  0.00    -0.296 OA
ENDBRANCH   6   9
BRANCH   5  11
ATOM     11  O   UNL     1      -0.042   5.869   0.031  0.00  0.00    -0.423 OA
BRANCH  11  12
ATOM     12  C   UNL     1      -0.055   6.484  -1.163  0.00  0.00    +0.316 C 
ATOM     13  O   UNL     1      -0.062   5.831  -2.179  0.00  0.00    -0.250 OA
BRANCH  12  14
ATOM     14  C   UNL     1      -0.063   7.989  -1.234  0.00  0.00    +0.098 C 
ATOM     15  C   UNL     1      -1.308   8.527  -0.527  0.00  0.00    +0.015 C 
ATOM     16  C   UNL     1      -1.315  10.056  -0.599  0.00  0.00    +0.001 C 
ATOM     17  C   UNL     1      -1.331  10.496  -2.064  0.00  0.00    +0.000 C 
ATOM     18  C   UNL     1      -0.086   9.958  -2.772  0.00  0.00    +0.001 C 
ATOM     19  C   UNL     1      -0.078   8.430  -2.699  0.00  0.00    +0.015 C 
ENDBRANCH  12  14
ENDBRANCH  11  12
ENDBRANCH   5  11
TORSDOF 4
