REMARK  Name = ZINC36371615
REMARK  11 active torsions:
REMARK  status: ('A' for Active; 'I' for Inactive)
REMARK    1  A    between atoms: C_1  and  C_2
REMARK    2  A    between atoms: C_2  and  C_4
REMARK    3  A    between atoms: C_2  and  C_10
REMARK    4  A    between atoms: C_4  and  C_5
REMARK    5  A    between atoms: C_5  and  C_6
REMARK    6  A    between atoms: C_6  and  C_7
REMARK    7  A    between atoms: C_7  and  C_8
REMARK    8  A    between atoms: C_7  and  C_9
REMARK    9  A    between atoms: C_16  and  C_40
REMARK   10  A    between atoms: C_27  and  C_39
REMARK   11  A    between atoms: C_30  and  C_31
REMARK                            x       y       z     vdW  Elec       q    Type
REMARK                         _______ _______ _______ _____ _____    ______ ____
ROOT
ATOM      1  C   UNL     1       0.347  -1.056  -1.569  0.00  0.00    -0.002 C 
ATOM      2  C   UNL     1      -0.433  -2.388  -1.720  0.00  0.00    +0.004 C 
ATOM      3  C   UNL     1      -1.300  -2.242  -3.005  0.00  0.00    +0.004 C 
ATOM      4  C   UNL     1      -0.598  -1.083  -3.732  0.00  0.00    -0.001 C 
ATOM      5  C   UNL     1      -0.356  -0.103  -2.563  0.00  0.00    -0.026 C 
ATOM      6  C   UNL     1       0.475   1.067  -3.013  0.00  0.00    +0.007 C 
ATOM      7  C   UNL     1      -0.009   1.632  -4.353  0.00  0.00    +0.005 C 
ATOM      8  C   UNL     1      -1.347   1.063  -4.787  0.00  0.00    -0.001 C 
ATOM      9  C   UNL     1      -1.315  -0.461  -4.888  0.00  0.00    -0.004 C 
ATOM     10  C   UNL     1      -2.750  -0.963  -5.050  0.00  0.00    +0.004 C 
ATOM     11  C   UNL     1      -3.337  -0.352  -6.325  0.00  0.00    +0.005 C 
ATOM     12  C   UNL     1      -2.300   0.514  -7.039  0.00  0.00    +0.003 C 
ATOM     13  C   UNL     1      -1.798   1.641  -6.136  0.00  0.00    -0.022 C 
ATOM     14  C   UNL     1      -0.603   2.313  -6.821  0.00  0.00    +0.046 C 
ATOM     15  C   UNL     1      -0.991   2.741  -8.209  0.00  0.00    -0.001 C 
ATOM     16  C   UNL     1      -0.267   3.721  -8.817  0.00  0.00    +0.053 C 
ATOM     17  C   UNL     1      -2.062   2.175  -8.893  0.00  0.00    +0.160 C 
ATOM     18  O   UNL     1      -2.311   2.575 -10.014  0.00  0.00    -0.292 OA
ATOM     19  C   UNL     1      -2.926   1.097  -8.308  0.00  0.00    +0.083 C 
ATOM     20  C   UNL     1      -2.898   2.677  -5.887  0.00  0.00    +0.012 C 
ATOM     21  C   UNL     1      -1.649   0.356  -1.889  0.00  0.00    +0.012 C 
ENDROOT
BRANCH  16  22
ATOM     22  C   UNL     1      -0.415   3.952 -10.202  0.00  0.00    +0.128 A 
ATOM     23  C   UNL     1      -0.470   5.187 -10.821  0.00  0.00    +0.049 A 
ATOM     24  C   UNL     1      -0.621   4.939 -12.192  0.00  0.00    +0.042 A 
ATOM     25  C   UNL     1      -0.652   3.596 -12.355  0.00  0.00    +0.195 A 
ATOM     26  O   UNL     1      -0.522   3.007 -11.159  0.00  0.00    -0.464 OA
ENDBRANCH  16  22
BRANCH   1  28
ATOM     27  C   UNL     1       0.982   0.804  -0.032  0.00  0.00    +0.008 C 
ATOM     28  C   UNL     1       0.211  -0.511  -0.149  0.00  0.00    -0.010 C 
BRANCH  28  29
ATOM     29  C   UNL     1       0.779  -1.527   0.843  0.00  0.00    +0.003 C 
BRANCH  29  30
ATOM     30  C   UNL     1       0.531  -1.038   2.272  0.00  0.00    +0.001 C 
BRANCH  30  31
ATOM     31  C   UNL     1       1.099  -2.054   3.265  0.00  0.00    +0.003 C 
BRANCH  31  32
ATOM     32  C   UNL     1       0.851  -1.565   4.693  0.00  0.00    -0.017 C 
ATOM     33  C   UNL     1       1.307  -2.637   5.685  0.00  0.00    +0.007 C 
ATOM     34  C   UNL     1       1.639  -0.277   4.936  0.00  0.00    +0.007 C 
ENDBRANCH  31  32
ENDBRANCH  30  31
ENDBRANCH  29  30
ENDBRANCH  28  29
ENDBRANCH   1  28
TORSDOF 6
