REMARK  Name = ZINC67062355
REMARK  6 active torsions:
REMARK  status: ('A' for Active; 'I' for Inactive)
REMARK    1  A    between atoms: C_1  and  C_2
REMARK    2  A    between atoms: C_11  and  C_14
REMARK    3  A    between atoms: C_14  and  N_15
REMARK    4  A    between atoms: N_18  and  N_19
REMARK    5  A    between atoms: C_20  and  C_22
REMARK    6  A    between atoms: C_22  and  C_23
REMARK                            x       y       z     vdW  Elec       q    Type
REMARK                         _______ _______ _______ _____ _____    ______ ____
ROOT
ATOM      1  N   UNL     1      -2.304  -7.683   4.228  0.00  0.00    -0.294 N 
ATOM      2  C   UNL     1      -2.664  -8.757   4.959  0.00  0.00    +0.316 C 
ATOM      3  O   UNL     1      -3.161  -8.605   6.058  0.00  0.00    -0.251 OA
ATOM      4  N   UNL     1      -2.474  -9.998   4.471  0.00  0.00    -0.218 N 
ATOM      5  H   UNL     1      -1.907  -7.804   3.351  0.00  0.00    +0.151 HD
ATOM      6  H   UNL     1      -2.734 -10.771   4.996  0.00  0.00    +0.174 HD
ENDROOT
BRANCH   4   7
ATOM      7  N   UNL     1      -1.902 -10.173   3.204  0.00  0.00    -0.233 N 
ATOM      8  C   UNL     1      -1.712 -11.415   2.716  0.00  0.00    +0.229 C 
ATOM      9  O   UNL     1      -2.036 -12.381   3.373  0.00  0.00    -0.274 OA
ATOM     10  H   UNL     1      -1.642  -9.400   2.678  0.00  0.00    +0.173 HD
BRANCH   8  11
ATOM     11  C   UNL     1      -1.096 -11.603   1.353  0.00  0.00    +0.101 C 
BRANCH  11  12
ATOM     12  C   UNL     1      -0.993 -13.097   1.042  0.00  0.00    -0.002 C 
ATOM     13  C   UNL     1      -0.019 -13.756   2.021  0.00  0.00    +0.004 C 
ATOM     14  C   UNL     1       0.084 -15.251   1.709  0.00  0.00    +0.000 C 
ATOM     15  C   UNL     1       0.593 -15.440   0.279  0.00  0.00    +0.000 C 
ATOM     16  C   UNL     1      -0.381 -14.781  -0.700  0.00  0.00    +0.000 C 
ATOM     17  C   UNL     1      -0.484 -13.287  -0.389  0.00  0.00    +0.004 C 
ENDBRANCH  11  12
ENDBRANCH   8  11
ENDBRANCH   4   7
BRANCH   1  18
ATOM     18  C   UNL     1      -2.510  -6.333   4.759  0.00  0.00    +0.142 C 
BRANCH  18  29
ATOM     19  C   UNL     1       1.516  -1.759  -2.543  0.00  0.00    +0.007 C 
ATOM     20  C   UNL     1       0.744  -1.592  -1.232  0.00  0.00    -0.011 C 
ATOM     21  C   UNL     1       1.541  -2.221  -0.087  0.00  0.00    +0.022 C 
ATOM     22  C   UNL     1       0.782  -2.021   1.228  0.00  0.00    +0.107 C 
ATOM     23  N   UNL     1      -0.578  -2.556   1.075  0.00  0.00    -0.317 N 
ATOM     24  C   UNL     1      -1.400  -2.086  -0.049  0.00  0.00    +0.107 C 
ATOM     25  C   UNL     1      -0.616  -2.284  -1.350  0.00  0.00    +0.022 C 
ATOM     26  C   UNL     1      -1.078  -3.489   1.976  0.00  0.00    +0.099 A 
ATOM     27  C   UNL     1      -2.408  -3.889   1.888  0.00  0.00    +0.042 A 
ATOM     28  C   UNL     1      -2.892  -4.819   2.790  0.00  0.00    +0.010 A 
ATOM     29  C   UNL     1      -2.026  -5.319   3.755  0.00  0.00    -0.014 A 
ATOM     30  C   UNL     1      -0.719  -4.878   3.784  0.00  0.00    +0.089 A 
ATOM     31  N   UNL     1      -0.283  -3.994   2.906  0.00  0.00    -0.349 N 
ATOM     32  H   UNL     1       0.642  -3.704   2.947  0.00  0.00    +0.167 HD
ENDBRANCH  18  29
ENDBRANCH   1  18
TORSDOF 5
