REMARK  Name = ZINC10028556
REMARK  15 active torsions:
REMARK  status: ('A' for Active; 'I' for Inactive)
REMARK    1  A    between atoms: C_1  and  N_63
REMARK    2  A    between atoms: C_2  and  N_63
REMARK    3  A    between atoms: C_3  and  C_4
REMARK    4  A    between atoms: C_3  and  N_63
REMARK    5  A    between atoms: C_4  and  N_5
REMARK    6  A    between atoms: C_9  and  O_17
REMARK    7  A    between atoms: C_12  and  O_15
REMARK    8  A    between atoms: O_15  and  C_16
REMARK    9  A    between atoms: O_17  and  C_18
REMARK   10  A    between atoms: C_19  and  C_21
REMARK   11  A    between atoms: C_21  and  C_22
REMARK   12  A    between atoms: C_22  and  S_23
REMARK   13  A    between atoms: S_23  and  C_26
REMARK   14  A    between atoms: C_29  and  O_32
REMARK   15  A    between atoms: O_32  and  C_33
REMARK                            x       y       z     vdW  Elec       q    Type
REMARK                         _______ _______ _______ _____ _____    ______ ____
ROOT
ATOM      1  N   UNL     1       2.459   3.211  -0.005  0.00  0.00    -0.252 N 
ATOM      2  C   UNL     1       1.748   2.021  -0.004  0.00  0.00    +0.168 A 
ATOM      3  N   UNL     1       2.202   0.790  -0.015  0.00  0.00    -0.221 NA
ATOM      4  C   UNL     1       1.384  -0.286  -0.013  0.00  0.00    +0.125 A 
ATOM      5  C   UNL     1       1.744  -1.659  -0.024  0.00  0.00    +0.147 A 
ATOM      6  C   UNL     1       0.780  -2.637  -0.019  0.00  0.00    +0.051 A 
ATOM      7  C   UNL     1      -0.572  -2.322  -0.005  0.00  0.00    +0.050 A 
ATOM      8  C   UNL     1      -0.959  -0.991   0.006  0.00  0.00    +0.136 A 
ATOM      9  C   UNL     1       0.002  -0.004   0.002  0.00  0.00    +0.086 A 
ATOM     10  S   UNL     1      -0.022   1.772   0.012  0.00  0.00    -0.048 S 
ATOM     11  C   UNL     1       1.804   4.388   0.007  0.00  0.00    +0.223 C 
ATOM     12  O   UNL     1       0.591   4.407   0.018  0.00  0.00    -0.275 OA
ENDROOT
BRANCH   8  13
ATOM     13  O   UNL     1      -2.279  -0.662   0.021  0.00  0.00    -0.494 OA
ATOM     14  C   UNL     1      -3.216  -1.740   0.024  0.00  0.00    +0.277 C 
ENDBRANCH   8  13
BRANCH   5  15
ATOM     15  O   UNL     1       3.058  -2.010  -0.038  0.00  0.00    -0.493 OA
ATOM     16  C   UNL     1       3.356  -3.407  -0.048  0.00  0.00    +0.277 C 
ENDBRANCH   5  15
BRANCH   1  17
ATOM     17  C   UNL     1       3.924   3.188  -0.019  0.00  0.00    +0.097 C 
BRANCH  17  18
ATOM     18  C   UNL     1       4.420   3.187  -1.466  0.00  0.00    -0.060 C 
BRANCH  18  21
ATOM     19  C   UNL     1       6.402   1.901  -0.934  0.00  0.00    -0.097 C 
ATOM     20  C   UNL     1       6.406   3.401  -2.834  0.00  0.00    -0.097 C 
ATOM     21  N   UNL     1       5.898   3.186  -1.463  0.00  0.00    +0.377 N 
ATOM     22  H   UNL     1       6.231   3.948  -0.861  0.00  0.00    -0.083 HD
ENDBRANCH  18  21
ENDBRANCH  17  18
ENDBRANCH   1  17
BRANCH  11  23
ATOM     23  C   UNL     1       2.577   5.681   0.006  0.00  0.00    +0.119 C 
BRANCH  23  24
ATOM     24  C   UNL     1       1.601   6.859   0.021  0.00  0.00    +0.181 C 
BRANCH  24  25
ATOM     25  S   UNL     1       2.532   8.416   0.019  0.00  0.00    -0.003 S 
ATOM     26  O   UNL     1       3.228   8.571   1.248  0.00  0.00    -0.169 OA
ATOM     27  O   UNL     1       3.205   8.583  -1.221  0.00  0.00    -0.169 OA
BRANCH  25  28
ATOM     28  C   UNL     1       1.303   9.679   0.037  0.00  0.00    +0.088 A 
ATOM     29  C   UNL     1       0.814  10.183  -1.154  0.00  0.00    +0.030 A 
ATOM     30  C   UNL     1      -0.154  11.169  -1.143  0.00  0.00    +0.047 A 
ATOM     31  C   UNL     1      -0.627  11.661   0.065  0.00  0.00    +0.120 A 
ATOM     32  C   UNL     1      -0.131  11.157   1.258  0.00  0.00    +0.047 A 
ATOM     33  C   UNL     1       0.833  10.168   1.242  0.00  0.00    +0.030 A 
BRANCH  31  34
ATOM     34  O   UNL     1      -1.575  12.634   0.078  0.00  0.00    -0.495 OA
ATOM     35  C   UNL     1      -2.040  13.105  -1.188  0.00  0.00    +0.277 C 
ENDBRANCH  31  34
ENDBRANCH  25  28
ENDBRANCH  24  25
ENDBRANCH  23  24
ENDBRANCH  11  23
TORSDOF 10
