REMARK  Name = ZINC11843723
REMARK  7 active torsions:
REMARK  status: ('A' for Active; 'I' for Inactive)
REMARK    1  A    between atoms: C_1  and  C_2
REMARK    2  A    between atoms: C_2  and  C_3
REMARK    3  A    between atoms: C_2  and  C_4
REMARK    4  A    between atoms: C_2  and  N_5
REMARK    5  A    between atoms: C_11  and  N_59
REMARK    6  A    between atoms: C_17  and  C_20
REMARK    7  A    between atoms: N_22  and  C_23
REMARK                            x       y       z     vdW  Elec       q    Type
REMARK                         _______ _______ _______ _____ _____    ______ ____
ROOT
ATOM      1  N   UNL     1      -0.637   7.076   5.835  0.00  0.00    -0.294 N 
ATOM      2  C   UNL     1      -0.656   5.732   5.942  0.00  0.00    +0.303 C 
ATOM      3  O   UNL     1      -0.182   5.194   6.924  0.00  0.00    -0.253 OA
ATOM      4  N   UNL     1      -1.200   4.986   4.961  0.00  0.00    -0.286 N 
ATOM      5  C   UNL     1      -1.131   3.519   5.010  0.00  0.00    +0.108 C 
ATOM      6  C   UNL     1      -0.524   3.010   3.699  0.00  0.00    +0.004 C 
ATOM      7  C   UNL     1      -1.329   3.562   2.521  0.00  0.00    -0.066 C 
ATOM      8  C   UNL     1      -1.258   5.091   2.524  0.00  0.00    +0.004 C 
ATOM      9  C   UNL     1      -1.874   5.624   3.822  0.00  0.00    +0.108 C 
ATOM     10  H   UNL     1      -1.079   7.509   5.089  0.00  0.00    +0.151 HD
ENDROOT
BRANCH   7  16
ATOM     11  C   UNL     1      -0.729   1.581   1.265  0.00  0.00    -0.078 C 
ATOM     12  C   UNL     1      -0.011   1.088   0.007  0.00  0.00    -0.018 C 
ATOM     13  C   UNL     1      -0.754   1.596  -1.232  0.00  0.00    +0.009 C 
ATOM     14  C   UNL     1      -0.823   3.124  -1.185  0.00  0.00    +0.058 C 
ATOM     15  C   UNL     1      -1.518   3.559   0.107  0.00  0.00    -0.066 C 
ATOM     16  N   UNL     1      -0.741   3.060   1.262  0.00  0.00    +0.382 N 
ATOM     17  H   UNL     1       0.225   3.400   1.185  0.00  0.00    -0.081 HD
BRANCH  14  18
ATOM     18  C   UNL     1      -1.603   3.630  -2.371  0.00  0.00    +0.215 C 
ATOM     19  O   UNL     1      -2.614   4.277  -2.201  0.00  0.00    -0.276 OA
ATOM     20  N   UNL     1      -1.177   3.362  -3.622  0.00  0.00    -0.312 N 
ATOM     21  H   UNL     1      -0.368   2.844  -3.758  0.00  0.00    +0.149 HD
BRANCH  20  22
ATOM     22  C   UNL     1      -1.935   3.853  -4.775  0.00  0.00    +0.073 C 
ATOM     23  C   UNL     1      -2.153   2.886  -5.941  0.00  0.00    +0.024 C 
ATOM     24  C   UNL     1      -1.174   4.053  -6.087  0.00  0.00    +0.024 C 
ENDBRANCH  20  22
ENDBRANCH  14  18
ENDBRANCH   7  16
BRANCH   1  26
ATOM     25  C   UNL     1       1.530   7.493   6.889  0.00  0.00    +0.031 C 
ATOM     26  C   UNL     1       0.051   7.881   6.847  0.00  0.00    +0.028 C 
ATOM     27  C   UNL     1      -0.077   9.364   6.492  0.00  0.00    +0.031 C 
ATOM     28  C   UNL     1      -0.582   7.629   8.217  0.00  0.00    +0.031 C 
ENDBRANCH   1  26
TORSDOF 4
