REMARK  Name = ZINC11523753
REMARK  9 active torsions:
REMARK  status: ('A' for Active; 'I' for Inactive)
REMARK    1  A    between atoms: C_4  and  C_23
REMARK    2  A    between atoms: C_5  and  C_7
REMARK    3  A    between atoms: C_8  and  C_9
REMARK    4  A    between atoms: N_11  and  N_12
REMARK    5  A    between atoms: N_12  and  C_13
REMARK    6  A    between atoms: C_13  and  N_15
REMARK    7  A    between atoms: N_15  and  C_16
REMARK    8  A    between atoms: C_16  and  C_17
REMARK    9  A    between atoms: C_17  and  C_18
REMARK                            x       y       z     vdW  Elec       q    Type
REMARK                         _______ _______ _______ _____ _____    ______ ____
ROOT
ATOM      1  C   UNL     1      -0.014   1.213   0.009  0.00  0.00    +0.253 C 
ATOM      2  O   UNL     1       0.002  -0.004   0.002  0.00  0.00    -0.269 OA
ATOM      3  N   UNL     1       1.143   1.902   0.001  0.00  0.00    -0.232 N 
ATOM      4  H   UNL     1       1.130   2.872   0.007  0.00  0.00    +0.173 HD
ENDROOT
BRANCH   1   6
ATOM      5  C   UNL     1      -2.452   1.238   0.020  0.00  0.00    +0.014 C 
ATOM      6  C   UNL     1      -1.293   1.928   0.019  0.00  0.00    +0.069 C 
BRANCH   5  11
ATOM      7  C   UNL     1      -4.967   4.020   0.048  0.00  0.00    +0.001 A 
ATOM      8  C   UNL     1      -6.160   3.315   0.049  0.00  0.00    +0.001 A 
ATOM      9  C   UNL     1      -6.158   1.934   0.042  0.00  0.00    +0.019 A 
ATOM     10  C   UNL     1      -4.950   1.239   0.026  0.00  0.00    +0.059 A 
ATOM     11  C   UNL     1      -3.735   1.956   0.030  0.00  0.00    -0.008 A 
ATOM     12  C   UNL     1      -3.760   3.352   0.038  0.00  0.00    +0.009 A 
BRANCH  10  13
ATOM     13  C   UNL     1      -4.943  -0.193   0.012  0.00  0.00    +0.100 C 
ATOM     14  N   UNL     1      -4.937  -1.329   0.001  0.00  0.00    -0.191 NA
ENDBRANCH  10  13
ENDBRANCH   5  11
ENDBRANCH   1   6
BRANCH   3  15
ATOM     15  N   UNL     1       2.366   1.218  -0.014  0.00  0.00    -0.246 N 
ATOM     16  H   UNL     1       2.379   0.249  -0.019  0.00  0.00    +0.172 HD
BRANCH  15  17
ATOM     17  C   UNL     1       3.524   1.908  -0.021  0.00  0.00    +0.147 C 
ATOM     18  S   UNL     1       5.018   1.072  -0.040  0.00  0.00    -0.017 S 
BRANCH  17  19
ATOM     19  N   UNL     1       3.506   3.256  -0.014  0.00  0.00    -0.325 N 
ATOM     20  H   UNL     1       2.659   3.729  -0.003  0.00  0.00    +0.148 HD
BRANCH  19  21
ATOM     21  C   UNL     1       4.764   4.005  -0.022  0.00  0.00    +0.108 C 
BRANCH  21  22
ATOM     22  C   UNL     1       4.464   5.506  -0.011  0.00  0.00    +0.061 C 
BRANCH  22  23
ATOM     23  C   UNL     1       5.759   6.277  -0.019  0.00  0.00    -0.009 A 
ATOM     24  C   UNL     1       6.485   6.715  -1.077  0.00  0.00    +0.011 A 
ATOM     25  C   UNL     1       7.654   7.414  -0.844  0.00  0.00    +0.008 A 
ATOM     26  C   UNL     1       8.046   7.633   0.436  0.00  0.00    +0.045 A 
ATOM     27  S   UNL     1       6.739   6.844   1.361  0.00  0.00    -0.102 S 
ENDBRANCH  22  23
ENDBRANCH  21  22
ENDBRANCH  19  21
ENDBRANCH  17  19
ENDBRANCH  15  17
ENDBRANCH   3  15
TORSDOF 9
