REMARK  Name = ZINC06232721
REMARK  11 active torsions:
REMARK  status: ('A' for Active; 'I' for Inactive)
REMARK    1  A    between atoms: C_1  and  C_2
REMARK    2  A    between atoms: C_5  and  C_34
REMARK    3  A    between atoms: C_5  and  C_35
REMARK    4  A    between atoms: C_14  and  C_33
REMARK    5  A    between atoms: C_17  and  O_32
REMARK    6  A    between atoms: C_19  and  C_30
REMARK    7  A    between atoms: C_19  and  C_31
REMARK    8  A    between atoms: C_24  and  C_29
REMARK    9  A    between atoms: C_25  and  C_28
REMARK   10  A    between atoms: C_35  and  O_37
REMARK   11  A    between atoms: O_37  and  C_38
REMARK                            x       y       z     vdW  Elec       q    Type
REMARK                         _______ _______ _______ _____ _____    ______ ____
ROOT
ATOM      1  C   UNL     1      -0.025   1.011  -1.541  0.00  0.00    +0.016 C 
ATOM      2  C   UNL     1       0.164  -0.496  -1.783  0.00  0.00    -0.007 C 
ATOM      3  C   UNL     1      -1.164  -0.959  -2.366  0.00  0.00    +0.012 C 
ATOM      4  C   UNL     1      -1.615  -2.309  -1.821  0.00  0.00    +0.023 C 
ATOM      5  C   UNL     1      -1.690  -2.255  -0.295  0.00  0.00    +0.084 C 
ATOM      6  C   UNL     1      -0.323  -1.901   0.219  0.00  0.00    -0.005 C 
ATOM      7  C   UNL     1       0.505  -1.125  -0.469  0.00  0.00    -0.041 C 
ATOM      8  C   UNL     1       1.847  -0.884   0.085  0.00  0.00    -0.034 C 
ATOM      9  C   UNL     1       2.078  -0.883   1.408  0.00  0.00    +0.051 C 
ATOM     10  C   UNL     1       3.379  -0.804   1.929  0.00  0.00    +0.160 C 
ATOM     11  O   UNL     1       3.509  -0.745   3.142  0.00  0.00    -0.292 OA
ATOM     12  C   UNL     1       4.600  -0.836   1.045  0.00  0.00    +0.073 C 
ATOM     13  C   UNL     1       5.447   0.406   1.299  0.00  0.00    -0.018 C 
ATOM     14  C   UNL     1       4.525   1.547   1.708  0.00  0.00    +0.010 C 
ATOM     15  C   UNL     1       5.280   2.856   1.921  0.00  0.00    +0.032 C 
ATOM     16  C   UNL     1       6.013   3.207   0.631  0.00  0.00    +0.120 C 
ATOM     17  C   UNL     1       7.054   2.140   0.306  0.00  0.00    -0.006 C 
ATOM     18  C   UNL     1       6.464   0.735   0.238  0.00  0.00    +0.004 C 
ATOM     19  C   UNL     1       6.057   0.401  -1.186  0.00  0.00    +0.005 C 
ATOM     20  C   UNL     1       5.423  -0.969  -1.327  0.00  0.00    +0.008 C 
ATOM     21  C   UNL     1       4.265  -1.222  -0.375  0.00  0.00    -0.012 C 
ATOM     22  C   UNL     1       2.965  -0.634  -0.905  0.00  0.00    -0.001 C 
ATOM     23  C   UNL     1       2.536  -1.312  -2.215  0.00  0.00    +0.013 C 
ATOM     24  C   UNL     1       1.285  -0.661  -2.796  0.00  0.00    +0.012 C 
ATOM     25  C   UNL     1       3.097   0.868  -1.175  0.00  0.00    +0.017 C 
ATOM     26  C   UNL     1       4.090  -2.772  -0.346  0.00  0.00    +0.013 C 
ATOM     27  C   UNL     1       7.689   2.522  -1.047  0.00  0.00    +0.014 C 
ATOM     28  C   UNL     1       8.187   2.202   1.344  0.00  0.00    +0.014 C 
ATOM     29  C   UNL     1       6.256   0.039   2.588  0.00  0.00    +0.012 C 
ATOM     30  C   UNL     1      -2.093  -3.631   0.241  0.00  0.00    +0.027 C 
ENDROOT
BRANCH  16  31
ATOM     31  O   UNL     1       5.077   3.314  -0.445  0.00  0.00    -0.391 OA
ATOM     32  H   UNL     1       4.400   3.992  -0.312  0.00  0.00    +0.210 HD
ENDBRANCH  16  31
BRANCH   5  33
ATOM     33  C   UNL     1      -2.696  -1.232   0.153  0.00  0.00    +0.317 C 
ATOM     34  O   UNL     1      -3.311  -0.589  -0.665  0.00  0.00    -0.250 OA
BRANCH  33  35
ATOM     35  O   UNL     1      -2.912  -1.031   1.463  0.00  0.00    -0.467 OA
ATOM     36  C   UNL     1      -3.881  -0.043   1.817  0.00  0.00    +0.280 C 
ENDBRANCH  33  35
ENDBRANCH   5  33
TORSDOF 3
