REMARK  Name = ZINC65074782
REMARK  6 active torsions:
REMARK  status: ('A' for Active; 'I' for Inactive)
REMARK    1  A    between atoms: C_1  and  O_2
REMARK    2  A    between atoms: O_2  and  C_3
REMARK    3  A    between atoms: C_8  and  C_9
REMARK    4  A    between atoms: C_9  and  N_10
REMARK    5  A    between atoms: N_19  and  S_22
REMARK    6  A    between atoms: S_22  and  C_25
REMARK                            x       y       z     vdW  Elec       q    Type
REMARK                         _______ _______ _______ _____ _____    ______ ____
ROOT
ATOM      1  N   UNL     1       0.950  -2.876  -1.151  0.00  0.00    -0.328 N 
ATOM      2  C   UNL     1       0.587  -3.573  -2.273  0.00  0.00    +0.089 C 
ATOM      3  N   UNL     1      -0.546  -4.167  -2.276  0.00  0.00    -0.374 N 
ATOM      4  C   UNL     1      -1.049  -4.951  -3.399  0.00  0.00    +0.129 C 
ATOM      5  C   UNL     1      -0.261  -4.616  -4.667  0.00  0.00    +0.102 C 
ATOM      6  N   UNL     1       1.176  -4.685  -4.356  0.00  0.00    -0.303 NA
ATOM      7  C   UNL     1       1.538  -3.595  -3.435  0.00  0.00    +0.075 C 
ATOM      8  C   UNL     1       2.965  -3.820  -2.927  0.00  0.00    +0.047 C 
ATOM      9  C   UNL     1       3.924  -3.881  -4.120  0.00  0.00    +0.112 C 
ATOM     10  N   UNL     1       3.756  -2.663  -4.924  0.00  0.00    -0.176 NA
ATOM     11  C   UNL     1       2.409  -2.301  -5.386  0.00  0.00    +0.112 C 
ATOM     12  C   UNL     1       1.469  -2.258  -4.178  0.00  0.00    +0.047 C 
ATOM     13  H   UNL     1       1.802  -2.413  -1.123  0.00  0.00    +0.147 HD
ATOM     14  H   UNL     1       1.420  -5.585  -3.969  0.00  0.00    +0.123 HD
ATOM     15  H   UNL     1      -1.104  -4.091  -1.485  0.00  0.00    +0.161 HD
ENDROOT
BRANCH  10  16
ATOM     16  S   UNL     1       5.061  -1.715  -5.302  0.00  0.00    +0.067 S 
ATOM     17  O   UNL     1       4.556  -0.412  -5.559  0.00  0.00    -0.152 OA
ATOM     18  O   UNL     1       6.047  -1.968  -4.311  0.00  0.00    -0.152 OA
BRANCH  16  19
ATOM     19  C   UNL     1       5.714  -2.311  -6.826  0.00  0.00    +0.144 A 
ATOM     20  C   UNL     1       5.404  -1.938  -8.091  0.00  0.00    +0.038 A 
ATOM     21  C   UNL     1       6.051  -2.550  -9.149  0.00  0.00    +0.030 A 
ATOM     22  C   UNL     1       6.978  -3.506  -8.888  0.00  0.00    +0.080 A 
ATOM     23  S   UNL     1       6.962  -3.558  -7.103  0.00  0.00    -0.057 S 
ATOM     24 CL   UNL     1       7.936  -4.432 -10.000  0.00  0.00    -0.076 Cl
ENDBRANCH  16  19
ENDBRANCH  10  16
BRANCH   1  25
ATOM     25  C   UNL     1       0.052  -2.828   0.005  0.00  0.00    +0.141 C 
BRANCH  25  31
ATOM     26  C   UNL     1       0.626  -0.618   1.042  0.00  0.00    +0.125 A 
ATOM     27  C   UNL     1       1.202   0.139   2.051  0.00  0.00    +0.046 A 
ATOM     28  C   UNL     1       1.835  -0.488   3.107  0.00  0.00    +0.004 A 
ATOM     29  C   UNL     1       1.895  -1.869   3.158  0.00  0.00    +0.001 A 
ATOM     30  C   UNL     1       1.321  -2.625   2.153  0.00  0.00    +0.009 A 
ATOM     31  C   UNL     1       0.682  -2.003   1.097  0.00  0.00    +0.011 A 
BRANCH  26  33
ATOM     32  C   UNL     1      -0.017   1.425   0.010  0.00  0.00    +0.277 C 
ATOM     33  O   UNL     1       0.002  -0.004   0.002  0.00  0.00    -0.495 OA
ENDBRANCH  26  33
ENDBRANCH  25  31
ENDBRANCH   1  25
TORSDOF 5
