REMARK  Name = ZINC15043349
REMARK  9 active torsions:
REMARK  status: ('A' for Active; 'I' for Inactive)
REMARK    1  A    between atoms: C_1  and  C_2
REMARK    2  A    between atoms: C_2  and  C_4
REMARK    3  A    between atoms: C_2  and  N_62
REMARK    4  A    between atoms: N_6  and  C_7
REMARK    5  A    between atoms: C_7  and  C_8
REMARK    6  A    between atoms: C_8  and  C_9
REMARK    7  A    between atoms: C_17  and  C_20
REMARK    8  A    between atoms: N_22  and  C_23
REMARK    9  A    between atoms: C_28  and  O_29
REMARK                            x       y       z     vdW  Elec       q    Type
REMARK                         _______ _______ _______ _____ _____    ______ ____
ROOT
ATOM      1  C   UNL     1      -1.768  -1.839   0.840  0.00  0.00    -0.077 C 
ATOM      2  C   UNL     1      -3.224  -1.995   1.286  0.00  0.00    -0.006 C 
ATOM      3  C   UNL     1      -3.483  -1.087   2.491  0.00  0.00    +0.072 C 
ATOM      4  C   UNL     1      -3.163   0.360   2.108  0.00  0.00    -0.006 C 
ATOM      5  C   UNL     1      -1.709   0.449   1.638  0.00  0.00    -0.077 C 
ATOM      6  N   UNL     1      -1.532  -0.429   0.462  0.00  0.00    +0.387 N 
ATOM      7  H   UNL     1      -2.210  -0.160  -0.261  0.00  0.00    -0.081 HD
ENDROOT
BRANCH   3   8
ATOM      8  C   UNL     1      -4.931  -1.192   2.899  0.00  0.00    +0.220 C 
ATOM      9  O   UNL     1      -5.637  -0.206   2.884  0.00  0.00    -0.275 OA
ATOM     10  N   UNL     1      -5.439  -2.380   3.279  0.00  0.00    -0.282 N 
ATOM     11  H   UNL     1      -4.857  -3.151   3.369  0.00  0.00    +0.155 HD
BRANCH  10  12
ATOM     12  C   UNL     1      -6.810  -2.503   3.544  0.00  0.00    +0.075 A 
ATOM     13  C   UNL     1      -7.701  -1.563   3.050  0.00  0.00    +0.027 A 
ATOM     14  C   UNL     1      -9.052  -1.686   3.313  0.00  0.00    +0.002 A 
ATOM     15  C   UNL     1      -9.519  -2.746   4.069  0.00  0.00    +0.004 A 
ATOM     16  C   UNL     1      -8.636  -3.687   4.565  0.00  0.00    +0.047 A 
ATOM     17  C   UNL     1      -7.281  -3.574   4.301  0.00  0.00    +0.138 A 
BRANCH  17  18
ATOM     18  O   UNL     1      -6.413  -4.502   4.784  0.00  0.00    -0.505 OA
ATOM     19  H   UNL     1      -6.061  -4.294   5.660  0.00  0.00    +0.292 HD
ENDBRANCH  17  18
ENDBRANCH  10  12
ENDBRANCH   3   8
BRANCH   6  21
ATOM     20  C   UNL     1       0.073  -1.346  -1.147  0.00  0.00    -0.004 C 
ATOM     21  C   UNL     1      -0.166  -0.275  -0.081  0.00  0.00    +0.016 C 
BRANCH  21  22
ATOM     22  C   UNL     1       0.859  -0.419   1.014  0.00  0.00    +0.199 C 
ATOM     23  O   UNL     1       0.625  -1.122   1.975  0.00  0.00    -0.278 OA
ATOM     24  N   UNL     1       2.035   0.233   0.927  0.00  0.00    -0.316 N 
ATOM     25  H   UNL     1       2.222   0.795   0.159  0.00  0.00    +0.149 HD
BRANCH  24  26
ATOM     26  C   UNL     1       3.031   0.092   1.992  0.00  0.00    +0.108 C 
BRANCH  26  27
ATOM     27  C   UNL     1       4.266   0.929   1.649  0.00  0.00    +0.049 C 
BRANCH  27  28
ATOM     28  C   UNL     1       5.290   0.784   2.745  0.00  0.00    -0.072 C 
ATOM     29  C   UNL     1       6.218  -0.105   2.594  0.00  0.00    -0.028 C 
ATOM     30  C   UNL     1       7.300  -0.371   3.601  0.00  0.00    +0.027 C 
ATOM     31  C   UNL     1       7.406   0.798   4.582  0.00  0.00    +0.004 C 
ATOM     32  C   UNL     1       6.000   1.124   5.102  0.00  0.00    +0.005 C 
ATOM     33  C   UNL     1       5.175   1.685   3.940  0.00  0.00    +0.030 C 
ENDBRANCH  27  28
ENDBRANCH  26  27
ENDBRANCH  24  26
ENDBRANCH  21  22
ENDBRANCH   6  21
TORSDOF 8
