REMARK  Name = ZINC45940758
REMARK  9 active torsions:
REMARK  status: ('A' for Active; 'I' for Inactive)
REMARK    1  A    between atoms: C_1  and  C_2
REMARK    2  A    between atoms: C_2  and  C_3
REMARK    3  A    between atoms: C_2  and  C_4
REMARK    4  A    between atoms: C_2  and  C_5
REMARK    5  A    between atoms: N_7  and  C_8
REMARK    6  A    between atoms: C_13  and  S_14
REMARK    7  A    between atoms: S_14  and  C_15
REMARK    8  A    between atoms: N_21  and  C_26
REMARK    9  A    between atoms: N_24  and  C_25
REMARK                            x       y       z     vdW  Elec       q    Type
REMARK                         _______ _______ _______ _____ _____    ______ ____
ROOT
ATOM      1  C   UNL     1       1.182  -2.222  -2.810  0.00  0.00    +0.049 A 
ATOM      2  C   UNL     1       1.652  -1.272  -3.703  0.00  0.00    +0.052 A 
ATOM      3  C   UNL     1       2.404  -1.668  -4.799  0.00  0.00    +0.071 A 
ATOM      4  C   UNL     1       2.687  -3.020  -5.002  0.00  0.00    +0.071 A 
ATOM      5  C   UNL     1       2.215  -3.970  -4.109  0.00  0.00    +0.044 A 
ATOM      6  C   UNL     1       1.469  -3.573  -3.010  0.00  0.00    +0.031 A 
ATOM      7  N   UNL     1       3.448  -3.101  -6.168  0.00  0.00    -0.295 N 
ATOM      8  C   UNL     1       3.620  -1.856  -6.650  0.00  0.00    +0.330 A 
ATOM      9  O   UNL     1       4.240  -1.576  -7.659  0.00  0.00    -0.246 OA
ATOM     10  N   UNL     1       3.003  -0.969  -5.848  0.00  0.00    -0.295 N 
ATOM     11  C   UNL     1       2.966   0.482  -6.043  0.00  0.00    +0.154 C 
ATOM     12  C   UNL     1       3.972  -4.332  -6.765  0.00  0.00    +0.154 C 
ENDROOT
BRANCH   1  15
ATOM     13  C   UNL     1       0.465  -0.545  -1.277  0.00  0.00    +0.223 C 
ATOM     14  O   UNL     1       1.234   0.239  -1.793  0.00  0.00    -0.275 OA
ATOM     15  N   UNL     1       0.421  -1.824  -1.701  0.00  0.00    -0.284 N 
ATOM     16  H   UNL     1      -0.137  -2.469  -1.238  0.00  0.00    +0.155 HD
BRANCH  13  18
ATOM     17  C   UNL     1      -0.192   1.394   0.122  0.00  0.00    +0.020 C 
ATOM     18  C   UNL     1      -0.440  -0.089  -0.162  0.00  0.00    +0.039 C 
ATOM     19  C   UNL     1      -0.149  -0.906   1.098  0.00  0.00    +0.020 C 
ATOM     20  C   UNL     1      -1.899  -0.291  -0.575  0.00  0.00    +0.020 C 
ENDBRANCH  13  18
ENDBRANCH   1  15
BRANCH   6  21
ATOM     21  S   UNL     1       0.876  -4.777  -1.868  0.00  0.00    -0.120 S 
BRANCH  21  22
ATOM     22  C   UNL     1       1.325  -6.362  -2.628  0.00  0.00    +0.051 C 
ATOM     23  C   UNL     1       0.487  -6.577  -3.890  0.00  0.00    +0.014 C 
ATOM     24  C   UNL     1       0.866  -7.914  -4.532  0.00  0.00    +0.001 C 
ATOM     25  C   UNL     1       0.597  -9.049  -3.541  0.00  0.00    +0.000 C 
ATOM     26  C   UNL     1       1.435  -8.833  -2.279  0.00  0.00    +0.001 C 
ATOM     27  C   UNL     1       1.056  -7.497  -1.638  0.00  0.00    +0.014 C 
ENDBRANCH  21  22
ENDBRANCH   6  21
TORSDOF 4
