REMARK  Name = ZINC35023424
REMARK  17 active torsions:
REMARK  status: ('A' for Active; 'I' for Inactive)
REMARK    1  A    between atoms: C_1  and  C_2
REMARK    2  A    between atoms: C_4  and  C_13
REMARK    3  A    between atoms: C_7  and  O_8
REMARK    4  A    between atoms: O_8  and  C_9
REMARK    5  A    between atoms: C_9  and  C_10
REMARK    6  A    between atoms: C_10  and  C_11
REMARK    7  A    between atoms: C_10  and  C_12
REMARK    8  A    between atoms: C_13  and  C_14
REMARK    9  A    between atoms: C_15  and  C_27
REMARK   10  A    between atoms: N_17  and  C_22
REMARK   11  A    between atoms: C_22  and  C_23
REMARK   12  A    between atoms: C_23  and  N_24
REMARK   13  A    between atoms: N_24  and  C_25
REMARK   14  A    between atoms: N_24  and  C_26
REMARK   15  A    between atoms: C_30  and  O_33
REMARK   16  A    between atoms: O_33  and  C_34
REMARK   17  A    between atoms: C_34  and  C_35
REMARK                            x       y       z     vdW  Elec       q    Type
REMARK                         _______ _______ _______ _____ _____    ______ ____
ROOT
ATOM      1  C   UNL     1       0.101  -4.270  -2.387  0.00  0.00    +0.076 C 
ATOM      2  C   UNL     1       0.100  -5.105  -1.127  0.00  0.00    +0.145 C 
ATOM      3  N   UNL     1       0.203  -6.503  -1.563  0.00  0.00    -0.285 N 
ATOM      4  C   UNL     1       0.258  -6.514  -2.907  0.00  0.00    +0.288 C 
ATOM      5  O   UNL     1       0.346  -7.513  -3.593  0.00  0.00    -0.266 OA
ATOM      6  C   UNL     1       0.189  -5.132  -3.426  0.00  0.00    +0.249 C 
ATOM      7  O   UNL     1       0.214  -4.783  -4.733  0.00  0.00    -0.282 OA
ENDROOT
BRANCH   2   8
ATOM      8  C   UNL     1       1.282  -4.743  -0.265  0.00  0.00    -0.022 A 
ATOM      9  C   UNL     1       2.552  -5.152  -0.628  0.00  0.00    +0.009 A 
ATOM     10  C   UNL     1       3.637  -4.822   0.161  0.00  0.00    +0.046 A 
ATOM     11  C   UNL     1       3.451  -4.079   1.318  0.00  0.00    +0.121 A 
ATOM     12  C   UNL     1       2.176  -3.671   1.680  0.00  0.00    +0.046 A 
ATOM     13  C   UNL     1       1.095  -3.999   0.885  0.00  0.00    +0.009 A 
BRANCH  11  14
ATOM     14  O   UNL     1       4.517  -3.754   2.096  0.00  0.00    -0.483 OA
BRANCH  14  15
ATOM     15  C   UNL     1       4.251  -2.988   3.273  0.00  0.00    +0.324 C 
BRANCH  15  16
ATOM     16  C   UNL     1       5.543  -2.724   4.003  0.00  0.00    +0.248 C 
ATOM     17  O   UNL     1       6.588  -3.151   3.559  0.00  0.00    -0.272 OA
ATOM     18  N   UNL     1       5.536  -2.015   5.149  0.00  0.00    -0.327 N 
ATOM     19  H   UNL     1       4.700  -1.675   5.504  0.00  0.00    +0.145 HD
ATOM     20  H   UNL     1       6.368  -1.846   5.619  0.00  0.00    +0.145 HD
ENDBRANCH  15  16
ENDBRANCH  14  15
ENDBRANCH  11  14
ENDBRANCH   2   8
BRANCH   1  21
ATOM     21  C   UNL     1       0.015  -2.809  -2.467  0.00  0.00    +0.195 C 
ATOM     22  O   UNL     1       0.956  -2.167  -2.895  0.00  0.00    -0.287 OA
BRANCH  21  26
ATOM     23  C   UNL     1      -2.476   1.429  -1.627  0.00  0.00    +0.047 C 
ATOM     24  C   UNL     1      -2.415  -0.077  -1.623  0.00  0.00    -0.008 A 
ATOM     25  C   UNL     1      -1.268  -0.719  -2.033  0.00  0.00    +0.018 A 
ATOM     26  C   UNL     1      -1.212  -2.116  -2.028  0.00  0.00    +0.023 A 
ATOM     27  C   UNL     1      -2.322  -2.855  -1.607  0.00  0.00    +0.015 A 
ATOM     28  C   UNL     1      -3.465  -2.205  -1.200  0.00  0.00    +0.046 A 
ATOM     29  C   UNL     1      -3.514  -0.815  -1.201  0.00  0.00    +0.123 A 
BRANCH  29  30
ATOM     30  O   UNL     1      -4.641  -0.178  -0.793  0.00  0.00    -0.491 OA
BRANCH  30  31
ATOM     31  C   UNL     1      -5.733  -0.998  -0.372  0.00  0.00    +0.232 C 
BRANCH  31  32
ATOM     32  C   UNL     1      -6.906  -0.108   0.048  0.00  0.00    +0.020 C 
ATOM     33  C   UNL     1      -7.423   0.662  -1.168  0.00  0.00    +0.010 C 
ATOM     34  C   UNL     1      -8.028  -0.979   0.616  0.00  0.00    +0.010 C 
ENDBRANCH  31  32
ENDBRANCH  30  31
ENDBRANCH  29  30
ENDBRANCH  21  26
ENDBRANCH   1  21
BRANCH   3  35
ATOM     35  C   UNL     1       0.238  -7.678  -0.689  0.00  0.00    +0.090 C 
BRANCH  35  36
ATOM     36  C   UNL     1      -1.188  -8.174  -0.443  0.00  0.00    -0.060 C 
BRANCH  36  37
ATOM     37  N   UNL     1      -1.152  -9.353   0.433  0.00  0.00    +0.377 N 
ATOM     38  C   UNL     1      -0.643  -8.964   1.755  0.00  0.00    -0.097 C 
ATOM     39  C   UNL     1      -2.508  -9.901   0.573  0.00  0.00    -0.097 C 
ATOM     40  H   UNL     1      -0.546 -10.052   0.032  0.00  0.00    -0.083 HD
ENDBRANCH  36  37
ENDBRANCH  35  36
ENDBRANCH   3  35
TORSDOF 12
