REMARK  Name = ZINC32379479
REMARK  5 active torsions:
REMARK  status: ('A' for Active; 'I' for Inactive)
REMARK    1  A    between atoms: C_4  and  C_7
REMARK    2  A    between atoms: C_7  and  C_9
REMARK    3  A    between atoms: C_7  and  N_15
REMARK    4  A    between atoms: C_16  and  C_18
REMARK    5  A    between atoms: C_18  and  C_19
REMARK                            x       y       z     vdW  Elec       q    Type
REMARK                         _______ _______ _______ _____ _____    ______ ____
ROOT
ATOM      1  N   UNL     1       3.630  -1.873   0.845  0.00  0.00    -0.308 N 
ATOM      2  C   UNL     1       4.751  -2.385   1.391  0.00  0.00    +0.215 C 
ATOM      3  O   UNL     1       5.828  -1.880   1.151  0.00  0.00    -0.276 OA
ATOM      4  H   UNL     1       2.769  -2.277   1.038  0.00  0.00    +0.149 HD
ENDROOT
BRANCH   1   5
ATOM      5  C   UNL     1       3.711  -0.707  -0.038  0.00  0.00    +0.106 C 
BRANCH   5   9
ATOM      6  C   UNL     1      -0.017   1.378   0.010  0.00  0.00    +0.000 A 
ATOM      7  C   UNL     1       1.171   2.086   0.002  0.00  0.00    +0.000 A 
ATOM      8  C   UNL     1       2.377   1.411  -0.013  0.00  0.00    +0.005 A 
ATOM      9  C   UNL     1       2.396   0.029  -0.020  0.00  0.00    -0.027 A 
ATOM     10  C   UNL     1       1.208  -0.679  -0.012  0.00  0.00    +0.005 A 
ATOM     11  C   UNL     1       0.002  -0.004   0.002  0.00  0.00    +0.000 A 
ENDBRANCH   5   9
BRANCH   5  12
ATOM     12  C   UNL     1       4.019  -1.168  -1.464  0.00  0.00    +0.014 C 
ATOM     13  C   UNL     1       4.104   0.050  -2.386  0.00  0.00    +0.006 C 
ATOM     14  C   UNL     1       4.412  -0.410  -3.812  0.00  0.00    +0.000 C 
ATOM     15  C   UNL     1       5.747  -1.157  -3.830  0.00  0.00    +0.000 C 
ATOM     16  C   UNL     1       5.662  -2.375  -2.908  0.00  0.00    +0.000 C 
ATOM     17  C   UNL     1       5.354  -1.915  -1.482  0.00  0.00    +0.006 C 
ENDBRANCH   5  12
ENDBRANCH   1   5
BRANCH   2  18
ATOM     18  C   UNL     1       4.668  -3.585   2.299  0.00  0.00    +0.119 C 
BRANCH  18  19
ATOM     19  C   UNL     1       6.072  -3.960   2.778  0.00  0.00    +0.146 C 
ATOM     20  C   UNL     1       6.007  -5.224   3.595  0.00  0.00    +0.231 C 
ATOM     21  O   UNL     1       6.282  -6.275   3.055  0.00  0.00    -0.274 OA
ATOM     22  N   UNL     1       5.663  -5.245   4.878  0.00  0.00    -0.284 N 
ATOM     23  C   UNL     1       5.428  -4.141   5.693  0.00  0.00    +0.047 A 
ATOM     24  C   UNL     1       4.751  -4.317   6.896  0.00  0.00    +0.024 A 
ATOM     25  C   UNL     1       4.498  -3.236   7.717  0.00  0.00    +0.002 A 
ATOM     26  C   UNL     1       4.914  -1.968   7.355  0.00  0.00    +0.001 A 
ATOM     27  C   UNL     1       5.591  -1.779   6.164  0.00  0.00    +0.016 A 
ATOM     28  C   UNL     1       5.851  -2.860   5.339  0.00  0.00    +0.030 A 
ATOM     29  S   UNL     1       6.738  -2.627   3.822  0.00  0.00    -0.110 S 
ATOM     30  H   UNL     1       5.565  -6.118   5.289  0.00  0.00    +0.155 HD
ENDBRANCH  18  19
ENDBRANCH   2  18
TORSDOF 5
