REMARK  Name = ZINC22533980
REMARK  10 active torsions:
REMARK  status: ('A' for Active; 'I' for Inactive)
REMARK    1  A    between atoms: C_1  and  C_2
REMARK    2  A    between atoms: C_2  and  C_4
REMARK    3  A    between atoms: C_2  and  S_14
REMARK    4  A    between atoms: N_6  and  C_7
REMARK    5  A    between atoms: C_7  and  C_8
REMARK    6  A    between atoms: C_7  and  C_9
REMARK    7  A    between atoms: C_7  and  C_11
REMARK    8  A    between atoms: C_11  and  C_12
REMARK    9  A    between atoms: C_11  and  C_13
REMARK   10  A    between atoms: S_14  and  C_15
REMARK                            x       y       z     vdW  Elec       q    Type
REMARK                         _______ _______ _______ _____ _____    ______ ____
ROOT
ATOM      1  C   UNL     1      -2.402   0.043   1.508  0.00  0.00    +0.192 A 
ATOM      2  N   UNL     1      -1.622   0.734   2.331  0.00  0.00    -0.207 NA
ATOM      3  C   UNL     1      -1.978   1.005   3.575  0.00  0.00    +0.129 A 
ATOM      4  C   UNL     1      -3.236   0.544   4.055  0.00  0.00    +0.051 A 
ATOM      5  C   UNL     1      -3.830   0.721   5.382  0.00  0.00    -0.025 A 
ATOM      6  C   UNL     1      -5.048   0.181   5.584  0.00  0.00    -0.004 A 
ATOM      7  S   UNL     1      -5.475  -0.587   4.044  0.00  0.00    -0.073 S 
ATOM      8  C   UNL     1      -4.011  -0.181   3.128  0.00  0.00    +0.115 A 
ATOM      9  N   UNL     1      -3.587  -0.406   1.899  0.00  0.00    -0.214 NA
ATOM     10  C   UNL     1      -5.863   0.221   6.841  0.00  0.00    +0.043 C 
ATOM     11  C   UNL     1      -4.949   0.653   7.997  0.00  0.00    +0.005 C 
ATOM     12  C   UNL     1      -4.149   1.883   7.556  0.00  0.00    +0.005 C 
ATOM     13  C   UNL     1      -3.119   1.480   6.499  0.00  0.00    +0.037 C 
ATOM     14  N   UNL     1      -1.136   1.727   4.402  0.00  0.00    -0.343 N 
ATOM     15  H   UNL     1      -0.403   2.236   4.022  0.00  0.00    +0.144 HD
ATOM     16  H   UNL     1      -1.279   1.725   5.361  0.00  0.00    +0.144 HD
ENDROOT
BRANCH   1  17
ATOM     17  S   UNL     1      -1.857  -0.276  -0.136  0.00  0.00    -0.073 S 
BRANCH  17  19
ATOM     18  C   UNL     1      -0.376   2.022  -0.060  0.00  0.00    +0.029 C 
ATOM     19  C   UNL     1      -0.223   0.508  -0.217  0.00  0.00    +0.137 C 
BRANCH  19  20
ATOM     20  C   UNL     1       0.416   0.203  -1.547  0.00  0.00    +0.227 C 
ATOM     21  O   UNL     1      -0.277  -0.059  -2.507  0.00  0.00    -0.275 OA
ATOM     22  N   UNL     1       1.758   0.221  -1.670  0.00  0.00    -0.296 N 
ATOM     23  H   UNL     1       2.313   0.431  -0.902  0.00  0.00    +0.150 HD
BRANCH  22  24
ATOM     24  C   UNL     1       2.379  -0.076  -2.963  0.00  0.00    +0.121 C 
ATOM     25  C   UNL     1       1.987  -1.487  -3.405  0.00  0.00    +0.048 C 
BRANCH  24  26
ATOM     26  C   UNL     1       3.901   0.012  -2.830  0.00  0.00    +0.020 C 
ATOM     27  C   UNL     1       4.394  -1.083  -1.883  0.00  0.00    +0.010 C 
ATOM     28  C   UNL     1       4.545  -0.175  -4.205  0.00  0.00    +0.010 C 
ENDBRANCH  24  26
BRANCH  24  29
ATOM     29  C   UNL     1       1.917   0.899  -3.965  0.00  0.00    +0.088 C 
ATOM     30  N   UNL     1       1.561   1.651  -4.738  0.00  0.00    -0.194 NA
ENDBRANCH  24  29
ENDBRANCH  22  24
ENDBRANCH  19  20
ENDBRANCH  17  19
ENDBRANCH   1  17
TORSDOF 6
