REMARK  Name = ZINC08839295
REMARK  5 active torsions:
REMARK  status: ('A' for Active; 'I' for Inactive)
REMARK    1  A    between atoms: C_1  and  C_2
REMARK    2  A    between atoms: C_5  and  N_8
REMARK    3  A    between atoms: C_10  and  C_15
REMARK    4  A    between atoms: C_15  and  N_16
REMARK    5  A    between atoms: N_19  and  C_20
REMARK                            x       y       z     vdW  Elec       q    Type
REMARK                         _______ _______ _______ _____ _____    ______ ____
ROOT
ATOM      1  N   UNL     1       7.113   4.821   1.179  0.00  0.00    -0.296 N 
ATOM      2  C   UNL     1       7.725   5.475   2.186  0.00  0.00    +0.300 C 
ATOM      3  O   UNL     1       7.078   5.868   3.137  0.00  0.00    -0.253 OA
ATOM      4  N   UNL     1       9.054   5.692   2.139  0.00  0.00    -0.294 N 
ATOM      5  H   UNL     1       7.630   4.507   0.420  0.00  0.00    +0.150 HD
ATOM      6  H   UNL     1       9.571   5.379   1.380  0.00  0.00    +0.151 HD
ENDROOT
BRANCH   4   7
ATOM      7  C   UNL     1       9.719   6.403   3.234  0.00  0.00    +0.037 C 
ATOM      8  C   UNL     1       9.517   5.632   4.540  0.00  0.00    +0.029 C 
ATOM      9  C   UNL     1      10.211   6.374   5.683  0.00  0.00    -0.008 C 
ATOM     10  C   UNL     1      11.708   6.487   5.384  0.00  0.00    +0.007 C 
ATOM     11  C   UNL     1      11.910   7.258   4.078  0.00  0.00    -0.008 C 
ATOM     12  C   UNL     1      11.216   6.516   2.935  0.00  0.00    +0.029 C 
ATOM     13  C   UNL     1      11.311   8.659   4.215  0.00  0.00    +0.007 C 
ATOM     14  C   UNL     1       9.814   8.546   4.515  0.00  0.00    -0.008 C 
ATOM     15  C   UNL     1       9.612   7.775   5.820  0.00  0.00    +0.007 C 
ATOM     16  C   UNL     1       9.120   7.804   3.371  0.00  0.00    +0.029 C 
ENDBRANCH   4   7
BRANCH   1  17
ATOM     17  C   UNL     1       5.668   4.584   1.230  0.00  0.00    +0.152 C 
BRANCH  17  20
ATOM     18  N   UNL     1       3.584   2.124  -0.020  0.00  0.00    -0.234 N 
ATOM     19  C   UNL     1       3.708   3.589  -0.020  0.00  0.00    +0.163 C 
ATOM     20  C   UNL     1       5.231   3.829  -0.026  0.00  0.00    +0.213 C 
ATOM     21  O   UNL     1       5.798   2.487  -0.039  0.00  0.00    -0.444 OA
ATOM     22  C   UNL     1       4.811   1.584  -0.035  0.00  0.00    +0.408 C 
ATOM     23  O   UNL     1       5.008   0.385  -0.044  0.00  0.00    -0.226 OA
BRANCH  18  28
ATOM     24  C   UNL     1      -1.294  -0.774   0.010  0.00  0.00    +0.044 C 
ATOM     25  C   UNL     1       0.002  -0.004   0.002  0.00  0.00    -0.050 A 
ATOM     26  C   UNL     1      -0.017   1.379   0.010  0.00  0.00    +0.005 A 
ATOM     27  C   UNL     1       1.169   2.087   0.002  0.00  0.00    +0.024 A 
ATOM     28  C   UNL     1       2.381   1.409  -0.013  0.00  0.00    +0.040 A 
ATOM     29  C   UNL     1       2.396   0.020  -0.020  0.00  0.00    +0.024 A 
ATOM     30  C   UNL     1       1.207  -0.682  -0.013  0.00  0.00    +0.005 A 
ENDBRANCH  18  28
ENDBRANCH  17  20
ENDBRANCH   1  17
TORSDOF 4
