REMARK  Name = ZINC18059202
REMARK  8 active torsions:
REMARK  status: ('A' for Active; 'I' for Inactive)
REMARK    1  A    between atoms: C_1  and  C_2
REMARK    2  A    between atoms: C_5  and  C_8
REMARK    3  A    between atoms: C_8  and  O_9
REMARK    4  A    between atoms: O_9  and  C_10
REMARK    5  A    between atoms: C_13  and  C_16
REMARK    6  A    between atoms: C_16  and  N_17
REMARK    7  A    between atoms: N_17  and  C_18
REMARK    8  A    between atoms: C_27  and  O_30
REMARK                            x       y       z     vdW  Elec       q    Type
REMARK                         _______ _______ _______ _____ _____    ______ ____
ROOT
ATOM      1  C   UNL     1       2.223 -10.308  -0.067  0.00  0.00    -0.046 C 
ENDROOT
BRANCH   1   5
ATOM      2  C   UNL     1       1.608  -6.079  -0.040  0.00  0.00    +0.121 A 
ATOM      3  C   UNL     1       0.520  -6.939  -0.044  0.00  0.00    +0.046 A 
ATOM      4  C   UNL     1       0.721  -8.306  -0.053  0.00  0.00    +0.005 A 
ATOM      5  C   UNL     1       2.006  -8.817  -0.058  0.00  0.00    -0.064 A 
ATOM      6  C   UNL     1       3.092  -7.961  -0.053  0.00  0.00    +0.005 A 
ATOM      7  C   UNL     1       2.896  -6.594  -0.050  0.00  0.00    +0.046 A 
BRANCH   2   8
ATOM      8  O   UNL     1       1.413  -4.734  -0.032  0.00  0.00    -0.487 OA
BRANCH   8   9
ATOM      9  C   UNL     1       0.059  -4.275  -0.021  0.00  0.00    +0.264 C 
BRANCH   9  14
ATOM     10  C   UNL     1      -0.018   1.503   0.010  0.00  0.00    +0.044 C 
ATOM     11  C   UNL     1       0.002  -0.004   0.002  0.00  0.00    -0.050 A 
ATOM     12  C   UNL     1       0.006  -0.689  -1.199  0.00  0.00    +0.004 A 
ATOM     13  C   UNL     1       0.025  -2.071  -1.206  0.00  0.00    +0.007 A 
ATOM     14  C   UNL     1       0.040  -2.768  -0.013  0.00  0.00    -0.010 A 
ATOM     15  C   UNL     1       0.037  -2.084   1.188  0.00  0.00    +0.007 A 
ATOM     16  C   UNL     1       0.023  -0.702   1.195  0.00  0.00    +0.004 A 
ENDBRANCH   9  14
ENDBRANCH   8   9
ENDBRANCH   2   8
ENDBRANCH   1   5
BRANCH   1  17
ATOM     17  N   UNL     1       2.292 -10.784  -1.455  0.00  0.00    +0.386 N 
ATOM     18  H   UNL     1       1.428 -10.567  -1.928  0.00  0.00    -0.085 HD
ATOM     19  H   UNL     1       3.058 -10.330  -1.928  0.00  0.00    -0.085 HD
BRANCH  17  20
ATOM     20  C   UNL     1       2.503 -12.238  -1.464  0.00  0.00    -0.065 C 
ATOM     21  C   UNL     1       3.813 -12.567  -0.746  0.00  0.00    -0.009 C 
ATOM     22  C   UNL     1       4.033 -14.081  -0.755  0.00  0.00    -0.009 C 
ATOM     23  C   UNL     1       2.871 -14.770  -0.037  0.00  0.00    +0.007 C 
ATOM     24  C   UNL     1       1.561 -14.441  -0.755  0.00  0.00    -0.009 C 
ATOM     25  C   UNL     1       1.341 -12.927  -0.746  0.00  0.00    -0.009 C 
ATOM     26  C   UNL     1       1.633 -14.936  -2.201  0.00  0.00    +0.038 C 
ATOM     27  C   UNL     1       2.795 -14.248  -2.919  0.00  0.00    +0.065 C 
ATOM     28  C   UNL     1       4.106 -14.577  -2.201  0.00  0.00    +0.038 C 
ATOM     29  C   UNL     1       2.575 -12.734  -2.909  0.00  0.00    +0.022 C 
BRANCH  27  30
ATOM     30  O   UNL     1       2.863 -14.711  -4.269  0.00  0.00    -0.389 OA
ATOM     31  H   UNL     1       3.001 -15.664  -4.351  0.00  0.00    +0.210 HD
ENDBRANCH  27  30
ENDBRANCH  17  20
ENDBRANCH   1  17
TORSDOF 7
