REMARK  Name = ZINC14155945
REMARK  15 active torsions:
REMARK  status: ('A' for Active; 'I' for Inactive)
REMARK    1  A    between atoms: C_1  and  C_2
REMARK    2  A    between atoms: C_4  and  C_32
REMARK    3  A    between atoms: N_10  and  C_11
REMARK    4  A    between atoms: C_11  and  N_13
REMARK    5  A    between atoms: N_13  and  C_14
REMARK    6  A    between atoms: C_16  and  O_23
REMARK    7  A    between atoms: C_19  and  O_20
REMARK    8  A    between atoms: O_20  and  C_21
REMARK    9  A    between atoms: O_23  and  C_24
REMARK   10  A    between atoms: N_25  and  C_26
REMARK   11  A    between atoms: C_26  and  C_27
REMARK   12  A    between atoms: C_27  and  O_28
REMARK   13  A    between atoms: C_27  and  O_30
REMARK   14  A    between atoms: O_28  and  C_29
REMARK   15  A    between atoms: O_30  and  C_31
REMARK                            x       y       z     vdW  Elec       q    Type
REMARK                         _______ _______ _______ _____ _____    ______ ____
ROOT
ATOM      1  C   UNL     1      -1.411  -4.804   6.640  0.00  0.00    +0.066 C 
ATOM      2  C   UNL     1      -1.989  -4.146   5.413  0.00  0.00    +0.044 A 
ATOM      3  C   UNL     1      -3.075  -4.708   4.762  0.00  0.00    +0.046 A 
ATOM      4  C   UNL     1      -3.576  -4.071   3.637  0.00  0.00    +0.044 A 
ATOM      5  N   UNL     1      -3.005  -2.953   3.222  0.00  0.00    -0.217 NA
ATOM      6  C   UNL     1      -1.967  -2.442   3.868  0.00  0.00    +0.231 A 
ATOM      7  N   UNL     1      -1.468  -3.023   4.948  0.00  0.00    -0.217 NA
ATOM      8  N   UNL     1      -1.393  -1.266   3.404  0.00  0.00    -0.297 N 
ATOM      9  C   UNL     1      -0.256  -0.781   3.993  0.00  0.00    +0.196 C 
ATOM     10  N   UNL     1       0.347  -1.478   4.940  0.00  0.00    -0.159 NA
ATOM     11  N   UNL     1       0.254   0.423   3.602  0.00  0.00    -0.353 N 
ATOM     12  C   UNL     1      -4.756  -4.646   2.897  0.00  0.00    +0.066 C 
ATOM     13  H   UNL     1      -1.796  -0.789   2.662  0.00  0.00    +0.171 HD
ATOM     14  H   UNL     1       1.099   0.733   3.965  0.00  0.00    +0.162 HD
ENDROOT
BRANCH  10  15
ATOM     15  C   UNL     1       1.449  -0.994   5.531  0.00  0.00    +0.162 C 
ATOM     16  S   UNL     1       1.359   0.435   6.469  0.00  0.00    -0.016 S 
BRANCH  15  17
ATOM     17  N   UNL     1       2.627  -1.633   5.386  0.00  0.00    -0.292 N 
ATOM     18  H   UNL     1       2.692  -2.404   4.801  0.00  0.00    +0.154 HD
BRANCH  17  19
ATOM     19  C   UNL     1       3.757  -1.183   6.080  0.00  0.00    +0.078 A 
ATOM     20  C   UNL     1       3.685  -0.943   7.445  0.00  0.00    +0.074 A 
ATOM     21  C   UNL     1       4.805  -0.498   8.129  0.00  0.00    +0.140 A 
ATOM     22  C   UNL     1       5.998  -0.292   7.451  0.00  0.00    +0.086 A 
ATOM     23  C   UNL     1       6.072  -0.530   6.090  0.00  0.00    +0.071 A 
ATOM     24  C   UNL     1       4.957  -0.981   5.403  0.00  0.00    +0.143 A 
ATOM     25 CL   UNL     1       7.399   0.266   8.311  0.00  0.00    -0.080 Cl
BRANCH  24  26
ATOM     26  O   UNL     1       5.033  -1.221   4.066  0.00  0.00    -0.493 OA
ATOM     27  C   UNL     1       6.295  -0.993   3.436  0.00  0.00    +0.277 C 
ENDBRANCH  24  26
BRANCH  21  28
ATOM     28  O   UNL     1       4.735  -0.263   9.467  0.00  0.00    -0.494 OA
ATOM     29  C   UNL     1       3.475  -0.496  10.101  0.00  0.00    +0.277 C 
ENDBRANCH  21  28
ENDBRANCH  17  19
ENDBRANCH  15  17
ENDBRANCH  10  15
BRANCH  11  30
ATOM     30  C   UNL     1      -0.474   1.249   2.636  0.00  0.00    +0.176 C 
BRANCH  30  31
ATOM     31  C   UNL     1       0.357   2.487   2.294  0.00  0.00    +0.268 C 
BRANCH  31  32
ATOM     32  O   UNL     1       0.675   3.193   3.495  0.00  0.00    -0.353 OA
ATOM     33  C   UNL     1       1.180   4.512   3.278  0.00  0.00    +0.197 C 
ENDBRANCH  31  32
BRANCH  31  34
ATOM     34  O   UNL     1       1.564   2.086   1.643  0.00  0.00    -0.353 OA
ATOM     35  C   UNL     1       2.153   3.105   0.832  0.00  0.00    +0.197 C 
ENDBRANCH  31  34
ENDBRANCH  30  31
ENDBRANCH  11  30
TORSDOF 9
