REMARK  Name = ZINC39940662
REMARK  7 active torsions:
REMARK  status: ('A' for Active; 'I' for Inactive)
REMARK    1  A    between atoms: C_1  and  C_2
REMARK    2  A    between atoms: C_14  and  C_16
REMARK    3  A    between atoms: C_16  and  N_17
REMARK    4  A    between atoms: N_20  and  C_23
REMARK    5  A    between atoms: C_23  and  C_24
REMARK    6  A    between atoms: C_29  and  C_36
REMARK    7  A    between atoms: C_30  and  C_35
REMARK                            x       y       z     vdW  Elec       q    Type
REMARK                         _______ _______ _______ _____ _____    ______ ____
ROOT
ATOM      1  N   UNL     1       4.746  -4.088  -0.093  0.00  0.00    -0.292 NA
ATOM      2  C   UNL     1       5.482  -2.817  -0.123  0.00  0.00    +0.100 C 
ATOM      3  C   UNL     1       6.899  -3.062  -0.649  0.00  0.00    +0.100 C 
ATOM      4  N   UNL     1       7.576  -4.040   0.214  0.00  0.00    -0.293 NA
ATOM      5  C   UNL     1       6.840  -5.312   0.244  0.00  0.00    +0.100 C 
ATOM      6  C   UNL     1       5.424  -5.066   0.770  0.00  0.00    +0.100 C 
ENDROOT
BRANCH   1   7
ATOM      7  C   UNL     1       3.356  -3.882   0.336  0.00  0.00    +0.181 C 
BRANCH   7  20
ATOM      8  C   UNL     1      -0.019   1.526   0.010  0.00  0.00    +0.019 C 
ATOM      9  C   UNL     1       0.002  -0.004   0.002  0.00  0.00    +0.050 C 
ATOM     10  C   UNL     1       0.709  -0.492  -1.253  0.00  0.00    +0.033 C 
ATOM     11  C   UNL     1       0.596  -1.969  -1.525  0.00  0.00    +0.115 C 
ATOM     12  N   UNL     1       1.327  -2.758  -0.522  0.00  0.00    -0.269 N 
ATOM     13  C   UNL     1       0.641  -3.176   0.626  0.00  0.00    +0.050 A 
ATOM     14  C   UNL     1       0.290  -4.514   0.771  0.00  0.00    +0.024 A 
ATOM     15  C   UNL     1      -0.428  -4.918   1.881  0.00  0.00    +0.002 A 
ATOM     16  C   UNL     1      -0.805  -4.005   2.849  0.00  0.00    +0.001 A 
ATOM     17  C   UNL     1      -0.445  -2.673   2.722  0.00  0.00    +0.016 A 
ATOM     18  C   UNL     1       0.292  -2.277   1.624  0.00  0.00    +0.030 A 
ATOM     19  S   UNL     1       0.875  -0.603   1.479  0.00  0.00    -0.120 S 
ATOM     20  C   UNL     1       2.625  -3.072  -0.704  0.00  0.00    +0.234 C 
ATOM     21  O   UNL     1       3.205  -2.703  -1.703  0.00  0.00    -0.274 OA
ENDBRANCH   7  20
ENDBRANCH   1   7
BRANCH   4  22
ATOM     22  C   UNL     1       8.966  -4.246  -0.215  0.00  0.00    +0.158 C 
BRANCH  22  23
ATOM     23  C   UNL     1       9.697  -5.056   0.825  0.00  0.00    +0.138 C 
ATOM     24  N   UNL     1       9.037  -5.442   1.890  0.00  0.00    -0.160 NA
ATOM     25  C   UNL     1       9.596  -6.163   2.867  0.00  0.00    +0.271 C 
ATOM     26  O   UNL     1       8.952  -6.505   3.844  0.00  0.00    -0.268 OA
ATOM     27  C   UNL     1      11.039  -6.537   2.723  0.00  0.00    +0.071 C 
ATOM     28  C   UNL     1      11.803  -7.248   3.566  0.00  0.00    -0.045 C 
ATOM     29  C   UNL     1      13.244  -7.487   3.178  0.00  0.00    +0.076 C 
ATOM     30  S   UNL     1      13.345  -6.617   1.562  0.00  0.00    -0.098 S 
ATOM     31  C   UNL     1      11.668  -6.041   1.479  0.00  0.00    +0.111 C 
ATOM     32  N   UNL     1      10.972  -5.345   0.612  0.00  0.00    -0.226 NA
ATOM     33  C   UNL     1      14.197  -6.860   4.199  0.00  0.00    +0.024 C 
ATOM     34  C   UNL     1      11.242  -7.790   4.855  0.00  0.00    +0.041 C 
ENDBRANCH  22  23
ENDBRANCH   4  22
TORSDOF 4
