REMARK  Name = ZINC37401930
REMARK  12 active torsions:
REMARK  status: ('A' for Active; 'I' for Inactive)
REMARK    1  A    between atoms: C_1  and  C_2
REMARK    2  A    between atoms: C_2  and  N_3
REMARK    3  A    between atoms: N_3  and  C_4
REMARK    4  A    between atoms: N_3  and  C_6
REMARK    5  A    between atoms: C_4  and  C_5
REMARK    6  A    between atoms: C_9  and  C_23
REMARK    7  A    between atoms: C_10  and  O_12
REMARK    8  A    between atoms: O_12  and  S_13
REMARK    9  A    between atoms: S_13  and  C_16
REMARK   10  A    between atoms: C_23  and  N_24
REMARK   11  A    between atoms: N_24  and  C_25
REMARK   12  A    between atoms: C_25  and  C_26
REMARK                            x       y       z     vdW  Elec       q    Type
REMARK                         _______ _______ _______ _____ _____    ______ ____
ROOT
ATOM      1  C   UNL     1      -0.038  -0.713  -2.373  0.00  0.00    +0.033 A 
ATOM      2  C   UNL     1      -1.411  -0.494  -2.396  0.00  0.00    +0.023 A 
ATOM      3  C   UNL     1      -2.129  -0.728  -3.552  0.00  0.00    +0.007 A 
ATOM      4  C   UNL     1      -1.485  -1.179  -4.689  0.00  0.00    -0.020 A 
ATOM      5  C   UNL     1      -0.115  -1.398  -4.672  0.00  0.00    +0.160 A 
ATOM      6  C   UNL     1       0.610  -1.160  -3.515  0.00  0.00    +0.072 A 
ENDROOT
BRANCH   1   7
ATOM      7  N   UNL     1       0.688  -0.476  -1.203  0.00  0.00    -0.330 N 
BRANCH   7   9
ATOM      8  C   UNL     1      -0.019   1.526   0.010  0.00  0.00    +0.024 C 
ATOM      9  C   UNL     1       0.002  -0.004   0.002  0.00  0.00    +0.102 C 
ENDBRANCH   7   9
BRANCH   7  10
ATOM     10  C   UNL     1       2.135  -0.701  -1.182  0.00  0.00    +0.102 C 
ATOM     11  C   UNL     1       2.421  -2.145  -0.763  0.00  0.00    +0.024 C 
ENDBRANCH   7  10
ENDBRANCH   1   7
BRANCH   5  12
ATOM     12  O   UNL     1       0.516  -1.841  -5.791  0.00  0.00    -0.342 OA
BRANCH  12  13
ATOM     13  S   UNL     1       1.019  -0.729  -6.700  0.00  0.00    +0.151 S 
ATOM     14  O   UNL     1       1.457  -1.351  -7.900  0.00  0.00    -0.131 OA
ATOM     15  O   UNL     1       0.025   0.287  -6.687  0.00  0.00    -0.131 OA
BRANCH  13  16
ATOM     16  C   UNL     1       2.452  -0.041  -5.938  0.00  0.00    +0.128 A 
ATOM     17  C   UNL     1       2.324   1.012  -5.052  0.00  0.00    +0.033 A 
ATOM     18  C   UNL     1       3.447   1.552  -4.454  0.00  0.00    +0.040 A 
ATOM     19  C   UNL     1       4.699   1.038  -4.742  0.00  0.00    +0.124 A 
ATOM     20  C   UNL     1       4.826  -0.018  -5.630  0.00  0.00    +0.040 A 
ATOM     21  C   UNL     1       3.701  -0.559  -6.223  0.00  0.00    +0.033 A 
ATOM     22  F   UNL     1       5.798   1.565  -4.158  0.00  0.00    -0.205 F 
ENDBRANCH  13  16
ENDBRANCH  12  13
ENDBRANCH   5  12
BRANCH   4  23
ATOM     23  C   UNL     1      -2.272  -1.433  -5.949  0.00  0.00    -0.043 C 
BRANCH  23  24
ATOM     24  N   UNL     1      -2.537  -2.872  -6.079  0.00  0.00    +0.384 N 
ATOM     25  H   UNL     1      -1.662  -3.373  -6.122  0.00  0.00    -0.085 HD
ATOM     26  H   UNL     1      -3.067  -3.190  -5.281  0.00  0.00    -0.085 HD
BRANCH  24  27
ATOM     27  C   UNL     1      -3.305  -3.120  -7.306  0.00  0.00    -0.046 C 
BRANCH  27  28
ATOM     28  C   UNL     1      -3.576  -4.596  -7.440  0.00  0.00    -0.064 A 
ATOM     29  C   UNL     1      -2.677  -5.406  -8.107  0.00  0.00    +0.004 A 
ATOM     30  C   UNL     1      -2.925  -6.760  -8.230  0.00  0.00    +0.038 A 
ATOM     31  C   UNL     1      -4.075  -7.305  -7.684  0.00  0.00    +0.123 A 
ATOM     32  C   UNL     1      -4.975  -6.493  -7.015  0.00  0.00    +0.038 A 
ATOM     33  C   UNL     1      -4.722  -5.140  -6.889  0.00  0.00    +0.004 A 
ATOM     34  F   UNL     1      -4.318  -8.629  -7.803  0.00  0.00    -0.205 F 
ENDBRANCH  27  28
ENDBRANCH  24  27
ENDBRANCH  23  24
ENDBRANCH   4  23
TORSDOF 10
