REMARK  Name = ZINC36265989
REMARK  3 active torsions:
REMARK  status: ('A' for Active; 'I' for Inactive)
REMARK    1  A    between atoms: C_4  and  S_8
REMARK    2  A    between atoms: S_8  and  N_11
REMARK    3  A    between atoms: N_11  and  C_12
REMARK                            x       y       z     vdW  Elec       q    Type
REMARK                         _______ _______ _______ _____ _____    ______ ____
ROOT
ATOM      1  N   UNL     1       4.610  -0.591  -1.533  0.00  0.00    -0.187 NA
ATOM      2  H   UNL     1       4.618  -1.312  -2.183  0.00  0.00    +0.148 HD
ENDROOT
BRANCH   1   3
ATOM      3  C   UNL     1       5.119   0.732  -1.902  0.00  0.00    +0.074 C 
ATOM      4  C   UNL     1       6.641   0.760  -1.737  0.00  0.00    +0.001 C 
ATOM      5  C   UNL     1       7.175   2.130  -2.159  0.00  0.00    -0.080 C 
ATOM      6  N   UNL     1       6.867   2.365  -3.576  0.00  0.00    +0.383 N 
ATOM      7  C   UNL     1       5.415   2.349  -3.775  0.00  0.00    -0.067 C 
ATOM      8  C   UNL     1       4.767   1.028  -3.364  0.00  0.00    +0.008 C 
ATOM      9  C   UNL     1       4.704   3.580  -3.197  0.00  0.00    -0.012 C 
ATOM     10  C   UNL     1       4.931   4.251  -4.562  0.00  0.00    -0.003 C 
ATOM     11  C   UNL     1       4.981   2.836  -5.163  0.00  0.00    -0.012 C 
ATOM     12  H   UNL     1       7.234   3.263  -3.855  0.00  0.00    -0.085 HD
ATOM     13  H   UNL     1       7.291   1.641  -4.136  0.00  0.00    -0.085 HD
ENDBRANCH   1   3
BRANCH   1  14
ATOM     14  S   UNL     1       4.022  -0.857  -0.008  0.00  0.00    +0.060 S 
ATOM     15  O   UNL     1       4.997  -0.355   0.896  0.00  0.00    -0.153 OA
ATOM     16  O   UNL     1       3.575  -2.206   0.025  0.00  0.00    -0.153 OA
BRANCH  14  20
ATOM     17  C   UNL     1       0.344   1.737   0.481  0.00  0.00    +0.016 A 
ATOM     18  C   UNL     1       0.353   0.722  -0.457  0.00  0.00    +0.018 A 
ATOM     19  C   UNL     1       1.477  -0.070  -0.607  0.00  0.00    +0.044 A 
ATOM     20  C   UNL     1       2.591   0.153   0.182  0.00  0.00    +0.120 A 
ATOM     21  C   UNL     1       2.582   1.168   1.119  0.00  0.00    +0.045 A 
ATOM     22  C   UNL     1       1.458   1.960   1.270  0.00  0.00    +0.020 A 
ATOM     23 BR   UNL     1       1.444   3.349   2.553  0.00  0.00    -0.050 Br
ATOM     24 BR   UNL     1       1.490  -1.460  -1.890  0.00  0.00    -0.048 Br
ENDBRANCH  14  20
ENDBRANCH   1  14
TORSDOF 3
