REMARK  Name = ZINC19793130
REMARK  10 active torsions:
REMARK  status: ('A' for Active; 'I' for Inactive)
REMARK    1  A    between atoms: C_1  and  C_2
REMARK    2  A    between atoms: C_2  and  N_3
REMARK    3  A    between atoms: N_6  and  C_9
REMARK    4  A    between atoms: C_9  and  C_10
REMARK    5  A    between atoms: C_11  and  O_34
REMARK    6  A    between atoms: C_17  and  C_30
REMARK    7  A    between atoms: C_18  and  O_21
REMARK    8  A    between atoms: O_21  and  C_22
REMARK    9  A    between atoms: C_24  and  C_29
REMARK   10  A    between atoms: C_27  and  C_28
REMARK                            x       y       z     vdW  Elec       q    Type
REMARK                         _______ _______ _______ _____ _____    ______ ____
ROOT
ATOM      1  C   UNL     1      -0.018   1.503   0.010  0.00  0.00    +0.051 A 
ATOM      2  C   UNL     1       1.170   2.214   0.003  0.00  0.00    +0.125 A 
ATOM      3  C   UNL     1       1.162   3.607   0.010  0.00  0.00    +0.046 A 
ATOM      4  C   UNL     1      -0.020   4.292   0.025  0.00  0.00    +0.019 A 
ATOM      5  C   UNL     1      -1.226   3.589   0.033  0.00  0.00    +0.068 A 
ATOM      6  C   UNL     1      -1.228   2.183   0.020  0.00  0.00    +0.147 A 
ATOM      7  O   UNL     1      -2.399   1.515   0.021  0.00  0.00    -0.447 OA
ATOM      8  C   UNL     1      -3.583   2.142   0.030  0.00  0.00    +0.254 A 
ATOM      9  C   UNL     1      -3.697   3.485   0.038  0.00  0.00    +0.222 A 
ATOM     10  C   UNL     1      -2.522   4.290   0.049  0.00  0.00    +0.235 A 
ATOM     11  O   UNL     1      -2.586   5.507   0.056  0.00  0.00    -0.283 OA
ENDROOT
BRANCH   8  12
ATOM     12  C   UNL     1      -4.840   1.311   0.031  0.00  0.00    +0.454 C 
ATOM     13  F   UNL     1      -5.235   1.061  -1.287  0.00  0.00    -0.163 F 
ATOM     14  F   UNL     1      -4.596   0.097   0.683  0.00  0.00    -0.163 F 
ATOM     15  F   UNL     1      -5.856   2.003   0.699  0.00  0.00    -0.163 F 
ENDBRANCH   8  12
BRANCH   2  16
ATOM     16  O   UNL     1       2.353   1.548  -0.012  0.00  0.00    -0.506 OA
ATOM     17  H   UNL     1       3.299   2.108  -0.018  0.00  0.00    +0.292 HD
ENDBRANCH   2  16
BRANCH   1  18
ATOM     18  C   UNL     1       0.002  -0.004   0.002  0.00  0.00    +0.126 C 
BRANCH  18  22
ATOM     19  N   UNL     1       1.009  -2.059   3.553  0.00  0.00    +0.381 N 
ATOM     20  C   UNL     1      -0.248  -2.419   2.882  0.00  0.00    -0.063 C 
ATOM     21  C   UNL     1      -0.196  -1.954   1.425  0.00  0.00    +0.066 C 
ATOM     22  N   UNL     1       0.022  -0.501   1.384  0.00  0.00    -0.301 NA
ATOM     23  C   UNL     1       1.279  -0.141   2.055  0.00  0.00    +0.066 C 
ATOM     24  C   UNL     1       1.227  -0.606   3.513  0.00  0.00    -0.063 C 
ATOM     25  H   UNL     1       1.835  -2.542   3.009  0.00  0.00    -0.082 HD
BRANCH  19  27
ATOM     26  C   UNL     1       2.433  -2.386   5.518  0.00  0.00    -0.017 C 
ATOM     27  C   UNL     1       1.029  -2.556   4.935  0.00  0.00    -0.082 C 
ENDBRANCH  19  27
ENDBRANCH  18  22
ENDBRANCH   1  18
BRANCH   9  28
ATOM     28  O   UNL     1      -4.927   4.068   0.048  0.00  0.00    -0.448 OA
BRANCH  28  29
ATOM     29  C   UNL     1      -5.497   4.335   1.252  0.00  0.00    +0.132 A 
ATOM     30  C   UNL     1      -4.830   4.009   2.425  0.00  0.00    +0.050 A 
ATOM     31  C   UNL     1      -5.410   4.286   3.647  0.00  0.00    -0.047 A 
ATOM     32  C   UNL     1      -6.658   4.878   3.703  0.00  0.00    +0.004 A 
ATOM     33  C   UNL     1      -7.327   5.199   2.537  0.00  0.00    +0.007 A 
ATOM     34  C   UNL     1      -6.749   4.929   1.311  0.00  0.00    -0.008 A 
ATOM     35  C   UNL     1      -7.479   5.279   0.040  0.00  0.00    +0.047 C 
ATOM     36  C   UNL     1      -4.684   3.937   4.921  0.00  0.00    +0.044 C 
ENDBRANCH  28  29
ENDBRANCH   9  28
TORSDOF 7
