REMARK  Name = ZINC20074935
REMARK  7 active torsions:
REMARK  status: ('A' for Active; 'I' for Inactive)
REMARK    1  A    between atoms: C_4  and  C_7
REMARK    2  A    between atoms: N_9  and  C_10
REMARK    3  A    between atoms: C_10  and  C_21
REMARK    4  A    between atoms: C_11  and  C_12
REMARK    5  A    between atoms: N_23  and  N_24
REMARK    6  A    between atoms: C_25  and  C_26
REMARK    7  A    between atoms: C_31  and  N_32
REMARK                            x       y       z     vdW  Elec       q    Type
REMARK                         _______ _______ _______ _____ _____    ______ ____
ROOT
ATOM      1  C   UNL     1      -0.914  -1.961  -0.339  0.00  0.00    +0.098 C 
ATOM      2  C   UNL     1       0.308  -2.546  -0.330  0.00  0.00    +0.036 C 
ENDROOT
BRANCH   2   3
ATOM      3  C   UNL     1       1.520  -1.717  -0.388  0.00  0.00    -0.019 A 
ATOM      4  C   UNL     1       1.461  -0.424  -0.920  0.00  0.00    +0.012 A 
ATOM      5  C   UNL     1       2.598   0.352  -0.968  0.00  0.00    +0.050 A 
ATOM      6  C   UNL     1       3.807  -0.147  -0.501  0.00  0.00    +0.166 A 
ATOM      7  C   UNL     1       3.874  -1.438   0.025  0.00  0.00    +0.167 A 
ATOM      8  C   UNL     1       2.738  -2.221   0.082  0.00  0.00    +0.057 A 
ATOM      9  O   UNL     1       5.161  -1.684   0.410  0.00  0.00    -0.453 OA
ATOM     10  C   UNL     1       5.791  -0.392   0.493  0.00  0.00    +0.466 C 
ATOM     11  O   UNL     1       5.051   0.411  -0.445  0.00  0.00    -0.453 OA
ENDBRANCH   2   3
BRANCH   1  14
ATOM     12  C   UNL     1      -1.677   0.115  -1.216  0.00  0.00    +0.248 C 
ATOM     13  O   UNL     1      -2.251  -0.484  -2.105  0.00  0.00    -0.270 OA
ATOM     14  N   UNL     1      -1.024  -0.569  -0.256  0.00  0.00    -0.277 N 
ATOM     15  H   UNL     1      -0.576  -0.032   0.593  0.00  0.00    +0.155 HD
BRANCH  12  19
ATOM     16  C   UNL     1      -1.732   4.361  -1.138  0.00  0.00    +0.000 A 
ATOM     17  C   UNL     1      -2.292   3.684  -2.207  0.00  0.00    +0.001 A 
ATOM     18  C   UNL     1      -2.278   2.305  -2.239  0.00  0.00    +0.013 A 
ATOM     19  C   UNL     1      -1.696   1.592  -1.189  0.00  0.00    +0.037 A 
ATOM     20  C   UNL     1      -1.138   2.281  -0.111  0.00  0.00    +0.013 A 
ATOM     21  C   UNL     1      -1.154   3.660  -0.094  0.00  0.00    +0.001 A 
ENDBRANCH  12  19
ENDBRANCH   1  14
BRANCH   1  22
ATOM     22  C   UNL     1      -2.123  -2.788  -0.437  0.00  0.00    +0.277 C 
ATOM     23  O   UNL     1      -3.221  -2.262  -0.446  0.00  0.00    -0.267 OA
ATOM     24  N   UNL     1      -2.018  -4.129  -0.517  0.00  0.00    -0.202 N 
ATOM     25  H   UNL     1      -1.026  -4.604  -0.510  0.00  0.00    +0.178 HD
BRANCH  24  26
ATOM     26  N   UNL     1      -3.172  -4.918  -0.611  0.00  0.00    -0.187 NA
ATOM     27  C   UNL     1      -3.070  -6.210  -0.688  0.00  0.00    +0.140 C 
BRANCH  27  28
ATOM     28  C   UNL     1      -4.285  -7.040  -0.786  0.00  0.00    +0.028 A 
ATOM     29  C   UNL     1      -5.534  -6.438  -0.949  0.00  0.00    +0.062 A 
ATOM     30  C   UNL     1      -6.669  -7.225  -1.044  0.00  0.00    +0.180 A 
ATOM     31  C   UNL     1      -6.565  -8.607  -0.969  0.00  0.00    +0.053 A 
ATOM     32  C   UNL     1      -5.329  -9.205  -0.803  0.00  0.00    +0.037 A 
ATOM     33  C   UNL     1      -4.191  -8.432  -0.711  0.00  0.00    +0.135 A 
ATOM     34  O   UNL     1      -7.887  -6.643  -1.208  0.00  0.00    -0.288 OA
BRANCH  33  35
ATOM     35  N   UNL     1      -2.870  -9.076  -0.532  0.00  0.00    +0.057 N 
ATOM     36  O   UNL     1      -2.771 -10.289  -0.594  0.00  0.00    -0.126 OA
ATOM     37  O   UNL     1      -1.883  -8.394  -0.325  0.00  0.00    -0.126 OA
ENDBRANCH  33  35
ENDBRANCH  27  28
ENDBRANCH  24  26
ENDBRANCH   1  22
TORSDOF 7
