REMARK  Name = ZINC00715913
REMARK  10 active torsions:
REMARK  status: ('A' for Active; 'I' for Inactive)
REMARK    1  A    between atoms: C_1  and  C_2
REMARK    2  A    between atoms: C_2  and  C_36
REMARK    3  A    between atoms: C_6  and  C_25
REMARK    4  A    between atoms: C_8  and  C_23
REMARK    5  A    between atoms: C_9  and  S_11
REMARK    6  A    between atoms: S_11  and  C_12
REMARK    7  A    between atoms: C_12  and  C_13
REMARK    8  A    between atoms: N_15  and  C_16
REMARK    9  A    between atoms: C_28  and  O_31
REMARK   10  A    between atoms: O_31  and  C_32
REMARK                            x       y       z     vdW  Elec       q    Type
REMARK                         _______ _______ _______ _____ _____    ______ ____
ROOT
ATOM      1  C   UNL     1      -0.024   1.477   0.021  0.00  0.00    +0.011 C 
ATOM      2  C   UNL     1       0.007  -0.052   0.008  0.00  0.00    -0.023 C 
ATOM      3  C   UNL     1       0.747  -0.541  -1.240  0.00  0.00    +0.058 C 
ATOM      4  C   UNL     1       2.171  -0.041  -1.211  0.00  0.00    +0.016 C 
ATOM      5  C   UNL     1       2.815   0.157  -0.042  0.00  0.00    +0.024 C 
ATOM      6  C   UNL     1       4.237   0.657  -0.015  0.00  0.00    +0.097 C 
ATOM      7  C   UNL     1       4.902   0.471  -1.347  0.00  0.00    +0.069 C 
ATOM      8  C   UNL     1       4.170   0.259  -2.474  0.00  0.00    +0.080 C 
ATOM      9  N   UNL     1       2.797   0.203  -2.403  0.00  0.00    -0.311 N 
ATOM     10  C   UNL     1       2.179  -0.091   1.187  0.00  0.00    +0.162 C 
ATOM     11  O   UNL     1       2.793   0.080   2.222  0.00  0.00    -0.292 OA
ATOM     12  C   UNL     1       0.752  -0.564   1.245  0.00  0.00    +0.086 C 
ATOM     13  C   UNL     1      -1.424  -0.595   0.007  0.00  0.00    +0.011 C 
ATOM     14  H   UNL     1       2.268   0.339  -3.205  0.00  0.00    +0.152 HD
ENDROOT
BRANCH   6  15
ATOM     15  C   UNL     1       4.240   2.122   0.337  0.00  0.00    -0.034 A 
ATOM     16  C   UNL     1       3.572   3.026  -0.468  0.00  0.00    +0.008 A 
ATOM     17  C   UNL     1       3.574   4.370  -0.147  0.00  0.00    +0.046 A 
ATOM     18  C   UNL     1       4.245   4.812   0.984  0.00  0.00    +0.120 A 
ATOM     19  C   UNL     1       4.914   3.902   1.790  0.00  0.00    +0.046 A 
ATOM     20  C   UNL     1       4.905   2.559   1.468  0.00  0.00    +0.008 A 
BRANCH  18  21
ATOM     21  O   UNL     1       4.248   6.133   1.301  0.00  0.00    -0.495 OA
ATOM     22  C   UNL     1       4.960   6.516   2.479  0.00  0.00    +0.277 C 
ENDBRANCH  18  21
ENDBRANCH   6  15
BRANCH   7  23
ATOM     23  C   UNL     1       6.330   0.518  -1.435  0.00  0.00    +0.098 C 
ATOM     24  N   UNL     1       7.464   0.555  -1.504  0.00  0.00    -0.191 NA
ENDBRANCH   7  23
BRANCH   8  25
ATOM     25  S   UNL     1       4.980   0.055  -4.025  0.00  0.00    -0.100 S 
BRANCH  25  26
ATOM     26  C   UNL     1       3.621  -0.196  -5.200  0.00  0.00    +0.171 C 
BRANCH  26  27
ATOM     27  C   UNL     1       4.184  -0.386  -6.585  0.00  0.00    +0.227 C 
ATOM     28  O   UNL     1       5.384  -0.355  -6.762  0.00  0.00    -0.275 OA
ATOM     29  N   UNL     1       3.354  -0.590  -7.628  0.00  0.00    -0.285 N 
ATOM     30  H   UNL     1       2.400  -0.681  -7.478  0.00  0.00    +0.155 HD
BRANCH  29  31
ATOM     31  C   UNL     1       3.869  -0.669  -8.927  0.00  0.00    +0.034 A 
ATOM     32  C   UNL     1       3.143  -0.161  -9.995  0.00  0.00    +0.026 A 
ATOM     33  C   UNL     1       3.652  -0.240 -11.277  0.00  0.00    +0.040 A 
ATOM     34  C   UNL     1       4.887  -0.827 -11.496  0.00  0.00    +0.124 A 
ATOM     35  C   UNL     1       5.613  -1.335 -10.432  0.00  0.00    +0.040 A 
ATOM     36  C   UNL     1       5.110  -1.252  -9.149  0.00  0.00    +0.026 A 
ATOM     37  F   UNL     1       5.383  -0.905 -12.750  0.00  0.00    -0.205 F 
ENDBRANCH  29  31
ENDBRANCH  26  27
ENDBRANCH  25  26
ENDBRANCH   8  25
TORSDOF 7
