REMARK  Name = ZINC59153664
REMARK  6 active torsions:
REMARK  status: ('A' for Active; 'I' for Inactive)
REMARK    1  A    between atoms: C_1  and  C_2
REMARK    2  A    between atoms: N_9  and  N_10
REMARK    3  A    between atoms: C_11  and  C_13
REMARK    4  A    between atoms: C_13  and  S_14
REMARK    5  A    between atoms: S_14  and  C_15
REMARK    6  A    between atoms: C_15  and  C_16
REMARK                            x       y       z     vdW  Elec       q    Type
REMARK                         _______ _______ _______ _____ _____    ______ ____
ROOT
ATOM      1  N   UNL     1       0.077  -4.009   4.423  0.00  0.00    -0.206 N 
ATOM      2  C   UNL     1       0.080  -3.804   5.755  0.00  0.00    +0.242 C 
ATOM      3  O   UNL     1       0.067  -2.675   6.195  0.00  0.00    -0.273 OA
ATOM      4  H   UNL     1       0.087  -4.913   4.071  0.00  0.00    +0.177 HD
ENDROOT
BRANCH   1  13
ATOM      5  C   UNL     1      -0.018   1.503   0.010  0.00  0.00    +0.044 C 
ATOM      6  C   UNL     1       0.002  -0.004   0.002  0.00  0.00    -0.050 A 
ATOM      7  C   UNL     1       0.006  -0.689  -1.201  0.00  0.00    +0.005 A 
ATOM      8  C   UNL     1       0.024  -2.069  -1.225  0.00  0.00    +0.024 A 
ATOM      9  C   UNL     1       0.039  -2.787  -0.034  0.00  0.00    +0.043 A 
ATOM     10  C   UNL     1       0.035  -2.090   1.181  0.00  0.00    +0.028 A 
ATOM     11  C   UNL     1       0.023  -0.700   1.194  0.00  0.00    +0.015 A 
ATOM     12  C   UNL     1       0.054  -3.115   2.251  0.00  0.00    +0.153 C 
ATOM     13  N   UNL     1       0.058  -2.916   3.547  0.00  0.00    -0.175 NA
ATOM     14  C   UNL     1       0.069  -4.409   1.539  0.00  0.00    +0.269 C 
ATOM     15  O   UNL     1       0.086  -5.511   2.056  0.00  0.00    -0.268 OA
ATOM     16  N   UNL     1       0.059  -4.154   0.220  0.00  0.00    -0.280 N 
ATOM     17  H   UNL     1       0.065  -4.838  -0.469  0.00  0.00    +0.155 HD
ENDBRANCH   1  13
BRANCH   2  18
ATOM     18  C   UNL     1       0.101  -4.980   6.698  0.00  0.00    +0.166 C 
BRANCH  18  19
ATOM     19  S   UNL     1       0.101  -4.382   8.410  0.00  0.00    -0.147 S 
BRANCH  19  20
ATOM     20  C   UNL     1       0.126  -5.899   9.405  0.00  0.00    +0.106 C 
BRANCH  20  21
ATOM     21  C   UNL     1       0.128  -5.540  10.868  0.00  0.00    -0.019 A 
ATOM     22  C   UNL     1       1.325  -5.353  11.533  0.00  0.00    +0.006 A 
ATOM     23  C   UNL     1       1.327  -5.024  12.875  0.00  0.00    +0.000 A 
ATOM     24  C   UNL     1       0.132  -4.881  13.554  0.00  0.00    +0.001 A 
ATOM     25  C   UNL     1      -1.066  -5.067  12.891  0.00  0.00    +0.020 A 
ATOM     26  C   UNL     1      -1.069  -5.391  11.546  0.00  0.00    +0.045 A 
ATOM     27 CL   UNL     1      -2.574  -5.619  10.711  0.00  0.00    -0.083 Cl
ENDBRANCH  20  21
ENDBRANCH  19  20
ENDBRANCH  18  19
ENDBRANCH   2  18
TORSDOF 5
