REMARK  Name = ZINC39536175
REMARK  9 active torsions:
REMARK  status: ('A' for Active; 'I' for Inactive)
REMARK    1  A    between atoms: C_1  and  C_2
REMARK    2  A    between atoms: C_4  and  C_30
REMARK    3  A    between atoms: C_7  and  C_12
REMARK    4  A    between atoms: C_12  and  O_14
REMARK    5  A    between atoms: O_14  and  C_15
REMARK    6  A    between atoms: C_15  and  C_16
REMARK    7  A    between atoms: N_18  and  C_19
REMARK    8  A    between atoms: C_19  and  C_20
REMARK    9  A    between atoms: N_22  and  C_23
REMARK                            x       y       z     vdW  Elec       q    Type
REMARK                         _______ _______ _______ _____ _____    ______ ____
ROOT
ATOM      1  C   UNL     1       0.153  -6.831   4.346  0.00  0.00    +0.328 C 
ENDROOT
BRANCH   1   2
ATOM      2  C   UNL     1       0.153  -6.633   5.840  0.00  0.00    +0.251 C 
ATOM      3  O   UNL     1       0.147  -5.513   6.303  0.00  0.00    -0.272 OA
ATOM      4  N   UNL     1       0.161  -7.702   6.661  0.00  0.00    -0.304 N 
ATOM      5  H   UNL     1       0.167  -8.598   6.291  0.00  0.00    +0.149 HD
BRANCH   4   6
ATOM      6  C   UNL     1       0.162  -7.509   8.114  0.00  0.00    +0.200 C 
BRANCH   6   7
ATOM      7  C   UNL     1       0.171  -8.852   8.798  0.00  0.00    +0.234 C 
ATOM      8  O   UNL     1       0.177  -9.869   8.138  0.00  0.00    -0.274 OA
ATOM      9  N   UNL     1       0.173  -8.922  10.144  0.00  0.00    -0.283 N 
ATOM     10  H   UNL     1       0.234  -8.111  10.672  0.00  0.00    +0.155 HD
BRANCH   9  11
ATOM     11  C   UNL     1       0.086 -10.166  10.780  0.00  0.00    +0.047 A 
ATOM     12  C   UNL     1       0.689 -11.281  10.213  0.00  0.00    +0.024 A 
ATOM     13  C   UNL     1       0.603 -12.507  10.843  0.00  0.00    +0.002 A 
ATOM     14  C   UNL     1      -0.084 -12.625  12.038  0.00  0.00    +0.001 A 
ATOM     15  C   UNL     1      -0.685 -11.517  12.606  0.00  0.00    +0.017 A 
ATOM     16  C   UNL     1      -0.598 -10.286  11.983  0.00  0.00    +0.039 A 
ATOM     17 BR   UNL     1      -1.415  -8.770  12.764  0.00  0.00    -0.048 Br
ENDBRANCH   9  11
ENDBRANCH   6   7
ENDBRANCH   4   6
ENDBRANCH   1   2
BRANCH   1  18
ATOM     18  O   UNL     1       0.144  -5.558   3.697  0.00  0.00    -0.451 OA
BRANCH  18  19
ATOM     19  C   UNL     1       0.143  -5.559   2.348  0.00  0.00    +0.356 C 
ATOM     20  O   UNL     1       0.149  -6.612   1.741  0.00  0.00    -0.243 OA
BRANCH  19  27
ATOM     21  C   UNL     1       0.091   1.500   0.006  0.00  0.00    +0.044 C 
ATOM     22  C   UNL     1       0.101  -0.007  -0.002  0.00  0.00    -0.048 A 
ATOM     23  C   UNL     1       0.105  -0.689  -1.212  0.00  0.00    +0.007 A 
ATOM     24  C   UNL     1       0.115  -2.052  -1.242  0.00  0.00    -0.041 A 
ATOM     25  C   UNL     1       0.121  -2.776  -0.042  0.00  0.00    +0.003 A 
ATOM     26  C   UNL     1       0.132  -4.158   0.260  0.00  0.00    +0.043 A 
ATOM     27  C   UNL     1       0.134  -4.287   1.613  0.00  0.00    +0.125 A 
ATOM     28  N   UNL     1       0.125  -3.030   2.187  0.00  0.00    -0.349 N 
ATOM     29  H   UNL     1       0.125  -2.844   3.139  0.00  0.00    +0.166 HD
ATOM     30  C   UNL     1       0.118  -2.087   1.187  0.00  0.00    +0.048 A 
ATOM     31  C   UNL     1       0.113  -0.694   1.191  0.00  0.00    +0.029 A 
ATOM     32  C   UNL     1       0.118  -2.780  -2.562  0.00  0.00    +0.044 C 
ENDBRANCH  19  27
ENDBRANCH  18  19
ENDBRANCH   1  18
TORSDOF 7
