REMARK  Name = ZINC08887167
REMARK  8 active torsions:
REMARK  status: ('A' for Active; 'I' for Inactive)
REMARK    1  A    between atoms: C_1  and  C_2
REMARK    2  A    between atoms: C_2  and  C_3
REMARK    3  A    between atoms: C_2  and  C_4
REMARK    4  A    between atoms: C_9  and  N_10
REMARK    5  A    between atoms: C_11  and  C_13
REMARK    6  A    between atoms: C_13  and  N_14
REMARK    7  A    between atoms: C_17  and  C_21
REMARK    8  A    between atoms: C_17  and  C_22
REMARK                            x       y       z     vdW  Elec       q    Type
REMARK                         _______ _______ _______ _____ _____    ______ ____
ROOT
ATOM      1  N   UNL     1       3.870   0.942   1.792  0.00  0.00    -0.215 N 
ATOM      2  C   UNL     1       3.504   1.772   0.795  0.00  0.00    +0.251 C 
ATOM      3  O   UNL     1       3.925   2.888   0.579  0.00  0.00    -0.272 OA
ATOM      4  C   UNL     1       2.457   1.018  -0.002  0.00  0.00    +0.135 C 
ATOM      5  N   UNL     1       2.345  -0.269   0.705  0.00  0.00    -0.281 N 
ATOM      6  C   UNL     1       3.208  -0.219   1.736  0.00  0.00    +0.310 C 
ATOM      7  O   UNL     1       3.367  -1.126   2.529  0.00  0.00    -0.252 OA
ATOM      8  C   UNL     1       2.925   0.803  -1.442  0.00  0.00    +0.047 C 
ATOM      9  H   UNL     1       1.763  -1.009   0.472  0.00  0.00    +0.152 HD
ENDROOT
BRANCH   4  10
ATOM     10  C   UNL     1       1.142   1.753   0.023  0.00  0.00    -0.015 A 
ATOM     11  C   UNL     1       1.134   3.147   0.038  0.00  0.00    +0.007 A 
ATOM     12  C   UNL     1      -0.036   3.841   0.060  0.00  0.00    +0.009 A 
ATOM     13  C   UNL     1      -1.257   3.145   0.068  0.00  0.00    -0.018 A 
ATOM     14  C   UNL     1      -2.486   3.827   0.091  0.00  0.00    +0.008 A 
ATOM     15  C   UNL     1      -3.649   3.120   0.098  0.00  0.00    +0.001 A 
ATOM     16  C   UNL     1      -3.641   1.726   0.083  0.00  0.00    +0.001 A 
ATOM     17  C   UNL     1      -2.471   1.032   0.061  0.00  0.00    +0.008 A 
ATOM     18  C   UNL     1      -1.250   1.728   0.046  0.00  0.00    -0.018 A 
ATOM     19  C   UNL     1      -0.021   1.046   0.030  0.00  0.00    +0.014 A 
ENDBRANCH   4  10
BRANCH   1  20
ATOM     20  C   UNL     1       4.872   1.270   2.809  0.00  0.00    +0.214 C 
BRANCH  20  22
ATOM     21  N   UNL     1       7.316   1.043   3.108  0.00  0.00    -0.284 N 
ATOM     22  C   UNL     1       6.234   0.840   2.331  0.00  0.00    +0.235 C 
ATOM     23  O   UNL     1       6.357   0.311   1.247  0.00  0.00    -0.274 OA
ATOM     24  H   UNL     1       7.231   1.536   3.939  0.00  0.00    +0.155 HD
BRANCH  21  30
ATOM     25  C   UNL     1       9.729   1.141   3.174  0.00  0.00    -0.024 A 
ATOM     26  C   UNL     1      10.957   0.640   2.790  0.00  0.00    +0.006 A 
ATOM     27  C   UNL     1      11.027  -0.451   1.944  0.00  0.00    +0.000 A 
ATOM     28  C   UNL     1       9.868  -1.048   1.483  0.00  0.00    +0.002 A 
ATOM     29  C   UNL     1       8.636  -0.555   1.867  0.00  0.00    +0.023 A 
ATOM     30  C   UNL     1       8.563   0.541   2.717  0.00  0.00    +0.037 A 
BRANCH  25  32
ATOM     31  C   UNL     1      10.457   2.052   5.362  0.00  0.00    +0.012 C 
ATOM     32  C   UNL     1       9.654   2.334   4.091  0.00  0.00    +0.015 C 
ATOM     33  C   UNL     1      10.234   3.560   3.382  0.00  0.00    +0.012 C 
ENDBRANCH  25  32
ENDBRANCH  21  30
ENDBRANCH  20  22
ENDBRANCH   1  20
TORSDOF 5
