REMARK  Name = ZINC21237644
REMARK  11 active torsions:
REMARK  status: ('A' for Active; 'I' for Inactive)
REMARK    1  A    between atoms: C_1  and  C_2
REMARK    2  A    between atoms: C_2  and  C_4
REMARK    3  A    between atoms: C_2  and  N_14
REMARK    4  A    between atoms: C_15  and  C_17
REMARK    5  A    between atoms: C_17  and  N_18
REMARK    6  A    between atoms: C_21  and  C_25
REMARK    7  A    between atoms: C_21  and  C_26
REMARK    8  A    between atoms: C_29  and  C_32
REMARK    9  A    between atoms: C_32  and  C_33
REMARK   10  A    between atoms: C_32  and  C_34
REMARK   11  A    between atoms: C_32  and  C_35
REMARK                            x       y       z     vdW  Elec       q    Type
REMARK                         _______ _______ _______ _____ _____    ______ ____
ROOT
ATOM      1  N   UNL     1       5.932  -3.930  -2.932  0.00  0.00    -0.215 N 
ATOM      2  C   UNL     1       6.758  -4.801  -2.319  0.00  0.00    +0.251 C 
ATOM      3  O   UNL     1       6.547  -5.411  -1.292  0.00  0.00    -0.272 OA
ATOM      4  C   UNL     1       8.005  -4.858  -3.178  0.00  0.00    +0.135 C 
ATOM      5  N   UNL     1       7.710  -3.926  -4.280  0.00  0.00    -0.281 N 
ATOM      6  C   UNL     1       6.477  -3.438  -4.051  0.00  0.00    +0.310 C 
ATOM      7  O   UNL     1       5.921  -2.638  -4.778  0.00  0.00    -0.252 OA
ATOM      8  C   UNL     1       8.223  -6.274  -3.716  0.00  0.00    +0.047 C 
ATOM      9  H   UNL     1       8.453  -3.758  -5.073  0.00  0.00    +0.152 HD
ENDROOT
BRANCH   4  10
ATOM     10  C   UNL     1       9.208  -4.394  -2.399  0.00  0.00    -0.015 A 
ATOM     11  C   UNL     1       9.256  -4.576  -1.029  0.00  0.00    +0.006 A 
ATOM     12  C   UNL     1      10.362  -4.154  -0.315  0.00  0.00    +0.004 A 
ATOM     13  C   UNL     1      11.415  -3.542  -0.969  0.00  0.00    -0.042 A 
ATOM     14  C   UNL     1      11.364  -3.356  -2.337  0.00  0.00    +0.004 A 
ATOM     15  C   UNL     1      10.261  -3.782  -3.053  0.00  0.00    +0.006 A 
BRANCH  13  16
ATOM     16  C   UNL     1      12.618  -3.077  -0.189  0.00  0.00    -0.013 C 
ATOM     17  C   UNL     1      12.786  -1.566  -0.363  0.00  0.00    +0.015 C 
ATOM     18  C   UNL     1      12.421  -3.401   1.294  0.00  0.00    +0.015 C 
ATOM     19  C   UNL     1      13.868  -3.791  -0.706  0.00  0.00    +0.015 C 
ENDBRANCH  13  16
ENDBRANCH   4  10
BRANCH   1  20
ATOM     20  C   UNL     1       4.601  -3.571  -2.438  0.00  0.00    +0.213 C 
BRANCH  20  22
ATOM     21  N   UNL     1       3.603  -1.873  -0.942  0.00  0.00    -0.307 N 
ATOM     22  C   UNL     1       4.710  -2.382  -1.518  0.00  0.00    +0.231 C 
ATOM     23  O   UNL     1       5.793  -1.884  -1.297  0.00  0.00    -0.274 OA
ATOM     24  H   UNL     1       2.620  -2.324  -1.143  0.00  0.00    +0.149 HD
BRANCH  21  26
ATOM     25  C   UNL     1       4.048  -1.196   1.366  0.00  0.00    +0.033 C 
ATOM     26  C   UNL     1       3.709  -0.717  -0.047  0.00  0.00    +0.100 C 
BRANCH  26  27
ATOM     27  C   UNL     1       2.397   0.024  -0.026  0.00  0.00    -0.024 A 
ATOM     28  C   UNL     1       1.207  -0.680  -0.016  0.00  0.00    +0.009 A 
ATOM     29  C   UNL     1       0.002  -0.004   0.002  0.00  0.00    +0.050 A 
ATOM     30  C   UNL     1      -0.017   1.383   0.010  0.00  0.00    +0.162 A 
ATOM     31  C   UNL     1       1.179   2.090   0.002  0.00  0.00    +0.162 A 
ATOM     32  C   UNL     1       2.386   1.406  -0.017  0.00  0.00    +0.055 A 
ATOM     33  O   UNL     1       1.184   3.451   0.018  0.00  0.00    -0.485 OA
ATOM     34  C   UNL     1      -0.040   4.103  -0.340  0.00  0.00    +0.270 C 
ATOM     35  C   UNL     1      -1.189   3.413   0.408  0.00  0.00    +0.270 C 
ATOM     36  O   UNL     1      -1.212   2.035   0.019  0.00  0.00    -0.485 OA
ENDBRANCH  26  27
ENDBRANCH  21  26
ENDBRANCH  20  22
ENDBRANCH   1  20
TORSDOF 6
