REMARK  Name = ZINC13065297
REMARK  19 active torsions:
REMARK  status: ('A' for Active; 'I' for Inactive)
REMARK    1  A    between atoms: C_1  and  C_2
REMARK    2  A    between atoms: C_2  and  C_3
REMARK    3  A    between atoms: C_3  and  C_5
REMARK    4  A    between atoms: C_3  and  N_77
REMARK    5  A    between atoms: N_9  and  C_10
REMARK    6  A    between atoms: C_10  and  C_11
REMARK    7  A    between atoms: C_11  and  O_12
REMARK    8  A    between atoms: O_12  and  C_13
REMARK    9  A    between atoms: C_14  and  C_15
REMARK   10  A    between atoms: C_14  and  N_77
REMARK   11  A    between atoms: C_15  and  C_16
REMARK   12  A    between atoms: C_19  and  O_24
REMARK   13  A    between atoms: C_20  and  O_22
REMARK   14  A    between atoms: O_22  and  C_23
REMARK   15  A    between atoms: O_24  and  C_25
REMARK   16  A    between atoms: C_26  and  C_27
REMARK   17  A    between atoms: C_26  and  N_77
REMARK   18  A    between atoms: C_30  and  C_40
REMARK   19  A    between atoms: C_33  and  C_39
REMARK                            x       y       z     vdW  Elec       q    Type
REMARK                         _______ _______ _______ _____ _____    ______ ____
ROOT
ATOM      1  N   UNL     1      -3.958   4.480  -1.236  0.00  0.00    +0.389 N 
ATOM      2  H   UNL     1      -3.887   5.442  -0.886  0.00  0.00    -0.080 HD
ENDROOT
BRANCH   1   3
ATOM      3  C   UNL     1      -5.224   3.887  -0.755  0.00  0.00    +0.003 C 
BRANCH   3   4
ATOM      4  C   UNL     1      -5.463   2.550  -1.408  0.00  0.00    +0.138 A 
ATOM      5  N   UNL     1      -5.434   2.290  -2.692  0.00  0.00    -0.115 NA
ATOM      6  N   UNL     1      -5.685   1.036  -2.850  0.00  0.00    -0.023 NA
ATOM      7  N   UNL     1      -5.882   0.491  -1.701  0.00  0.00    -0.044 NA
ATOM      8  N   UNL     1      -5.753   1.392  -0.786  0.00  0.00    -0.229 N 
BRANCH   8   9
ATOM      9  C   UNL     1      -5.897   1.192   0.658  0.00  0.00    +0.175 C 
BRANCH   9  10
ATOM     10  C   UNL     1      -7.355   1.423   1.062  0.00  0.00    +0.183 C 
BRANCH  10  11
ATOM     11  O   UNL     1      -7.495   1.228   2.471  0.00  0.00    -0.381 OA
ATOM     12  C   UNL     1      -8.826   1.420   2.955  0.00  0.00    +0.194 C 
ENDBRANCH  10  11
ENDBRANCH   9  10
ENDBRANCH   8   9
ENDBRANCH   3   4
BRANCH   3  14
ATOM     13  C   UNL     1      -6.174   6.165  -0.368  0.00  0.00    +0.002 C 
ATOM     14  C   UNL     1      -6.375   4.835  -1.097  0.00  0.00    -0.011 C 
ENDBRANCH   3  14
ENDBRANCH   1   3
BRANCH   1  15
ATOM     15  C   UNL     1      -2.810   3.698  -0.732  0.00  0.00    -0.073 C 
BRANCH  15  16
ATOM     16  C   UNL     1      -2.722   3.874   0.786  0.00  0.00    +0.017 C 
BRANCH  16  17
ATOM     17  C   UNL     1      -1.541   3.100   1.314  0.00  0.00    -0.045 A 
ATOM     18  C   UNL     1      -1.698   1.783   1.702  0.00  0.00    +0.007 A 
ATOM     19  C   UNL     1      -0.620   1.070   2.191  0.00  0.00    +0.049 A 
ATOM     20  C   UNL     1       0.625   1.673   2.284  0.00  0.00    +0.161 A 
ATOM     21  C   UNL     1       0.784   2.997   1.888  0.00  0.00    +0.162 A 
ATOM     22  C   UNL     1      -0.303   3.708   1.403  0.00  0.00    +0.053 A 
BRANCH  21  23
ATOM     23  O   UNL     1       2.003   3.593   1.977  0.00  0.00    -0.491 OA
ATOM     24  C   UNL     1       2.092   4.955   1.552  0.00  0.00    +0.277 C 
ENDBRANCH  21  23
BRANCH  20  25
ATOM     25  O   UNL     1       1.688   0.971   2.760  0.00  0.00    -0.491 OA
ATOM     26  C   UNL     1       1.450  -0.384   3.147  0.00  0.00    +0.277 C 
ENDBRANCH  20  25
ENDBRANCH  16  17
ENDBRANCH  15  16
ENDBRANCH   1  15
BRANCH   1  27
ATOM     27  C   UNL     1      -3.942   4.504  -2.714  0.00  0.00    -0.037 C 
BRANCH  27  28
ATOM     28  C   UNL     1      -2.907   5.500  -3.169  0.00  0.00    +0.001 A 
ATOM     29  C   UNL     1      -1.661   5.078  -3.498  0.00  0.00    +0.017 A 
ATOM     30  C   UNL     1      -0.680   6.070  -3.941  0.00  0.00    +0.002 A 
ATOM     31  C   UNL     1       0.618   5.694  -4.299  0.00  0.00    -0.041 A 
ATOM     32  C   UNL     1       1.511   6.645  -4.704  0.00  0.00    +0.004 A 
ATOM     33  C   UNL     1       1.141   7.982  -4.764  0.00  0.00    +0.005 A 
ATOM     34  C   UNL     1      -0.133   8.375  -4.416  0.00  0.00    -0.026 A 
ATOM     35  C   UNL     1      -1.059   7.425  -4.000  0.00  0.00    +0.052 A 
ATOM     36  N   UNL     1      -2.341   7.790  -3.647  0.00  0.00    -0.322 N 
ATOM     37  H   UNL     1      -2.600   8.724  -3.689  0.00  0.00    +0.169 HD
ATOM     38  C   UNL     1      -3.236   6.871  -3.246  0.00  0.00    +0.251 A 
ATOM     39  O   UNL     1      -4.360   7.230  -2.941  0.00  0.00    -0.268 OA
ATOM     40  C   UNL     1      -0.520   9.830  -4.485  0.00  0.00    +0.046 C 
ATOM     41  C   UNL     1       1.031   4.246  -4.239  0.00  0.00    +0.044 C 
ENDBRANCH  27  28
ENDBRANCH   1  27
TORSDOF 13
