REMARK  Name = ZINC08959646
REMARK  7 active torsions:
REMARK  status: ('A' for Active; 'I' for Inactive)
REMARK    1  A    between atoms: C_1  and  C_2
REMARK    2  A    between atoms: C_2  and  C_3
REMARK    3  A    between atoms: C_3  and  N_4
REMARK    4  A    between atoms: C_7  and  N_18
REMARK    5  A    between atoms: C_13  and  C_16
REMARK    6  A    between atoms: C_13  and  C_17
REMARK    7  A    between atoms: C_19  and  C_21
REMARK                            x       y       z     vdW  Elec       q    Type
REMARK                         _______ _______ _______ _____ _____    ______ ____
ROOT
ATOM      1  N   UNL     1      -0.448   4.991  -0.020  0.00  0.00    -0.268 N 
ATOM      2  C   UNL     1      -0.426   3.593   0.068  0.00  0.00    +0.080 A 
ATOM      3  C   UNL     1       0.769   2.900  -0.021  0.00  0.00    +0.050 A 
ATOM      4  C   UNL     1       0.771   1.514   0.059  0.00  0.00    +0.035 A 
ATOM      5  C   UNL     1      -0.424   0.826   0.227  0.00  0.00    +0.027 A 
ATOM      6  C   UNL     1      -1.618   1.517   0.311  0.00  0.00    +0.049 A 
ATOM      7  C   UNL     1      -1.624   2.900   0.239  0.00  0.00    +0.142 A 
ATOM      8  O   UNL     1      -2.793   3.589   0.332  0.00  0.00    -0.489 OA
ATOM      9  C   UNL     1      -3.055   4.263   1.560  0.00  0.00    +0.244 C 
ATOM     10  C   UNL     1      -1.803   4.989   2.048  0.00  0.00    +0.076 C 
ATOM     11  C   UNL     1      -1.137   5.702   0.900  0.00  0.00    +0.229 C 
ATOM     12  O   UNL     1      -1.220   6.908   0.801  0.00  0.00    -0.275 OA
ATOM     13  C   UNL     1      -2.192   6.008   3.121  0.00  0.00    +0.024 C 
ATOM     14  C   UNL     1      -0.828   3.972   2.645  0.00  0.00    +0.024 C 
ENDROOT
BRANCH   4  15
ATOM     15  N   UNL     1       1.978   0.808  -0.029  0.00  0.00    -0.283 N 
ATOM     16  C   UNL     1       2.160  -0.311   0.700  0.00  0.00    +0.246 C 
ATOM     17  O   UNL     1       1.249  -0.756   1.365  0.00  0.00    -0.273 OA
ATOM     18  H   UNL     1       2.684   1.126  -0.615  0.00  0.00    +0.155 HD
BRANCH  16  19
ATOM     19  C   UNL     1       3.495  -1.009   0.687  0.00  0.00    +0.204 C 
ATOM     20  C   UNL     1       4.566  -0.104   1.326  0.00  0.00    +0.043 C 
ATOM     21  C   UNL     1       5.116  -0.941   2.506  0.00  0.00    +0.031 C 
ATOM     22  C   UNL     1       4.718  -2.382   2.096  0.00  0.00    +0.161 C 
ATOM     23  O   UNL     1       3.425  -2.212   1.472  0.00  0.00    -0.367 OA
ENDBRANCH  16  19
ENDBRANCH   4  15
BRANCH   1  24
ATOM     24  C   UNL     1       0.269   5.676  -1.099  0.00  0.00    +0.113 C 
BRANCH  24  26
ATOM     25  C   UNL     1       0.088   6.559  -3.429  0.00  0.00    +0.005 C 
ATOM     26  C   UNL     1      -0.660   5.844  -2.303  0.00  0.00    +0.016 C 
ENDBRANCH  24  26
ENDBRANCH   1  24
TORSDOF 4
