REMARK  Name = ZINC13945559
REMARK  9 active torsions:
REMARK  status: ('A' for Active; 'I' for Inactive)
REMARK    1  A    between atoms: C_1  and  C_2
REMARK    2  A    between atoms: C_5  and  O_9
REMARK    3  A    between atoms: C_6  and  C_8
REMARK    4  A    between atoms: O_9  and  C_10
REMARK    5  A    between atoms: C_10  and  C_11
REMARK    6  A    between atoms: N_13  and  N_14
REMARK    7  A    between atoms: C_15  and  C_16
REMARK    8  A    between atoms: C_20  and  C_23
REMARK    9  A    between atoms: C_21  and  O_22
REMARK                            x       y       z     vdW  Elec       q    Type
REMARK                         _______ _______ _______ _____ _____    ______ ____
ROOT
ATOM      1  C   UNL     1       1.904   3.857   1.053  0.00  0.00    +0.270 C 
ATOM      2  O   UNL     1       3.011   3.362   1.061  0.00  0.00    -0.270 OA
ATOM      3  N   UNL     1       0.832   3.107   0.732  0.00  0.00    -0.204 N 
ATOM      4  H   UNL     1      -0.053   3.503   0.726  0.00  0.00    +0.177 HD
ENDROOT
BRANCH   3   5
ATOM      5  N   UNL     1       0.997   1.754   0.407  0.00  0.00    -0.188 NA
ATOM      6  C   UNL     1      -0.017   1.059  -0.013  0.00  0.00    +0.142 C 
BRANCH   6   7
ATOM      7  C   UNL     1      -1.277   1.735  -0.369  0.00  0.00    +0.037 A 
ATOM      8  C   UNL     1      -1.264   3.067  -0.790  0.00  0.00    +0.028 A 
ATOM      9  C   UNL     1      -2.448   3.694  -1.122  0.00  0.00    +0.019 A 
ATOM     10  C   UNL     1      -3.648   3.008  -1.038  0.00  0.00    +0.022 A 
ATOM     11  C   UNL     1      -3.673   1.691  -0.622  0.00  0.00    -0.007 A 
ATOM     12  C   UNL     1      -2.493   1.044  -0.291  0.00  0.00    +0.128 A 
ATOM     13  C   UNL     1      -4.985   0.954  -0.535  0.00  0.00    +0.047 C 
ATOM     14 BR   UNL     1      -2.430   5.497  -1.693  0.00  0.00    -0.050 Br
BRANCH  12  15
ATOM     15  O   UNL     1      -2.517  -0.252   0.112  0.00  0.00    -0.506 OA
ATOM     16  H   UNL     1      -2.542  -0.365   1.072  0.00  0.00    +0.292 HD
ENDBRANCH  12  15
ENDBRANCH   6   7
ENDBRANCH   3   5
BRANCH   1  17
ATOM     17  C   UNL     1       1.727   5.313   1.402  0.00  0.00    +0.326 C 
BRANCH  17  18
ATOM     18  O   UNL     1       3.000   5.889   1.703  0.00  0.00    -0.482 OA
BRANCH  18  23
ATOM     19  C   UNL     1       3.072  11.344   3.101  0.00  0.00    +0.044 C 
ATOM     20  C   UNL     1       3.053   9.885   2.727  0.00  0.00    -0.050 A 
ATOM     21  C   UNL     1       1.854   9.266   2.424  0.00  0.00    +0.007 A 
ATOM     22  C   UNL     1       1.834   7.928   2.081  0.00  0.00    +0.046 A 
ATOM     23  C   UNL     1       3.018   7.205   2.040  0.00  0.00    +0.124 A 
ATOM     24  C   UNL     1       4.218   7.827   2.350  0.00  0.00    -0.009 A 
ATOM     25  C   UNL     1       4.234   9.167   2.688  0.00  0.00    +0.010 A 
ATOM     26  C   UNL     1       5.505   7.043   2.313  0.00  0.00    +0.047 C 
ENDBRANCH  18  23
ENDBRANCH  17  18
ENDBRANCH   1  17
TORSDOF 6
