REMARK  Name = ZINC16524657
REMARK  7 active torsions:
REMARK  status: ('A' for Active; 'I' for Inactive)
REMARK    1  A    between atoms: C_4  and  C_7
REMARK    2  A    between atoms: C_8  and  S_9
REMARK    3  A    between atoms: S_9  and  N_12
REMARK    4  A    between atoms: N_15  and  C_18
REMARK    5  A    between atoms: C_18  and  C_19
REMARK    6  A    between atoms: N_21  and  C_22
REMARK    7  A    between atoms: C_23  and  C_31
REMARK                            x       y       z     vdW  Elec       q    Type
REMARK                         _______ _______ _______ _____ _____    ______ ____
ROOT
ATOM      1  C   UNL     1       3.889  -4.874   5.106  0.00  0.00    +0.180 C 
ENDROOT
BRANCH   1   5
ATOM      2  N   UNL     1       5.374  -3.696   1.362  0.00  0.00    -0.175 NA
ATOM      3  C   UNL     1       5.984  -3.076   2.548  0.00  0.00    +0.125 C 
ATOM      4  C   UNL     1       5.022  -3.236   3.730  0.00  0.00    +0.102 C 
ATOM      5  N   UNL     1       4.671  -4.654   3.882  0.00  0.00    -0.291 NA
ATOM      6  C   UNL     1       3.954  -5.156   2.703  0.00  0.00    +0.102 C 
ATOM      7  C   UNL     1       4.866  -5.072   1.480  0.00  0.00    +0.125 C 
BRANCH   2   8
ATOM      8  S   UNL     1       5.256  -2.867  -0.066  0.00  0.00    +0.054 S 
ATOM      9  O   UNL     1       5.165  -3.841  -1.096  0.00  0.00    -0.153 OA
ATOM     10  O   UNL     1       6.273  -1.874  -0.044  0.00  0.00    -0.153 OA
BRANCH   8  12
ATOM     11  C   UNL     1       3.695  -0.685  -0.038  0.00  0.00    +0.028 C 
ATOM     12  C   UNL     1       3.716  -2.010  -0.046  0.00  0.00    +0.153 C 
BRANCH  11  16
ATOM     13  C   UNL     1      -0.017   1.379   0.010  0.00  0.00    +0.000 A 
ATOM     14  C   UNL     1       1.168   2.093   0.002  0.00  0.00    +0.001 A 
ATOM     15  C   UNL     1       2.377   1.429  -0.013  0.00  0.00    +0.008 A 
ATOM     16  C   UNL     1       2.403   0.034  -0.021  0.00  0.00    -0.024 A 
ATOM     17  C   UNL     1       1.204  -0.681  -0.013  0.00  0.00    +0.008 A 
ATOM     18  C   UNL     1       0.002  -0.004   0.002  0.00  0.00    +0.001 A 
ENDBRANCH  11  16
ENDBRANCH   8  12
ENDBRANCH   2   8
ENDBRANCH   1   5
BRANCH   1  19
ATOM     19  C   UNL     1       3.757  -6.354   5.359  0.00  0.00    +0.232 C 
ATOM     20  O   UNL     1       4.265  -7.147   4.596  0.00  0.00    -0.274 OA
ATOM     21  N   UNL     1       3.076  -6.796   6.435  0.00  0.00    -0.278 N 
ATOM     22  H   UNL     1       2.670  -6.162   7.046  0.00  0.00    +0.155 HD
BRANCH  21  23
ATOM     23  C   UNL     1       2.955  -8.158   6.668  0.00  0.00    +0.084 A 
ATOM     24  C   UNL     1       2.293  -8.789   7.709  0.00  0.00    +0.068 A 
ATOM     25  C   UNL     1       2.314 -10.241   7.726  0.00  0.00    -0.023 A 
ATOM     26  C   UNL     1       2.994 -10.796   6.700  0.00  0.00    -0.004 A 
ATOM     27  S   UNL     1       3.571  -9.421   5.749  0.00  0.00    -0.077 S 
ATOM     28  C   UNL     1       3.197 -12.257   6.441  0.00  0.00    +0.043 C 
ATOM     29  C   UNL     1       2.839 -13.027   7.720  0.00  0.00    +0.005 C 
ATOM     30  C   UNL     1       1.491 -12.523   8.242  0.00  0.00    +0.005 C 
ATOM     31  C   UNL     1       1.643 -11.101   8.787  0.00  0.00    +0.037 C 
BRANCH  24  32
ATOM     32  C   UNL     1       1.600  -8.022   8.749  0.00  0.00    +0.244 C 
ATOM     33  O   UNL     1       0.428  -7.724   8.607  0.00  0.00    -0.270 OA
ATOM     34  N   UNL     1       2.260  -7.648   9.863  0.00  0.00    -0.325 N 
ATOM     35  H   UNL     1       3.194  -7.886   9.976  0.00  0.00    +0.145 HD
ATOM     36  H   UNL     1       1.802  -7.141  10.551  0.00  0.00    +0.145 HD
ENDBRANCH  24  32
ENDBRANCH  21  23
ENDBRANCH   1  19
TORSDOF 7
