REMARK  Name = ZINC36371724
REMARK  13 active torsions:
REMARK  status: ('A' for Active; 'I' for Inactive)
REMARK    1  A    between atoms: C_1  and  C_2
REMARK    2  A    between atoms: C_2  and  C_4
REMARK    3  A    between atoms: C_2  and  C_10
REMARK    4  A    between atoms: C_4  and  C_5
REMARK    5  A    between atoms: C_5  and  C_6
REMARK    6  A    between atoms: C_6  and  C_7
REMARK    7  A    between atoms: C_7  and  C_8
REMARK    8  A    between atoms: C_7  and  C_9
REMARK    9  A    between atoms: C_16  and  C_37
REMARK   10  A    between atoms: N_25  and  O_26
REMARK   11  A    between atoms: C_27  and  O_36
REMARK   12  A    between atoms: C_28  and  C_35
REMARK   13  A    between atoms: C_31  and  O_34
REMARK                            x       y       z     vdW  Elec       q    Type
REMARK                         _______ _______ _______ _____ _____    ______ ____
ROOT
ATOM      1  C   UNL     1       0.600  -0.556  -1.335  0.00  0.00    -0.002 C 
ATOM      2  C   UNL     1       0.388  -2.079  -1.539  0.00  0.00    +0.004 C 
ATOM      3  C   UNL     1      -0.193  -2.251  -2.975  0.00  0.00    +0.004 C 
ATOM      4  C   UNL     1       0.181  -0.910  -3.625  0.00  0.00    -0.001 C 
ATOM      5  C   UNL     1      -0.193   0.080  -2.502  0.00  0.00    -0.026 C 
ATOM      6  C   UNL     1       0.216   1.481  -2.862  0.00  0.00    +0.007 C 
ATOM      7  C   UNL     1      -0.189   1.851  -4.294  0.00  0.00    +0.005 C 
ATOM      8  C   UNL     1      -1.072   0.806  -4.947  0.00  0.00    +0.002 C 
ATOM      9  C   UNL     1      -0.431  -0.574  -4.948  0.00  0.00    +0.002 C 
ATOM     10  C   UNL     1      -1.441  -1.615  -5.436  0.00  0.00    +0.061 C 
ATOM     11  C   UNL     1      -1.889  -1.187  -6.826  0.00  0.00    +0.090 C 
ATOM     12  N   UNL     1      -2.704  -1.902  -7.511  0.00  0.00    -0.094 NA
ATOM     13  C   UNL     1      -1.331   0.110  -7.360  0.00  0.00    +0.115 C 
ATOM     14  C   UNL     1      -1.545   1.218  -6.335  0.00  0.00    +0.005 C 
ATOM     15  C   UNL     1      -0.880   2.498  -6.823  0.00  0.00    +0.012 C 
ATOM     16  C   UNL     1      -1.451   2.908  -8.181  0.00  0.00    +0.032 C 
ATOM     17  C   UNL     1      -1.344   1.780  -9.202  0.00  0.00    +0.118 C 
ATOM     18  C   UNL     1      -1.996   0.496  -8.682  0.00  0.00    +0.072 C 
ATOM     19  C   UNL     1      -3.053   1.481  -6.197  0.00  0.00    +0.015 C 
ATOM     20  C   UNL     1      -1.666   0.011  -2.104  0.00  0.00    +0.012 C 
ENDROOT
BRANCH   1  22
ATOM     21  C   UNL     1       0.209   1.401   0.162  0.00  0.00    +0.008 C 
ATOM     22  C   UNL     1       0.005  -0.106  -0.004  0.00  0.00    -0.010 C 
BRANCH  22  23
ATOM     23  C   UNL     1       0.702  -0.844   1.141  0.00  0.00    +0.003 C 
BRANCH  23  24
ATOM     24  C   UNL     1       0.023  -0.487   2.465  0.00  0.00    +0.001 C 
BRANCH  24  25
ATOM     25  C   UNL     1       0.720  -1.225   3.610  0.00  0.00    +0.003 C 
BRANCH  25  26
ATOM     26  C   UNL     1       0.042  -0.869   4.935  0.00  0.00    -0.017 C 
ATOM     27  C   UNL     1       0.656  -1.700   6.062  0.00  0.00    +0.007 C 
ATOM     28  C   UNL     1       0.246   0.619   5.228  0.00  0.00    +0.007 C 
ENDBRANCH  25  26
ENDBRANCH  24  25
ENDBRANCH  23  24
ENDBRANCH  22  23
ENDBRANCH   1  22
BRANCH  12  29
ATOM     29  O   UNL     1      -3.204  -3.114  -6.976  0.00  0.00    -0.409 OA
ATOM     30  H   UNL     1      -3.811  -3.583  -7.565  0.00  0.00    +0.328 HD
ENDBRANCH  12  29
BRANCH  17  31
ATOM     31  O   UNL     1      -1.996   2.178 -10.413  0.00  0.00    -0.392 OA
ATOM     32  H   UNL     1      -1.620   2.971 -10.820  0.00  0.00    +0.210 HD
ENDBRANCH  17  31
BRANCH  13  33
ATOM     33  O   UNL     1       0.070  -0.046  -7.626  0.00  0.00    -0.382 OA
ATOM     34  H   UNL     1       0.273  -0.732  -8.276  0.00  0.00    +0.211 HD
ENDBRANCH  13  33
TORSDOF 8
