REMARK  Name = ZINC01041173
REMARK  8 active torsions:
REMARK  status: ('A' for Active; 'I' for Inactive)
REMARK    1  A    between atoms: C_1  and  C_2
REMARK    2  A    between atoms: C_14  and  O_33
REMARK    3  A    between atoms: C_18  and  C_32
REMARK    4  A    between atoms: C_21  and  O_31
REMARK    5  A    between atoms: C_24  and  C_30
REMARK    6  A    between atoms: C_25  and  C_26
REMARK    7  A    between atoms: C_25  and  O_29
REMARK    8  A    between atoms: C_26  and  C_28
REMARK                            x       y       z     vdW  Elec       q    Type
REMARK                         _______ _______ _______ _____ _____    ______ ____
ROOT
ATOM      1  C   UNL     1       0.582   1.365  -0.905  0.00  0.00    +0.011 C 
ATOM      2  C   UNL     1       0.428  -0.096  -0.476  0.00  0.00    +0.026 C 
ATOM      3  C   UNL     1       1.315  -1.004  -1.359  0.00  0.00    +0.011 C 
ATOM      4  C   UNL     1       2.595  -1.178  -0.520  0.00  0.00    +0.002 C 
ATOM      5  C   UNL     1       3.421  -2.364  -0.964  0.00  0.00    -0.001 C 
ATOM      6  C   UNL     1       4.739  -2.405  -0.187  0.00  0.00    +0.004 C 
ATOM      7  C   UNL     1       5.585  -3.583  -0.672  0.00  0.00    +0.004 C 
ATOM      8  C   UNL     1       4.822  -4.888  -0.434  0.00  0.00    -0.002 C 
ATOM      9  C   UNL     1       5.670  -6.069  -0.911  0.00  0.00    +0.035 C 
ATOM     10  C   UNL     1       4.905  -7.373  -0.677  0.00  0.00    +0.115 C 
ATOM     11  C   UNL     1       3.590  -7.342  -1.458  0.00  0.00    +0.032 C 
ATOM     12  C   UNL     1       2.743  -6.160  -0.982  0.00  0.00    +0.010 C 
ATOM     13  C   UNL     1       3.506  -4.855  -1.214  0.00  0.00    -0.024 C 
ATOM     14  C   UNL     1       2.666  -3.673  -0.736  0.00  0.00    +0.027 C 
ATOM     15  C   UNL     1       2.366  -3.799   0.761  0.00  0.00    +0.119 C 
ATOM     16  C   UNL     1       1.425  -2.664   1.160  0.00  0.00    +0.041 C 
ATOM     17  C   UNL     1       2.063  -1.324   0.917  0.00  0.00    +0.009 C 
ATOM     18  C   UNL     1       0.920  -0.274   0.973  0.00  0.00    +0.131 C 
ATOM     19  C   UNL     1       3.158  -1.060   1.954  0.00  0.00    +0.015 C 
ATOM     20  C   UNL     1       3.805  -4.704  -2.707  0.00  0.00    +0.012 C 
ENDROOT
BRANCH  18  21
ATOM     21  C   UNL     1      -0.204  -0.777   1.843  0.00  0.00    +0.162 C 
ATOM     22  O   UNL     1      -1.120  -1.390   1.350  0.00  0.00    -0.295 OA
ATOM     23  C   UNL     1      -0.184  -0.514   3.326  0.00  0.00    +0.089 C 
ENDBRANCH  18  21
BRANCH  18  24
ATOM     24  O   UNL     1       1.416   0.967   1.479  0.00  0.00    -0.380 OA
ATOM     25  H   UNL     1       0.754   1.671   1.513  0.00  0.00    +0.211 HD
ENDBRANCH  18  24
BRANCH  15  26
ATOM     26  O   UNL     1       3.582  -3.702   1.506  0.00  0.00    -0.391 OA
ATOM     27  H   UNL     1       3.463  -3.774   2.462  0.00  0.00    +0.210 HD
ENDBRANCH  15  26
BRANCH  10  28
ATOM     28  O   UNL     1       5.697  -8.476  -1.123  0.00  0.00    -0.392 OA
ATOM     29  H   UNL     1       5.274  -9.338  -1.005  0.00  0.00    +0.210 HD
ENDBRANCH  10  28
TORSDOF 4
