REMARK  Name = ZINC41584362
REMARK  13 active torsions:
REMARK  status: ('A' for Active; 'I' for Inactive)
REMARK    1  A    between atoms: C_1  and  C_2
REMARK    2  A    between atoms: C_6  and  O_30
REMARK    3  A    between atoms: C_7  and  C_20
REMARK    4  A    between atoms: C_12  and  C_13
REMARK    5  A    between atoms: C_20  and  N_21
REMARK    6  A    between atoms: N_21  and  C_22
REMARK    7  A    between atoms: N_21  and  C_26
REMARK    8  A    between atoms: C_22  and  C_23
REMARK    9  A    between atoms: C_23  and  O_24
REMARK   10  A    between atoms: O_24  and  C_25
REMARK   11  A    between atoms: C_26  and  C_27
REMARK   12  A    between atoms: C_27  and  O_28
REMARK   13  A    between atoms: O_28  and  C_29
REMARK                            x       y       z     vdW  Elec       q    Type
REMARK                         _______ _______ _______ _____ _____    ______ ____
ROOT
ATOM      1  C   UNL     1       0.142   1.576  -0.310  0.00  0.00    +0.045 C 
ATOM      2  C   UNL     1       0.143   0.074  -0.189  0.00  0.00    -0.025 A 
ATOM      3  C   UNL     1      -1.060  -0.668  -0.317  0.00  0.00    +0.022 A 
ATOM      4  C   UNL     1      -2.237  -0.044  -0.757  0.00  0.00    +0.015 A 
ATOM      5  C   UNL     1      -3.376  -0.777  -0.915  0.00  0.00    +0.046 A 
ATOM      6  C   UNL     1      -3.384  -2.142  -0.634  0.00  0.00    +0.122 A 
ATOM      7  C   UNL     1      -2.237  -2.772  -0.180  0.00  0.00    +0.020 A 
ATOM      8  C   UNL     1      -1.072  -2.041  -0.009  0.00  0.00    +0.144 A 
ATOM      9  O   UNL     1       0.047  -2.635   0.473  0.00  0.00    -0.421 OA
ATOM     10  C   UNL     1       1.230  -2.081   0.121  0.00  0.00    +0.345 A 
ATOM     11  O   UNL     1       2.199  -2.774  -0.129  0.00  0.00    -0.244 OA
ATOM     12  C   UNL     1       1.308  -0.614   0.044  0.00  0.00    +0.070 A 
ENDROOT
BRANCH  12  13
ATOM     13  C   UNL     1       2.597   0.097   0.217  0.00  0.00    -0.011 A 
ATOM     14  C   UNL     1       3.144   0.821  -0.842  0.00  0.00    +0.010 A 
ATOM     15  C   UNL     1       4.344   1.481  -0.675  0.00  0.00    +0.020 A 
ATOM     16  C   UNL     1       5.006   1.424   0.540  0.00  0.00    +0.041 A 
ATOM     17  C   UNL     1       4.467   0.706   1.594  0.00  0.00    +0.020 A 
ATOM     18  C   UNL     1       3.265   0.048   1.440  0.00  0.00    +0.010 A 
ATOM     19 CL   UNL     1       6.516   2.256   0.742  0.00  0.00    -0.084 Cl
ENDBRANCH  12  13
BRANCH   6  20
ATOM     20  O   UNL     1      -4.524  -2.859  -0.806  0.00  0.00    -0.506 OA
ATOM     21  H   UNL     1      -4.657  -3.175  -1.711  0.00  0.00    +0.292 HD
ENDBRANCH   6  20
BRANCH   7  22
ATOM     22  C   UNL     1      -2.255  -4.248   0.125  0.00  0.00    -0.035 C 
BRANCH  22  23
ATOM     23  N   UNL     1      -2.066  -5.007  -1.118  0.00  0.00    +0.385 N 
ATOM     24  H   UNL     1      -2.753  -4.717  -1.798  0.00  0.00    -0.081 HD
BRANCH  23  25
ATOM     25  C   UNL     1      -0.719  -4.755  -1.646  0.00  0.00    -0.050 C 
BRANCH  25  26
ATOM     26  C   UNL     1      -0.565  -5.446  -3.003  0.00  0.00    +0.141 C 
BRANCH  26  27
ATOM     27  O   UNL     1      -1.458  -4.848  -3.945  0.00  0.00    -0.385 OA
ATOM     28  C   UNL     1      -1.394  -5.423  -5.252  0.00  0.00    +0.193 C 
ENDBRANCH  26  27
ENDBRANCH  25  26
ENDBRANCH  23  25
BRANCH  23  29
ATOM     29  C   UNL     1      -2.224  -6.442  -0.844  0.00  0.00    -0.050 C 
BRANCH  29  30
ATOM     30  C   UNL     1      -3.673  -6.729  -0.447  0.00  0.00    +0.141 C 
BRANCH  30  31
ATOM     31  O   UNL     1      -4.538  -6.420  -1.542  0.00  0.00    -0.385 OA
ATOM     32  C   UNL     1      -5.922  -6.653  -1.273  0.00  0.00    +0.193 C 
ENDBRANCH  30  31
ENDBRANCH  29  30
ENDBRANCH  23  29
ENDBRANCH  22  23
ENDBRANCH   7  22
TORSDOF 10
