REMARK  Name = ZINC33812631
REMARK  14 active torsions:
REMARK  status: ('A' for Active; 'I' for Inactive)
REMARK    1  A    between atoms: C_1  and  C_2
REMARK    2  A    between atoms: C_2  and  C_3
REMARK    3  A    between atoms: C_3  and  N_4
REMARK    4  A    between atoms: C_5  and  N_28
REMARK    5  A    between atoms: C_6  and  C_14
REMARK    6  A    between atoms: C_7  and  C_13
REMARK    7  A    between atoms: C_8  and  C_11
REMARK    8  A    between atoms: N_18  and  C_22
REMARK    9  A    between atoms: C_22  and  C_23
REMARK   10  A    between atoms: C_23  and  C_24
REMARK   11  A    between atoms: C_24  and  O_25
REMARK   12  A    between atoms: O_25  and  C_26
REMARK   13  A    between atoms: C_26  and  C_27
REMARK   14  A    between atoms: N_31  and  C_34
REMARK                            x       y       z     vdW  Elec       q    Type
REMARK                         _______ _______ _______ _____ _____    ______ ____
ROOT
ATOM      1  N   UNL     1       0.332  -2.182  -1.303  0.00  0.00    -0.295 N 
ATOM      2  C   UNL     1       1.462  -2.715  -0.771  0.00  0.00    +0.112 A 
ATOM      3  C   UNL     1       1.830  -4.039  -1.059  0.00  0.00    +0.019 A 
ATOM      4  C   UNL     1       1.019  -4.814  -1.906  0.00  0.00    -0.017 A 
ATOM      5  C   UNL     1      -0.134  -4.244  -2.438  0.00  0.00    +0.120 A 
ATOM      6  C   UNL     1      -0.464  -2.904  -2.112  0.00  0.00    +0.270 A 
ATOM      7  O   UNL     1      -1.475  -2.402  -2.571  0.00  0.00    -0.266 OA
ATOM      8  C   UNL     1       1.391  -6.237  -2.232  0.00  0.00    +0.046 C 
ENDROOT
BRANCH   3   9
ATOM      9  C   UNL     1       3.050  -4.608  -0.483  0.00  0.00    +0.032 C 
ATOM     10  C   UNL     1       2.968  -5.641   0.399  0.00  0.00    +0.077 C 
ATOM     11  C   UNL     1       4.014  -6.374   1.040  0.00  0.00    +0.258 C 
ATOM     12  O   UNL     1       5.184  -6.110   0.830  0.00  0.00    -0.269 OA
ATOM     13  N   UNL     1       3.673  -7.346   1.867  0.00  0.00    -0.255 N 
ATOM     14  C   UNL     1       2.374  -7.638   2.100  0.00  0.00    +0.121 C 
ATOM     15  S   UNL     1       1.711  -8.842   3.121  0.00  0.00    -0.027 S 
ATOM     16  S   UNL     1       1.523  -6.445   1.078  0.00  0.00    -0.061 S 
BRANCH  13  17
ATOM     17  C   UNL     1       4.718  -8.119   2.542  0.00  0.00    +0.117 C 
BRANCH  17  18
ATOM     18  C   UNL     1       5.068  -7.450   3.873  0.00  0.00    +0.047 C 
BRANCH  18  19
ATOM     19  C   UNL     1       6.160  -8.258   4.578  0.00  0.00    +0.161 C 
BRANCH  19  20
ATOM     20  O   UNL     1       6.487  -7.633   5.821  0.00  0.00    -0.380 OA
BRANCH  20  21
ATOM     21  C   UNL     1       7.503  -8.311   6.563  0.00  0.00    +0.156 C 
ATOM     22  C   UNL     1       7.770  -7.558   7.868  0.00  0.00    +0.034 C 
ENDBRANCH  20  21
ENDBRANCH  19  20
ENDBRANCH  18  19
ENDBRANCH  17  18
ENDBRANCH  13  17
ENDBRANCH   3   9
BRANCH   2  23
ATOM     23  N   UNL     1       2.245  -1.958   0.050  0.00  0.00    -0.320 N 
ATOM     24  C   UNL     1       2.070  -1.997   1.510  0.00  0.00    +0.088 C 
ATOM     25  C   UNL     1       3.438  -2.235   2.158  0.00  0.00    -0.060 C 
ATOM     26  N   UNL     1       4.384  -1.215   1.688  0.00  0.00    +0.380 N 
ATOM     27  C   UNL     1       4.600  -1.361   0.243  0.00  0.00    -0.060 C 
ATOM     28  C   UNL     1       3.293  -1.084  -0.499  0.00  0.00    +0.088 C 
ATOM     29  C   UNL     1       5.664  -1.376   2.392  0.00  0.00    -0.096 C 
ATOM     30  H   UNL     1       4.011  -0.298   1.880  0.00  0.00    -0.082 HD
ENDBRANCH   2  23
BRANCH   5  31
ATOM     31  C   UNL     1      -0.982  -5.006  -3.305  0.00  0.00    +0.105 C 
ATOM     32  N   UNL     1      -1.655  -5.611  -3.992  0.00  0.00    -0.191 NA
ENDBRANCH   5  31
BRANCH   1  33
ATOM     33  C   UNL     1      -0.029  -0.798  -0.987  0.00  0.00    +0.126 C 
BRANCH  33  35
ATOM     34  C   UNL     1      -1.388   0.663   0.517  0.00  0.00    +0.005 C 
ATOM     35  C   UNL     1      -1.011  -0.783   0.187  0.00  0.00    +0.018 C 
ENDBRANCH  33  35
ENDBRANCH   1  33
TORSDOF 10
