REMARK  Name = ZINC41650874
REMARK  9 active torsions:
REMARK  status: ('A' for Active; 'I' for Inactive)
REMARK    1  A    between atoms: C_1  and  C_2
REMARK    2  A    between atoms: C_2  and  N_3
REMARK    3  A    between atoms: C_5  and  C_12
REMARK    4  A    between atoms: C_17  and  C_37
REMARK    5  A    between atoms: N_24  and  C_27
REMARK    6  A    between atoms: C_27  and  C_28
REMARK    7  A    between atoms: C_28  and  C_29
REMARK    8  A    between atoms: C_34  and  O_35
REMARK    9  A    between atoms: O_35  and  C_36
REMARK                            x       y       z     vdW  Elec       q    Type
REMARK                         _______ _______ _______ _____ _____    ______ ____
ROOT
ATOM      1  C   UNL     1       0.760  -1.669  -4.652  0.00  0.00    +0.060 C 
ATOM      2  C   UNL     1      -0.516  -1.726  -5.128  0.00  0.00    +0.176 C 
ATOM      3  C   UNL     1      -0.898  -2.148  -6.429  0.00  0.00    +0.232 C 
ATOM      4  O   UNL     1      -0.168  -2.525  -7.330  0.00  0.00    -0.283 OA
ATOM      5  C   UNL     1      -2.366  -2.033  -6.456  0.00  0.00    +0.071 A 
ATOM      6  C   UNL     1      -3.334  -2.290  -7.427  0.00  0.00    -0.033 A 
ATOM      7  C   UNL     1      -4.652  -2.079  -7.145  0.00  0.00    +0.050 A 
ATOM      8  C   UNL     1      -5.040  -1.608  -5.890  0.00  0.00    +0.131 A 
ATOM      9  C   UNL     1      -4.090  -1.351  -4.916  0.00  0.00    +0.051 A 
ATOM     10  C   UNL     1      -2.743  -1.559  -5.189  0.00  0.00    +0.148 A 
ATOM     11  O   UNL     1      -1.633  -1.395  -4.438  0.00  0.00    -0.451 OA
ATOM     12  C   UNL     1      -4.496  -0.849  -3.554  0.00  0.00    +0.130 C 
ATOM     13  N   UNL     1      -5.865  -0.318  -3.612  0.00  0.00    -0.266 NA
ATOM     14  C   UNL     1      -6.756  -1.284  -4.274  0.00  0.00    +0.318 C 
ATOM     15  O   UNL     1      -6.361  -1.405  -5.642  0.00  0.00    -0.476 OA
ATOM     16  C   UNL     1      -2.924  -2.799  -8.785  0.00  0.00    +0.045 C 
ENDROOT
BRANCH   1  19
ATOM     17  N   UNL     1       0.688  -0.476  -1.203  0.00  0.00    -0.346 N 
ATOM     18  C   UNL     1       0.069  -0.822  -2.359  0.00  0.00    +0.094 A 
ATOM     19  C   UNL     1       1.010  -1.219  -3.284  0.00  0.00    +0.004 A 
ATOM     20  C   UNL     1       2.321  -1.100  -2.617  0.00  0.00    +0.007 A 
ATOM     21  C   UNL     1       2.055  -0.626  -1.323  0.00  0.00    +0.050 A 
ATOM     22  C   UNL     1       3.113  -0.406  -0.447  0.00  0.00    +0.026 A 
ATOM     23  C   UNL     1       4.406  -0.650  -0.855  0.00  0.00    +0.002 A 
ATOM     24  C   UNL     1       4.667  -1.115  -2.135  0.00  0.00    +0.001 A 
ATOM     25  C   UNL     1       3.632  -1.346  -3.015  0.00  0.00    +0.010 A 
BRANCH  17  27
ATOM     26  C   UNL     1      -0.019   1.526   0.010  0.00  0.00    +0.027 C 
ATOM     27  C   UNL     1       0.002  -0.004   0.002  0.00  0.00    +0.118 C 
ENDBRANCH  17  27
ENDBRANCH   1  19
BRANCH  13  28
ATOM     28  C   UNL     1      -6.357   0.018  -2.269  0.00  0.00    +0.092 C 
BRANCH  28  29
ATOM     29  C   UNL     1      -7.671   0.792  -2.385  0.00  0.00    +0.054 C 
BRANCH  29  30
ATOM     30  C   UNL     1      -8.176   1.135  -1.008  0.00  0.00    -0.005 A 
ATOM     31  C   UNL     1      -9.093   0.313  -0.382  0.00  0.00    +0.007 A 
ATOM     32  C   UNL     1      -9.556   0.628   0.882  0.00  0.00    +0.000 A 
ATOM     33  C   UNL     1      -9.104   1.767   1.523  0.00  0.00    +0.004 A 
ATOM     34  C   UNL     1      -8.187   2.592   0.902  0.00  0.00    +0.046 A 
ATOM     35  C   UNL     1      -7.716   2.275  -0.365  0.00  0.00    +0.123 A 
BRANCH  35  36
ATOM     36  O   UNL     1      -6.810   3.083  -0.976  0.00  0.00    -0.495 OA
ATOM     37  C   UNL     1      -6.382   4.240  -0.254  0.00  0.00    +0.277 C 
ENDBRANCH  35  36
ENDBRANCH  29  30
ENDBRANCH  28  29
ENDBRANCH  13  28
TORSDOF 6
