REMARK  Name = ZINC20636562
REMARK  2 active torsions:
REMARK  status: ('A' for Active; 'I' for Inactive)
REMARK    1  A    between atoms: C_4  and  N_7
REMARK    2  A    between atoms: C_8  and  O_26
REMARK                            x       y       z     vdW  Elec       q    Type
REMARK                         _______ _______ _______ _____ _____    ______ ____
ROOT
ATOM      1  N   UNL     1       3.621  -0.650  -0.036  0.00  0.00    -0.236 N 
ATOM      2  C   UNL     1       4.799   0.039  -0.141  0.00  0.00    +0.196 C 
ATOM      3  C   UNL     1       5.918  -0.501   0.510  0.00  0.00    +0.055 A 
ATOM      4  C   UNL     1       7.140   0.186   0.580  0.00  0.00    +0.015 A 
ATOM      5  C   UNL     1       8.165  -0.345   1.303  0.00  0.00    +0.001 A 
ATOM      6  C   UNL     1       8.036  -1.562   1.971  0.00  0.00    +0.002 A 
ATOM      7  C   UNL     1       6.892  -2.294   1.912  0.00  0.00    +0.026 A 
ATOM      8  C   UNL     1       5.804  -1.821   1.149  0.00  0.00    +0.050 A 
ATOM      9  N   UNL     1       4.718  -2.552   0.963  0.00  0.00    -0.352 N 
ATOM     10  C   UNL     1       3.659  -2.108   0.065  0.00  0.00    +0.219 C 
ATOM     11  C   UNL     1       3.822  -2.729  -1.288  0.00  0.00    +0.027 A 
ATOM     12  C   UNL     1       4.834  -2.634  -2.218  0.00  0.00    +0.010 A 
ATOM     13  C   UNL     1       4.674  -3.350  -3.399  0.00  0.00    +0.001 A 
ATOM     14  C   UNL     1       3.551  -4.120  -3.626  0.00  0.00    +0.002 A 
ATOM     15  C   UNL     1       2.529  -4.219  -2.695  0.00  0.00    +0.024 A 
ATOM     16  C   UNL     1       2.678  -3.505  -1.505  0.00  0.00    +0.041 A 
ATOM     17  N   UNL     1       1.827  -3.422  -0.417  0.00  0.00    -0.281 N 
ATOM     18  C   UNL     1       2.320  -2.625   0.552  0.00  0.00    +0.267 C 
ATOM     19  O   UNL     1       1.792  -2.369   1.614  0.00  0.00    -0.271 OA
ATOM     20  H   UNL     1       0.975  -3.883  -0.359  0.00  0.00    +0.155 HD
ATOM     21  H   UNL     1       4.624  -3.396   1.433  0.00  0.00    +0.162 HD
ENDROOT
BRANCH   1  25
ATOM     22  C   UNL     1      -0.016   1.379   0.010  0.00  0.00    +0.000 A 
ATOM     23  C   UNL     1       0.721   1.257   1.174  0.00  0.00    +0.002 A 
ATOM     24  C   UNL     1       1.927   0.585   1.162  0.00  0.00    +0.023 A 
ATOM     25  C   UNL     1       2.400   0.031  -0.021  0.00  0.00    +0.039 A 
ATOM     26  C   UNL     1       1.657   0.156  -1.188  0.00  0.00    +0.023 A 
ATOM     27  C   UNL     1       0.452   0.830  -1.169  0.00  0.00    +0.002 A 
ENDBRANCH   1  25
BRANCH   2  28
ATOM     28  O   UNL     1       4.880   1.186  -0.840  0.00  0.00    -0.495 OA
ATOM     29  H   UNL     1       5.762   1.582  -0.844  0.00  0.00    +0.294 HD
ENDBRANCH   2  28
TORSDOF 2
