REMARK  Name = ZINC13212664
REMARK  12 active torsions:
REMARK  status: ('A' for Active; 'I' for Inactive)
REMARK    1  A    between atoms: C_1  and  C_2
REMARK    2  A    between atoms: C_2  and  C_3
REMARK    3  A    between atoms: C_3  and  C_5
REMARK    4  A    between atoms: C_3  and  N_13
REMARK    5  A    between atoms: C_8  and  O_11
REMARK    6  A    between atoms: O_11  and  C_12
REMARK    7  A    between atoms: N_13  and  C_14
REMARK    8  A    between atoms: C_17  and  S_23
REMARK    9  A    between atoms: C_19  and  N_20
REMARK   10  A    between atoms: S_23  and  N_26
REMARK   11  A    between atoms: N_26  and  C_27
REMARK   12  A    between atoms: C_32  and  C_33
REMARK                            x       y       z     vdW  Elec       q    Type
REMARK                         _______ _______ _______ _____ _____    ______ ____
ROOT
ATOM      1  C   UNL     1      -2.485   3.224  -1.482  0.00  0.00    +0.058 A 
ATOM      2  C   UNL     1      -3.784   2.773  -1.286  0.00  0.00    +0.027 A 
ATOM      3  C   UNL     1      -4.844   3.464  -1.839  0.00  0.00    +0.031 A 
ATOM      4  C   UNL     1      -4.613   4.597  -2.598  0.00  0.00    +0.111 A 
ATOM      5  C   UNL     1      -3.321   5.045  -2.801  0.00  0.00    +0.063 A 
ATOM      6  C   UNL     1      -2.256   4.362  -2.245  0.00  0.00    +0.149 A 
ENDROOT
BRANCH   6   7
ATOM      7  N   UNL     1      -0.873   4.843  -2.462  0.00  0.00    +0.058 N 
ATOM      8  O   UNL     1      -0.679   5.898  -3.040  0.00  0.00    -0.126 OA
ATOM      9  O   UNL     1       0.070   4.184  -2.063  0.00  0.00    -0.126 OA
ENDBRANCH   6   7
BRANCH   4  10
ATOM     10  S   UNL     1      -5.968   5.471  -3.308  0.00  0.00    +0.072 S 
ATOM     11  O   UNL     1      -7.109   5.162  -2.519  0.00  0.00    -0.150 OA
ATOM     12  O   UNL     1      -5.526   6.805  -3.518  0.00  0.00    -0.150 OA
BRANCH  10  13
ATOM     13  N   UNL     1      -6.239   4.821  -4.807  0.00  0.00    -0.215 N 
ATOM     14  H   UNL     1      -6.166   5.378  -5.598  0.00  0.00    +0.174 HD
BRANCH  13  15
ATOM     15  C   UNL     1      -6.570   3.478  -4.932  0.00  0.00    +0.062 A 
ATOM     16  C   UNL     1      -7.369   2.864  -3.975  0.00  0.00    +0.025 A 
ATOM     17  C   UNL     1      -7.701   1.531  -4.104  0.00  0.00    +0.002 A 
ATOM     18  C   UNL     1      -7.234   0.792  -5.179  0.00  0.00    +0.001 A 
ATOM     19  C   UNL     1      -6.436   1.381  -6.135  0.00  0.00    +0.017 A 
ATOM     20  C   UNL     1      -6.095   2.732  -6.022  0.00  0.00    +0.085 A 
BRANCH  20  21
ATOM     21  C   UNL     1      -5.242   3.369  -7.041  0.00  0.00    +0.388 C 
ATOM     22  O   UNL     1      -4.948   4.544  -6.939  0.00  0.00    -0.241 OA
ATOM     23  O   UNL     1      -4.789   2.649  -8.086  0.00  0.00    -0.241 OA
ENDBRANCH  20  21
ENDBRANCH  13  15
ENDBRANCH  10  13
ENDBRANCH   4  10
BRANCH   1  24
ATOM     24  N   UNL     1      -1.411   2.532  -0.919  0.00  0.00    -0.335 N 
ATOM     25  H   UNL     1      -0.501   2.780  -1.146  0.00  0.00    +0.147 HD
BRANCH  24  26
ATOM     26  C   UNL     1      -1.658   1.430   0.014  0.00  0.00    +0.100 C 
BRANCH  26  27
ATOM     27  C   UNL     1      -0.482   0.487   0.001  0.00  0.00    -0.027 A 
ATOM     28  C   UNL     1       0.804   0.989  -0.068  0.00  0.00    +0.009 A 
ATOM     29  C   UNL     1       1.883   0.126  -0.086  0.00  0.00    +0.046 A 
ATOM     30  C   UNL     1       1.675  -1.244  -0.035  0.00  0.00    +0.120 A 
ATOM     31  C   UNL     1       0.383  -1.745   0.034  0.00  0.00    +0.046 A 
ATOM     32  C   UNL     1      -0.693  -0.879   0.052  0.00  0.00    +0.009 A 
BRANCH  30  33
ATOM     33  O   UNL     1       2.735  -2.095  -0.054  0.00  0.00    -0.495 OA
ATOM     34  C   UNL     1       4.036  -1.508  -0.126  0.00  0.00    +0.277 C 
ENDBRANCH  30  33
ENDBRANCH  26  27
BRANCH  26  36
ATOM     35  C   UNL     1      -3.113   2.848   1.468  0.00  0.00    +0.006 C 
ATOM     36  C   UNL     1      -1.847   1.989   1.425  0.00  0.00    +0.023 C 
ENDBRANCH  26  36
ENDBRANCH  24  26
ENDBRANCH   1  24
TORSDOF 10
