REMARK  Name = ZINC40721347
REMARK  9 active torsions:
REMARK  status: ('A' for Active; 'I' for Inactive)
REMARK    1  A    between atoms: C_4  and  C_7
REMARK    2  A    between atoms: C_7  and  O_8
REMARK    3  A    between atoms: O_8  and  C_9
REMARK    4  A    between atoms: C_12  and  C_16
REMARK    5  A    between atoms: C_16  and  N_17
REMARK    6  A    between atoms: N_17  and  CA_18
REMARK    7  A    between atoms: CA_18  and  CB_20
REMARK    8  A    between atoms: CA_18  and  C_31
REMARK    9  A    between atoms: CB_20  and  CG_21
REMARK                            x       y       z     vdW  Elec       q    Type
REMARK                         _______ _______ _______ _____ _____    ______ ____
ROOT
ATOM      1  N   UNL     1       9.595  -3.990   0.662  0.00  0.00    +0.391 N 
ATOM      2  H1  UNL     1       8.953  -4.573   0.146  0.00  0.00    -0.084 HD
ATOM      3  H2  UNL     1       9.756  -3.135   0.152  0.00  0.00    -0.084 HD
ENDROOT
BRANCH   1   4
ATOM      4  C   ACE A   0       9.023  -3.677   1.978  0.00  0.00    -0.046 C 
BRANCH   4   8
ATOM      5  C   UNL     1       5.319  -1.605   1.467  0.00  0.00    +0.157 A 
ATOM      6  C   UNL     1       5.336  -2.991   1.545  0.00  0.00    +0.084 A 
ATOM      7  C   UNL     1       6.535  -3.658   1.710  0.00  0.00    +0.025 A 
ATOM      8  C   UNL     1       7.718  -2.946   1.798  0.00  0.00    -0.061 A 
ATOM      9  C   UNL     1       7.704  -1.566   1.720  0.00  0.00    +0.025 A 
ATOM     10  C   UNL     1       6.508  -0.894   1.549  0.00  0.00    +0.084 A 
ATOM     11 CL   UNL     1       6.493   0.839   1.444  0.00  0.00    -0.080 Cl
ATOM     12 CL   UNL     1       3.852  -3.885   1.436  0.00  0.00    -0.080 Cl
BRANCH   5  13
ATOM     13  O   UNL     1       4.141  -0.946   1.304  0.00  0.00    -0.484 OA
BRANCH  13  14
ATOM     14  C   UNL     1       3.711  -0.707  -0.038  0.00  0.00    +0.264 C 
BRANCH  14  18
ATOM     15  C   UNL     1      -0.017   1.378   0.010  0.00  0.00    +0.000 A 
ATOM     16  C   UNL     1       1.171   2.086   0.002  0.00  0.00    +0.000 A 
ATOM     17  C   UNL     1       2.377   1.411  -0.013  0.00  0.00    +0.007 A 
ATOM     18  C   UNL     1       2.396   0.029  -0.020  0.00  0.00    -0.010 A 
ATOM     19  C   UNL     1       1.208  -0.679  -0.012  0.00  0.00    +0.007 A 
ATOM     20  C   UNL     1       0.002  -0.004   0.002  0.00  0.00    +0.000 A 
ENDBRANCH  14  18
ENDBRANCH  13  14
ENDBRANCH   5  13
ENDBRANCH   4   8
ENDBRANCH   1   4
BRANCH   1  21
ATOM     21  CA  UNL     1      10.868  -4.702   0.838  0.00  0.00    +0.048 C 
BRANCH  21  22
ATOM     22  C   UNL     1      10.611  -6.037   1.490  0.00  0.00    +0.343 C 
ATOM     23  O   UNL     1       9.469  -6.444   1.615  0.00  0.00    -0.248 OA
ATOM     24  OXT UNL     1      11.546  -6.709   1.892  0.00  0.00    -0.248 OA
ENDBRANCH  21  22
BRANCH  21  25
ATOM     25  CB  UNL     1      11.524  -4.919  -0.527  0.00  0.00    +0.032 C 
BRANCH  25  26
ATOM     26  CG  UNL     1      11.893  -3.586  -1.125  0.00  0.00    -0.023 A 
ATOM     27  CD1 UNL     1      11.156  -2.865  -1.985  0.00  0.00    +0.087 A 
ATOM     28  NE1 UNL     1      11.813  -1.710  -2.308  0.00  0.00    -0.360 N 
ATOM     29  HE1 UNL     1      11.479  -1.029  -2.913  0.00  0.00    +0.165 HD
ATOM     30  CE2 UNL     1      13.020  -1.657  -1.647  0.00  0.00    +0.047 A 
ATOM     31  CD2 UNL     1      13.120  -2.827  -0.872  0.00  0.00    +0.003 A 
ATOM     32  CE3 UNL     1      14.250  -3.044  -0.082  0.00  0.00    +0.010 A 
ATOM     33  CZ3 UNL     1      15.253  -2.116  -0.063  0.00  0.00    +0.001 A 
ATOM     34  CH2 UNL     1      15.158  -0.959  -0.823  0.00  0.00    +0.002 A 
ATOM     35  CZ2 UNL     1      14.055  -0.729  -1.617  0.00  0.00    +0.026 A 
ENDBRANCH  25  26
ENDBRANCH  21  25
ENDBRANCH   1  21
TORSDOF 9
