REMARK  Name = ZINC66570560
REMARK  5 active torsions:
REMARK  status: ('A' for Active; 'I' for Inactive)
REMARK    1  A    between atoms: C_6  and  C_7
REMARK    2  A    between atoms: C_10  and  C_12
REMARK    3  A    between atoms: N_14  and  N_15
REMARK    4  A    between atoms: C_16  and  C_18
REMARK    5  A    between atoms: C_18  and  C_19
REMARK                            x       y       z     vdW  Elec       q    Type
REMARK                         _______ _______ _______ _____ _____    ______ ____
ROOT
ATOM      1  C   UNL     1      -0.514  -1.798  -2.245  0.00  0.00    +0.233 C 
ATOM      2  O   UNL     1       0.498  -1.135  -2.160  0.00  0.00    -0.274 OA
ATOM      3  N   UNL     1      -0.700  -2.610  -3.305  0.00  0.00    -0.234 N 
ATOM      4  H   UNL     1      -1.509  -3.141  -3.373  0.00  0.00    +0.173 HD
ENDROOT
BRANCH   3   5
ATOM      5  N   UNL     1       0.275  -2.688  -4.308  0.00  0.00    -0.234 N 
ATOM      6  C   UNL     1       0.089  -3.500  -5.367  0.00  0.00    +0.229 C 
ATOM      7  O   UNL     1      -0.923  -4.163  -5.452  0.00  0.00    -0.274 OA
ATOM      8  H   UNL     1       1.084  -2.158  -4.239  0.00  0.00    +0.173 HD
BRANCH   6   9
ATOM      9  C   UNL     1       1.138  -3.584  -6.446  0.00  0.00    +0.101 C 
BRANCH   9  10
ATOM     10  C   UNL     1       0.683  -4.569  -7.524  0.00  0.00    -0.002 C 
ATOM     11  C   UNL     1       0.602  -5.976  -6.928  0.00  0.00    +0.004 C 
ATOM     12  C   UNL     1       0.147  -6.961  -8.007  0.00  0.00    +0.000 C 
ATOM     13  C   UNL     1       1.151  -6.954  -9.161  0.00  0.00    +0.000 C 
ATOM     14  C   UNL     1       1.232  -5.547  -9.757  0.00  0.00    +0.000 C 
ATOM     15  C   UNL     1       1.687  -4.561  -8.678  0.00  0.00    +0.004 C 
ENDBRANCH   9  10
ENDBRANCH   6   9
ENDBRANCH   3   5
BRANCH   1  18
ATOM     16  C   UNL     1      -1.293  -0.775   0.010  0.00  0.00    +0.032 C 
ATOM     17  C   UNL     1      -1.212  -2.290   0.208  0.00  0.00    +0.022 C 
ATOM     18  C   UNL     1      -1.563  -1.715  -1.167  0.00  0.00    +0.084 C 
BRANCH  16  24
ATOM     19  C   UNL     1      -0.017   1.378   0.010  0.00  0.00    +0.005 A 
ATOM     20  C   UNL     1       1.171   2.086   0.002  0.00  0.00    +0.015 A 
ATOM     21  C   UNL     1       2.378   1.411  -0.013  0.00  0.00    +0.018 A 
ATOM     22  C   UNL     1       2.396   0.027  -0.021  0.00  0.00    +0.015 A 
ATOM     23  C   UNL     1       1.208  -0.679  -0.013  0.00  0.00    +0.005 A 
ATOM     24  C   UNL     1       0.002  -0.004   0.002  0.00  0.00    -0.043 A 
ATOM     25 BR   UNL     1       4.003   2.378  -0.024  0.00  0.00    -0.050 Br
ENDBRANCH  16  24
ENDBRANCH   1  18
TORSDOF 5
