REMARK  Name = ZINC21046799
REMARK  8 active torsions:
REMARK  status: ('A' for Active; 'I' for Inactive)
REMARK    1  A    between atoms: C_1  and  C_2
REMARK    2  A    between atoms: C_2  and  O_3
REMARK    3  A    between atoms: O_3  and  C_4
REMARK    4  A    between atoms: C_4  and  C_5
REMARK    5  A    between atoms: C_5  and  C_6
REMARK    6  A    between atoms: C_6  and  N_7
REMARK    7  A    between atoms: N_9  and  C_10
REMARK    8  A    between atoms: C_13  and  C_16
REMARK                            x       y       z     vdW  Elec       q    Type
REMARK                         _______ _______ _______ _____ _____    ______ ____
ROOT
ATOM      1  N   UNL     1      -1.538  -1.366   0.907  0.00  0.00    -0.361 N 
ATOM      2  C   UNL     1      -2.183  -2.064   1.893  0.00  0.00    +0.161 C 
ATOM      3  N   UNL     1      -2.531  -1.459   3.008  0.00  0.00    -0.289 N 
ATOM      4  N   UNL     1      -2.466  -3.394   1.719  0.00  0.00    -0.302 N 
ATOM      5  C   UNL     1      -1.504  -4.290   1.058  0.00  0.00    +0.126 C 
ATOM      6  C   UNL     1      -1.291  -5.516   1.959  0.00  0.00    +0.125 C 
ATOM      7  N   UNL     1      -2.593  -6.123   2.268  0.00  0.00    -0.314 N 
ATOM      8  C   UNL     1      -3.442  -5.200   3.033  0.00  0.00    +0.125 C 
ATOM      9  C   UNL     1      -3.741  -3.961   2.182  0.00  0.00    +0.126 C 
ATOM     10  C   UNL     1      -2.434  -7.328   2.942  0.00  0.00    +0.099 A 
ATOM     11  C   UNL     1      -1.659  -8.337   2.377  0.00  0.00    +0.042 A 
ATOM     12  C   UNL     1      -1.510  -9.531   3.058  0.00  0.00    +0.005 A 
ATOM     13  C   UNL     1      -2.141  -9.677   4.287  0.00  0.00    +0.018 A 
ATOM     14  C   UNL     1      -2.894  -8.635   4.788  0.00  0.00    +0.084 A 
ATOM     15  N   UNL     1      -3.016  -7.504   4.118  0.00  0.00    -0.350 N 
ATOM     16  H   UNL     1      -1.665  -0.276   0.831  0.00  0.00    +0.162 HD
ATOM     17  H   UNL     1      -3.070  -2.014   3.790  0.00  0.00    +0.155 HD
ATOM     18  H   UNL     1      -3.618  -6.697   4.560  0.00  0.00    +0.166 HD
ENDROOT
BRANCH   3  19
ATOM     19  C   UNL     1      -2.224  -0.143   3.194  0.00  0.00    +0.033 A 
ATOM     20  C   UNL     1      -0.894   0.285   3.100  0.00  0.00    +0.024 A 
ATOM     21  C   UNL     1      -0.587   1.602   3.280  0.00  0.00    +0.017 A 
ATOM     22  C   UNL     1      -1.600   2.523   3.571  0.00  0.00    +0.063 A 
ATOM     23  C   UNL     1      -2.929   2.094   3.671  0.00  0.00    +0.017 A 
ATOM     24  C   UNL     1      -3.237   0.778   3.485  0.00  0.00    +0.024 A 
BRANCH  22  25
ATOM     25  C   UNL     1      -1.268   3.943   3.772  0.00  0.00    +0.387 C 
ATOM     26  O   UNL     1      -2.148   4.743   4.024  0.00  0.00    -0.241 OA
ATOM     27  O   UNL     1       0.011   4.356   3.675  0.00  0.00    -0.241 OA
ENDBRANCH  22  25
ENDBRANCH   3  19
BRANCH   1  28
ATOM     28  C   UNL     1      -0.677  -2.071  -0.046  0.00  0.00    +0.117 C 
BRANCH  28  29
ATOM     29  C   UNL     1      -0.270  -1.115  -1.170  0.00  0.00    +0.049 C 
BRANCH  29  30
ATOM     30  C   UNL     1       0.629  -1.851  -2.165  0.00  0.00    +0.161 C 
BRANCH  30  31
ATOM     31  O   UNL     1       1.008  -0.958  -3.214  0.00  0.00    -0.380 OA
BRANCH  31  33
ATOM     32  C   UNL     1       2.195  -0.508  -5.271  0.00  0.00    +0.034 C 
ATOM     33  C   UNL     1       1.854  -1.549  -4.203  0.00  0.00    +0.156 C 
ENDBRANCH  31  33
ENDBRANCH  30  31
ENDBRANCH  29  30
ENDBRANCH  28  29
ENDBRANCH   1  28
TORSDOF 7
