REMARK  Name = ZINC33033378
REMARK  9 active torsions:
REMARK  status: ('A' for Active; 'I' for Inactive)
REMARK    1  A    between atoms: C_1  and  C_2
REMARK    2  A    between atoms: C_7  and  S_12
REMARK    3  A    between atoms: C_9  and  C_11
REMARK    4  A    between atoms: S_12  and  C_13
REMARK    5  A    between atoms: C_13  and  C_15
REMARK    6  A    between atoms: C_13  and  C_16
REMARK    7  A    between atoms: N_18  and  C_19
REMARK    8  A    between atoms: C_19  and  C_21
REMARK    9  A    between atoms: C_19  and  C_22
REMARK                            x       y       z     vdW  Elec       q    Type
REMARK                         _______ _______ _______ _____ _____    ______ ____
ROOT
ATOM      1  C   UNL     1      -4.487   1.218   0.631  0.00  0.00    +0.137 C 
ATOM      2  C   UNL     1      -4.622   0.090  -0.394  0.00  0.00    +0.029 C 
ENDROOT
BRANCH   1   3
ATOM      3  C   UNL     1      -3.073   1.740   0.621  0.00  0.00    +0.227 C 
ATOM      4  O   UNL     1      -2.807   2.760   0.021  0.00  0.00    -0.275 OA
ATOM      5  N   UNL     1      -2.103   1.072   1.277  0.00  0.00    -0.308 N 
ATOM      6  H   UNL     1      -2.344   0.147   1.821  0.00  0.00    +0.149 HD
BRANCH   5   7
ATOM      7  C   UNL     1      -0.729   1.579   1.267  0.00  0.00    +0.102 C 
ATOM      8  C   UNL     1      -0.013   1.086   0.008  0.00  0.00    +0.033 C 
BRANCH   7   9
ATOM      9  C   UNL     1       0.000   1.080   2.488  0.00  0.00    -0.009 A 
ATOM     10  C   UNL     1      -0.411  -0.084   3.110  0.00  0.00    +0.008 A 
ATOM     11  C   UNL     1       0.257  -0.543   4.230  0.00  0.00    +0.020 A 
ATOM     12  C   UNL     1       1.337   0.164   4.729  0.00  0.00    +0.042 A 
ATOM     13  C   UNL     1       1.749   1.329   4.107  0.00  0.00    +0.040 A 
ATOM     14  C   UNL     1       1.083   1.784   2.982  0.00  0.00    +0.047 A 
ATOM     15 CL   UNL     1       1.604   3.241   2.196  0.00  0.00    -0.083 Cl
ATOM     16 CL   UNL     1       2.176  -0.412   6.135  0.00  0.00    -0.083 Cl
ENDBRANCH   7   9
ENDBRANCH   5   7
ENDBRANCH   1   3
BRANCH   1  17
ATOM     17  S   UNL     1      -5.630   2.561   0.207  0.00  0.00    -0.073 S 
BRANCH  17  24
ATOM     18  C   UNL     1     -12.479   3.560  -0.191  0.00  0.00    +0.066 C 
ATOM     19  C   UNL     1     -11.040   3.140  -0.043  0.00  0.00    +0.044 A 
ATOM     20  C   UNL     1     -10.745   1.873   0.347  0.00  0.00    +0.071 A 
ATOM     21  C   UNL     1      -9.387   1.508   0.477  0.00  0.00    +0.165 A 
ATOM     22  N   UNL     1      -8.754   0.408   0.821  0.00  0.00    -0.128 NA
ATOM     23  N   UNL     1      -7.483   0.605   0.772  0.00  0.00    -0.122 NA
ATOM     24  C   UNL     1      -7.226   1.841   0.405  0.00  0.00    +0.198 A 
ATOM     25  N   UNL     1      -8.422   2.460   0.200  0.00  0.00    -0.258 N 
ATOM     26  C   UNL     1      -8.802   3.708  -0.186  0.00  0.00    +0.114 A 
ATOM     27  N   UNL     1     -10.063   4.020  -0.298  0.00  0.00    -0.239 NA
ATOM     28  C   UNL     1      -7.751   4.745  -0.488  0.00  0.00    +0.086 C 
ENDBRANCH  17  24
ENDBRANCH   1  17
TORSDOF 5
