REMARK  Name = ZINC49523471
REMARK  13 active torsions:
REMARK  status: ('A' for Active; 'I' for Inactive)
REMARK    1  A    between atoms: C_1  and  C_2
REMARK    2  A    between atoms: C_2  and  C_3
REMARK    3  A    between atoms: C_2  and  C_4
REMARK    4  A    between atoms: C_4  and  O_5
REMARK    5  A    between atoms: O_5  and  C_6
REMARK    6  A    between atoms: C_9  and  S_12
REMARK    7  A    between atoms: S_12  and  N_15
REMARK    8  A    between atoms: N_15  and  C_16
REMARK    9  A    between atoms: C_16  and  C_17
REMARK   10  A    between atoms: N_20  and  C_23
REMARK   11  A    between atoms: C_23  and  C_24
REMARK   12  A    between atoms: C_29  and  S_30
REMARK   13  A    between atoms: S_30  and  C_31
REMARK                            x       y       z     vdW  Elec       q    Type
REMARK                         _______ _______ _______ _____ _____    ______ ____
ROOT
ATOM      1  C   UNL     1      -9.180   0.568  -2.357  0.00  0.00    +0.109 C 
ENDROOT
BRANCH   1   2
ATOM      2  C   UNL     1     -10.275   1.417  -1.709  0.00  0.00    +0.001 C 
ATOM      3  C   UNL     1      -9.973   1.589  -0.217  0.00  0.00    -0.014 C 
ATOM      4  C   UNL     1     -11.028   2.504   0.409  0.00  0.00    -0.078 C 
ATOM      5  N   UNL     1     -10.998   3.814  -0.252  0.00  0.00    +0.382 N 
ATOM      6  C   UNL     1     -11.357   3.667  -1.668  0.00  0.00    -0.078 C 
ATOM      7  C   UNL     1     -10.315   2.796  -2.373  0.00  0.00    -0.014 C 
ATOM      8  H   UNL     1     -10.071   4.205  -0.180  0.00  0.00    -0.081 HD
BRANCH   5   9
ATOM      9  C   UNL     1     -11.958   4.713   0.403  0.00  0.00    -0.042 C 
BRANCH   9  10
ATOM     10  C   UNL     1     -11.826   6.098  -0.177  0.00  0.00    -0.051 A 
ATOM     11  C   UNL     1     -12.751   6.554  -1.095  0.00  0.00    +0.003 A 
ATOM     12  C   UNL     1     -12.631   7.824  -1.628  0.00  0.00    +0.000 A 
ATOM     13  C   UNL     1     -11.584   8.643  -1.244  0.00  0.00    +0.001 A 
ATOM     14  C   UNL     1     -10.655   8.194  -0.327  0.00  0.00    +0.015 A 
ATOM     15  C   UNL     1     -10.776   6.919   0.215  0.00  0.00    +0.009 A 
BRANCH  15  16
ATOM     16  S   UNL     1      -9.597   6.344   1.391  0.00  0.00    -0.128 S 
ATOM     17  C   UNL     1      -8.448   7.736   1.578  0.00  0.00    +0.090 C 
ENDBRANCH  15  16
ENDBRANCH   9  10
ENDBRANCH   5   9
ENDBRANCH   1   2
BRANCH   1  18
ATOM     18  N   UNL     1      -9.221  -0.788  -1.804  0.00  0.00    -0.190 NA
ATOM     19  H   UNL     1      -9.720  -0.965  -0.991  0.00  0.00    +0.148 HD
BRANCH  18  20
ATOM     20  S   UNL     1      -8.416  -2.018  -2.566  0.00  0.00    +0.058 S 
ATOM     21  O   UNL     1      -8.774  -1.949  -3.939  0.00  0.00    -0.153 OA
ATOM     22  O   UNL     1      -8.623  -3.186  -1.783  0.00  0.00    -0.153 OA
BRANCH  20  26
ATOM     23  C   UNL     1      -3.994  -1.071  -2.334  0.00  0.00    +0.121 A 
ATOM     24  C   UNL     1      -4.599  -1.813  -1.330  0.00  0.00    +0.047 A 
ATOM     25  C   UNL     1      -5.949  -2.100  -1.403  0.00  0.00    +0.032 A 
ATOM     26  C   UNL     1      -6.695  -1.650  -2.476  0.00  0.00    +0.105 A 
ATOM     27  C   UNL     1      -6.094  -0.911  -3.478  0.00  0.00    +0.032 A 
ATOM     28  C   UNL     1      -4.747  -0.615  -3.406  0.00  0.00    +0.047 A 
BRANCH  23  29
ATOM     29  O   UNL     1      -2.667  -0.787  -2.264  0.00  0.00    -0.492 OA
BRANCH  29  30
ATOM     30  C   UNL     1      -1.954  -1.289  -1.131  0.00  0.00    +0.232 C 
BRANCH  30  32
ATOM     31  C   UNL     1      -0.381   0.652  -1.128  0.00  0.00    +0.010 C 
ATOM     32  C   UNL     1      -0.486  -0.871  -1.226  0.00  0.00    +0.020 C 
ATOM     33  C   UNL     1       0.302  -1.511  -0.082  0.00  0.00    +0.010 C 
ENDBRANCH  30  32
ENDBRANCH  29  30
ENDBRANCH  23  29
ENDBRANCH  20  26
ENDBRANCH  18  20
ENDBRANCH   1  18
TORSDOF 10
