REMARK  Name = ZINC08792199
REMARK  5 active torsions:
REMARK  status: ('A' for Active; 'I' for Inactive)
REMARK    1  A    between atoms: C_4  and  C_7
REMARK    2  A    between atoms: C_7  and  N_8
REMARK    3  A    between atoms: C_9  and  C_11
REMARK    4  A    between atoms: C_11  and  O_12
REMARK    5  A    between atoms: O_12  and  C_13
REMARK                            x       y       z     vdW  Elec       q    Type
REMARK                         _______ _______ _______ _____ _____    ______ ____
ROOT
ATOM      1  C   UNL     1       0.102  -4.388   4.237  0.00  0.00    +0.122 A 
ATOM      2  C   UNL     1       0.103  -3.637   5.407  0.00  0.00    +0.048 A 
ATOM      3  C   UNL     1       0.122  -4.259   6.637  0.00  0.00    +0.030 A 
ATOM      4  C   UNL     1       0.140  -5.645   6.721  0.00  0.00    +0.058 A 
ATOM      5  C   UNL     1       0.140  -6.409   5.537  0.00  0.00    +0.012 A 
ATOM      6  C   UNL     1       0.116  -5.770   4.301  0.00  0.00    +0.056 A 
ATOM      7  C   UNL     1       0.161  -7.821   5.949  0.00  0.00    +0.012 A 
ATOM      8  C   UNL     1       0.173  -9.079   5.353  0.00  0.00    +0.030 A 
ATOM      9  C   UNL     1       0.191 -10.198   6.170  0.00  0.00    +0.112 A 
ATOM     10  N   UNL     1       0.195 -10.121   7.490  0.00  0.00    -0.253 NA
ATOM     11  C   UNL     1       0.184  -8.948   8.106  0.00  0.00    +0.096 A 
ATOM     12  C   UNL     1       0.169  -7.790   7.341  0.00  0.00    +0.084 A 
ATOM     13  N   UNL     1       0.160  -6.512   7.815  0.00  0.00    -0.274 N 
ATOM     14  C   UNL     1       0.171  -6.309   9.152  0.00  0.00    +0.264 A 
ATOM     15  O   UNL     1       0.173  -5.176   9.593  0.00  0.00    -0.267 OA
ATOM     16  C   UNL     1       0.182  -7.457  10.076  0.00  0.00    +0.049 A 
ATOM     17  C   UNL     1       0.186  -8.778   9.572  0.00  0.00    +0.015 A 
ATOM     18  C   UNL     1       0.191  -9.857  10.443  0.00  0.00    +0.011 A 
ATOM     19  C   UNL     1       0.193  -9.637  11.806  0.00  0.00    +0.001 A 
ATOM     20  C   UNL     1       0.192  -8.344  12.307  0.00  0.00    +0.001 A 
ATOM     21  C   UNL     1       0.186  -7.259  11.457  0.00  0.00    +0.014 A 
ENDROOT
BRANCH   1  22
ATOM     22  O   UNL     1       0.082  -3.765   3.030  0.00  0.00    -0.483 OA
BRANCH  22  23
ATOM     23  C   UNL     1       0.063  -2.336   3.037  0.00  0.00    +0.324 C 
BRANCH  23  25
ATOM     24  N   UNL     1       0.022  -0.500   1.381  0.00  0.00    -0.308 N 
ATOM     25  C   UNL     1       0.042  -1.826   1.619  0.00  0.00    +0.251 C 
ATOM     26  O   UNL     1       0.044  -2.609   0.693  0.00  0.00    -0.272 OA
ATOM     27  H   UNL     1       0.020   0.127   2.121  0.00  0.00    +0.149 HD
BRANCH  24  28
ATOM     28  C   UNL     1       0.002  -0.004   0.002  0.00  0.00    +0.139 C 
BRANCH  28  32
ATOM     29  C   UNL     1      -0.056   4.267   0.025  0.00  0.00    +0.000 A 
ATOM     30  C   UNL     1       1.151   3.592   0.010  0.00  0.00    +0.000 A 
ATOM     31  C   UNL     1       1.169   2.210   0.003  0.00  0.00    +0.005 A 
ATOM     32  C   UNL     1      -0.018   1.503   0.010  0.00  0.00    -0.030 A 
ATOM     33  C   UNL     1      -1.225   2.178   0.020  0.00  0.00    +0.005 A 
ATOM     34  C   UNL     1      -1.244   3.560   0.032  0.00  0.00    +0.000 A 
ENDBRANCH  28  32
ENDBRANCH  24  28
ENDBRANCH  23  25
ENDBRANCH  22  23
ENDBRANCH   1  22
TORSDOF 5
