REMARK  Name = ZINC09542721
REMARK  7 active torsions:
REMARK  status: ('A' for Active; 'I' for Inactive)
REMARK    1  A    between atoms: C_1  and  C_2
REMARK    2  A    between atoms: C_2  and  O_3
REMARK    3  A    between atoms: O_3  and  C_4
REMARK    4  A    between atoms: C_7  and  C_10
REMARK    5  A    between atoms: C_12  and  C_25
REMARK    6  A    between atoms: C_14  and  C_17
REMARK    7  A    between atoms: C_22  and  O_23
REMARK                            x       y       z     vdW  Elec       q    Type
REMARK                         _______ _______ _______ _____ _____    ______ ____
ROOT
ATOM      1  C   UNL     1      -2.500   1.008   0.019  0.00  0.00    +0.040 C 
ATOM      2  N   UNL     1      -2.451  -0.272   0.007  0.00  0.00    -0.299 NA
ATOM      3  C   UNL     1      -3.626  -1.135   0.022  0.00  0.00    +0.081 C 
ATOM      4  C   UNL     1      -4.941   0.847   0.420  0.00  0.00    -0.028 C 
ATOM      5  C   UNL     1      -3.790   1.780   0.030  0.00  0.00    +0.044 C 
ATOM      6  N   UNL     1      -4.827  -0.388  -0.380  0.00  0.00    +0.401 N 
ATOM      7  H   UNL     1      -5.658  -0.971  -0.227  0.00  0.00    -0.081 HD
ATOM      8  H   UNL     1      -4.758  -0.144  -1.375  0.00  0.00    -0.081 HD
ENDROOT
BRANCH   4   9
ATOM      9  C   UNL     1      -6.259   1.517   0.129  0.00  0.00    -0.018 A 
ATOM     10  C   UNL     1      -6.956   1.200  -1.021  0.00  0.00    +0.025 A 
ATOM     11  C   UNL     1      -8.169   1.811  -1.286  0.00  0.00    +0.041 A 
ATOM     12  C   UNL     1      -8.681   2.748  -0.406  0.00  0.00    +0.023 A 
ATOM     13  C   UNL     1      -7.984   3.071   0.742  0.00  0.00    +0.047 A 
ATOM     14  C   UNL     1      -6.771   2.456   1.013  0.00  0.00    +0.119 A 
ATOM     15 CL   UNL     1      -9.046   1.407  -2.729  0.00  0.00    -0.084 Cl
BRANCH  14  16
ATOM     16  O   UNL     1      -6.084   2.772   2.142  0.00  0.00    -0.507 OA
ATOM     17  H   UNL     1      -5.463   3.506   2.032  0.00  0.00    +0.292 HD
ENDBRANCH  14  16
ENDBRANCH   4   9
BRANCH   3  18
ATOM     18  C   UNL     1      -3.825  -1.686   1.411  0.00  0.00    -0.038 A 
ATOM     19  C   UNL     1      -5.095  -2.005   1.853  0.00  0.00    +0.004 A 
ATOM     20  C   UNL     1      -5.279  -2.514   3.124  0.00  0.00    +0.003 A 
ATOM     21  C   UNL     1      -4.192  -2.696   3.960  0.00  0.00    +0.038 A 
ATOM     22  C   UNL     1      -2.920  -2.373   3.520  0.00  0.00    +0.124 A 
ATOM     23  C   UNL     1      -2.737  -1.867   2.244  0.00  0.00    +0.042 A 
ATOM     24  F   UNL     1      -1.858  -2.550   4.336  0.00  0.00    -0.205 F 
ENDBRANCH   3  18
BRANCH   1  28
ATOM     25  C   UNL     1       1.152   3.171   0.008  0.00  0.00    +0.121 A 
ATOM     26  C   UNL     1       1.170   1.782   0.001  0.00  0.00    +0.046 A 
ATOM     27  C   UNL     1      -0.013   1.076   0.008  0.00  0.00    +0.013 A 
ATOM     28  C   UNL     1      -1.232   1.759   0.017  0.00  0.00    -0.004 A 
ATOM     29  C   UNL     1      -1.245   3.156   0.030  0.00  0.00    +0.013 A 
ATOM     30  C   UNL     1      -0.058   3.854   0.023  0.00  0.00    +0.046 A 
BRANCH  25  31
ATOM     31  O   UNL     1       2.321   3.863   0.001  0.00  0.00    -0.492 OA
BRANCH  31  33
ATOM     32  C   UNL     1       3.637   5.890  -0.001  0.00  0.00    +0.048 C 
ATOM     33  C   UNL     1       2.230   5.289   0.009  0.00  0.00    +0.225 C 
ENDBRANCH  31  33
ENDBRANCH  25  31
ENDBRANCH   1  28
TORSDOF 6
