REMARK  Name = ZINC22243102
REMARK  8 active torsions:
REMARK  status: ('A' for Active; 'I' for Inactive)
REMARK    1  A    between atoms: C_1  and  C_2
REMARK    2  A    between atoms: C_4  and  C_26
REMARK    3  A    between atoms: C_5  and  C_9
REMARK    4  A    between atoms: C_7  and  C_8
REMARK    5  A    between atoms: N_14  and  C_15
REMARK    6  A    between atoms: C_15  and  C_17
REMARK    7  A    between atoms: C_17  and  N_18
REMARK    8  A    between atoms: C_22  and  C_25
REMARK                            x       y       z     vdW  Elec       q    Type
REMARK                         _______ _______ _______ _____ _____    ______ ____
ROOT
ATOM      1  C   UNL     1      -1.206   2.207   0.494  0.00  0.00    +0.055 A 
ATOM      2  C   UNL     1      -2.404   1.563   0.630  0.00  0.00    +0.074 A 
ATOM      3  S   UNL     1      -3.495   2.952   0.913  0.00  0.00    -0.060 S 
ATOM      4  C   UNL     1      -2.253   4.234   0.813  0.00  0.00    +0.163 A 
ATOM      5  N   UNL     1      -1.162   3.527   0.586  0.00  0.00    -0.335 N 
ATOM      6  N   UNL     1      -2.399   5.610   0.940  0.00  0.00    -0.155 NA
ATOM      7  H   UNL     1      -0.204   4.055   0.474  0.00  0.00    +0.168 HD
ENDROOT
BRANCH   1  12
ATOM      8  C   UNL     1       3.604  -0.797  -0.513  0.00  0.00    +0.044 C 
ATOM      9  C   UNL     1       2.346  -0.011  -0.248  0.00  0.00    -0.047 A 
ATOM     10  C   UNL     1       2.376   1.372  -0.285  0.00  0.00    +0.007 A 
ATOM     11  C   UNL     1       1.227   2.097  -0.043  0.00  0.00    -0.041 A 
ATOM     12  C   UNL     1       0.034   1.433   0.239  0.00  0.00    +0.002 A 
ATOM     13  C   UNL     1       0.009   0.040   0.275  0.00  0.00    +0.013 A 
ATOM     14  C   UNL     1       1.165  -0.675   0.031  0.00  0.00    -0.047 A 
ATOM     15  C   UNL     1       1.139  -2.181   0.069  0.00  0.00    +0.044 C 
ATOM     16  C   UNL     1       1.262   3.603  -0.084  0.00  0.00    +0.044 C 
ENDBRANCH   1  12
BRANCH   6  17
ATOM     17  C   UNL     1      -3.615   6.141   1.173  0.00  0.00    +0.252 C 
ATOM     18  O   UNL     1      -4.584   5.417   1.272  0.00  0.00    -0.272 OA
BRANCH  17  19
ATOM     19  C   UNL     1      -3.773   7.633   1.311  0.00  0.00    +0.182 C 
BRANCH  19  20
ATOM     20  N   UNL     1      -5.185   7.956   1.559  0.00  0.00    -0.289 NA
ATOM     21  C   UNL     1      -5.623   7.436   2.862  0.00  0.00    +0.113 C 
ATOM     22  C   UNL     1      -7.111   7.741   3.054  0.00  0.00    +0.175 C 
ATOM     23  O   UNL     1      -7.322   9.150   2.934  0.00  0.00    -0.374 OA
ATOM     24  C   UNL     1      -6.907   9.690   1.677  0.00  0.00    +0.129 C 
ATOM     25  C   UNL     1      -5.417   9.405   1.472  0.00  0.00    +0.116 C 
ATOM     26  C   UNL     1      -7.144  11.202   1.666  0.00  0.00    +0.039 C 
ENDBRANCH  19  20
ENDBRANCH  17  19
ENDBRANCH   6  17
TORSDOF 4
