REMARK  Name = ZINC20680074
REMARK  7 active torsions:
REMARK  status: ('A' for Active; 'I' for Inactive)
REMARK    1  A    between atoms: C_1  and  O_2
REMARK    2  A    between atoms: O_2  and  C_3
REMARK    3  A    between atoms: C_3  and  C_4
REMARK    4  A    between atoms: C_4  and  O_5
REMARK    5  A    between atoms: O_5  and  C_6
REMARK    6  A    between atoms: C_19  and  C_22
REMARK    7  A    between atoms: C_25  and  O_28
REMARK                            x       y       z     vdW  Elec       q    Type
REMARK                         _______ _______ _______ _____ _____    ______ ____
ROOT
ATOM      1  C   UNL     1       1.277   5.330  -1.369  0.00  0.00    +0.121 A 
ATOM      2  C   UNL     1       2.584   5.471  -1.811  0.00  0.00    +0.047 A 
ATOM      3  C   UNL     1       3.476   4.426  -1.680  0.00  0.00    +0.027 A 
ATOM      4  C   UNL     1       3.074   3.227  -1.105  0.00  0.00    +0.032 A 
ATOM      5  C   UNL     1       1.758   3.094  -0.647  0.00  0.00    -0.016 A 
ATOM      6  C   UNL     1       0.870   4.138  -0.788  0.00  0.00    +0.051 A 
ATOM      7  C   UNL     1       1.385   1.817  -0.001  0.00  0.00    +0.049 C 
ATOM      8  C   UNL     1      -0.016   1.323   0.009  0.00  0.00    -0.023 C 
ATOM      9  C   UNL     1       0.002  -0.004   0.002  0.00  0.00    -0.030 C 
ATOM     10  C   UNL     1       1.446  -0.507  -0.049  0.00  0.00    +0.033 C 
ATOM     11  C   UNL     1       2.161   0.673  -0.721  0.00  0.00    +0.029 C 
ATOM     12  C   UNL     1       3.622   0.890  -0.369  0.00  0.00    +0.105 C 
ATOM     13  N   UNL     1       3.996   2.175  -0.998  0.00  0.00    -0.336 N 
ATOM     14  H   UNL     1       5.013   2.319  -1.392  0.00  0.00    +0.147 HD
ENDROOT
BRANCH  12  15
ATOM     15  C   UNL     1       4.463  -0.228  -0.928  0.00  0.00    -0.027 A 
ATOM     16  C   UNL     1       4.823  -0.220  -2.263  0.00  0.00    +0.009 A 
ATOM     17  C   UNL     1       5.599  -1.241  -2.776  0.00  0.00    +0.046 A 
ATOM     18  C   UNL     1       6.009  -2.281  -1.954  0.00  0.00    +0.117 A 
ATOM     19  C   UNL     1       5.642  -2.289  -0.616  0.00  0.00    +0.046 A 
ATOM     20  C   UNL     1       4.870  -1.264  -0.106  0.00  0.00    +0.009 A 
BRANCH  18  21
ATOM     21  O   UNL     1       6.768  -3.289  -2.458  0.00  0.00    -0.507 OA
ATOM     22  H   UNL     1       7.092  -4.113  -1.805  0.00  0.00    +0.292 HD
ENDBRANCH  18  21
ENDBRANCH  12  15
BRANCH   1  23
ATOM     23  O   UNL     1       0.396   6.357  -1.506  0.00  0.00    -0.490 OA
BRANCH  23  24
ATOM     24  C   UNL     1       0.886   7.554  -2.114  0.00  0.00    +0.257 C 
BRANCH  24  25
ATOM     25  C   UNL     1      -0.239   8.589  -2.181  0.00  0.00    +0.200 C 
BRANCH  25  27
ATOM     26  C   UNL     1      -1.669   9.934  -0.805  0.00  0.00    +0.194 C 
ATOM     27  O   UNL     1      -0.619   8.966  -0.856  0.00  0.00    -0.380 OA
ENDBRANCH  25  27
ENDBRANCH  24  25
ENDBRANCH  23  24
ENDBRANCH   1  23
TORSDOF 6
