REMARK  Name = ZINC19503415
REMARK  9 active torsions:
REMARK  status: ('A' for Active; 'I' for Inactive)
REMARK    1  A    between atoms: C_1  and  C_2
REMARK    2  A    between atoms: C_2  and  C_3
REMARK    3  A    between atoms: C_3  and  N_4
REMARK    4  A    between atoms: N_7  and  C_10
REMARK    5  A    between atoms: C_10  and  C_12
REMARK    6  A    between atoms: C_10  and  C_26
REMARK    7  A    between atoms: C_16  and  C_25
REMARK    8  A    between atoms: C_18  and  C_24
REMARK    9  A    between atoms: N_30  and  C_31
REMARK                            x       y       z     vdW  Elec       q    Type
REMARK                         _______ _______ _______ _____ _____    ______ ____
ROOT
ATOM      1  C   UNL     1      -1.445   3.591  -2.413  0.00  0.00    +0.162 C 
ENDROOT
BRANCH   1   2
ATOM      2  C   UNL     1      -1.591   5.086  -2.291  0.00  0.00    +0.042 A 
ATOM      3  C   UNL     1      -1.164   5.891  -3.296  0.00  0.00    +0.021 A 
ATOM      4  C   UNL     1      -1.325   7.338  -3.149  0.00  0.00    -0.001 A 
ATOM      5  C   UNL     1      -0.908   8.218  -4.153  0.00  0.00    +0.013 A 
ATOM      6  C   UNL     1      -1.067   9.564  -3.983  0.00  0.00    -0.050 A 
ATOM      7  C   UNL     1      -1.639  10.067  -2.822  0.00  0.00    +0.008 A 
ATOM      8  C   UNL     1      -2.058   9.219  -1.820  0.00  0.00    -0.026 A 
ATOM      9  C   UNL     1      -1.906   7.844  -1.971  0.00  0.00    +0.052 A 
ATOM     10  N   UNL     1      -2.315   6.972  -0.984  0.00  0.00    -0.322 N 
ATOM     11  H   UNL     1      -2.769   7.361  -0.061  0.00  0.00    +0.169 HD
ATOM     12  C   UNL     1      -2.167   5.644  -1.130  0.00  0.00    +0.254 A 
ATOM     13  O   UNL     1      -2.540   4.903  -0.237  0.00  0.00    -0.268 OA
ATOM     14  C   UNL     1      -2.678   9.778  -0.565  0.00  0.00    +0.046 C 
ATOM     15  C   UNL     1      -0.617  10.512  -5.064  0.00  0.00    +0.044 C 
ENDBRANCH   1   2
BRANCH   1  19
ATOM     16  N   UNL     1       1.329   1.655   0.118  0.00  0.00    +0.381 N 
ATOM     17  C   UNL     1       1.294   3.124   0.130  0.00  0.00    -0.063 C 
ATOM     18  C   UNL     1       0.621   3.626  -1.149  0.00  0.00    +0.067 C 
ATOM     19  N   UNL     1      -0.737   3.071  -1.235  0.00  0.00    -0.292 NA
ATOM     20  C   UNL     1      -0.703   1.602  -1.248  0.00  0.00    +0.067 C 
ATOM     21  C   UNL     1      -0.029   1.099   0.032  0.00  0.00    -0.063 C 
ATOM     22  H   UNL     1       1.884   1.335  -0.776  0.00  0.00    -0.082 HD
BRANCH  16  23
ATOM     23  C   UNL     1       2.036   1.135   1.296  0.00  0.00    -0.079 C 
BRANCH  23  25
ATOM     24  C   UNL     1       2.576  -0.921   2.610  0.00  0.00    +0.002 C 
ATOM     25  C   UNL     1       1.839  -0.380   1.383  0.00  0.00    -0.022 C 
ENDBRANCH  23  25
ENDBRANCH  16  23
ENDBRANCH   1  19
BRANCH   1  26
ATOM     26  C   UNL     1      -2.809   2.958  -2.499  0.00  0.00    +0.173 A 
ATOM     27  N   UNL     1      -3.656   2.785  -1.513  0.00  0.00    -0.111 NA
ATOM     28  N   UNL     1      -4.708   2.213  -1.988  0.00  0.00    -0.023 NA
ATOM     29  N   UNL     1      -4.552   2.009  -3.249  0.00  0.00    -0.044 NA
ATOM     30  N   UNL     1      -3.394   2.455  -3.602  0.00  0.00    -0.224 N 
BRANCH  30  31
ATOM     31  C   UNL     1      -2.822   2.420  -4.951  0.00  0.00    +0.111 C 
ATOM     32  C   UNL     1      -3.724   3.202  -5.907  0.00  0.00    +0.027 C 
ATOM     33  C   UNL     1      -3.127   3.165  -7.316  0.00  0.00    +0.002 C 
ATOM     34  C   UNL     1      -3.021   1.714  -7.787  0.00  0.00    +0.000 C 
ATOM     35  C   UNL     1      -2.119   0.931  -6.830  0.00  0.00    +0.002 C 
ATOM     36  C   UNL     1      -2.716   0.968  -5.422  0.00  0.00    +0.027 C 
ENDBRANCH  30  31
ENDBRANCH   1  26
TORSDOF 6
