REMARK  Name = ZINC23322616
REMARK  8 active torsions:
REMARK  status: ('A' for Active; 'I' for Inactive)
REMARK    1  A    between atoms: C_1  and  C_2
REMARK    2  A    between atoms: N_4  and  C_5
REMARK    3  A    between atoms: C_5  and  C_7
REMARK    4  A    between atoms: C_5  and  C_18
REMARK    5  A    between atoms: C_7  and  C_8
REMARK    6  A    between atoms: N_20  and  C_21
REMARK    7  A    between atoms: C_25  and  S_27
REMARK    8  A    between atoms: S_27  and  N_30
REMARK                            x       y       z     vdW  Elec       q    Type
REMARK                         _______ _______ _______ _____ _____    ______ ____
ROOT
ATOM      1  C   UNL     1       3.850  -4.052  -3.961  0.00  0.00    +0.238 C 
ATOM      2  O   UNL     1       4.638  -3.320  -4.523  0.00  0.00    -0.273 OA
ATOM      3  N   UNL     1       3.496  -3.807  -2.684  0.00  0.00    -0.284 N 
ATOM      4  H   UNL     1       2.849  -4.517  -2.147  0.00  0.00    +0.155 HD
ENDROOT
BRANCH   3   5
ATOM      5  C   UNL     1       3.950  -2.651  -2.041  0.00  0.00    +0.035 A 
ATOM      6  C   UNL     1       4.136  -1.480  -2.765  0.00  0.00    +0.023 A 
ATOM      7  C   UNL     1       4.585  -0.340  -2.127  0.00  0.00    +0.004 A 
ATOM      8  C   UNL     1       4.851  -0.364  -0.770  0.00  0.00    +0.028 A 
ATOM      9  C   UNL     1       4.667  -1.528  -0.047  0.00  0.00    +0.107 A 
ATOM     10  C   UNL     1       4.222  -2.672  -0.680  0.00  0.00    +0.051 A 
BRANCH   9  11
ATOM     11  S   UNL     1       5.007  -1.553   1.681  0.00  0.00    +0.061 S 
ATOM     12  O   UNL     1       5.936  -0.506   1.928  0.00  0.00    -0.153 OA
ATOM     13  O   UNL     1       5.276  -2.906   2.022  0.00  0.00    -0.153 OA
BRANCH  11  14
ATOM     14  N   UNL     1       3.607  -1.138   2.462  0.00  0.00    -0.177 NA
ATOM     15  C   UNL     1       2.639  -2.168   2.863  0.00  0.00    +0.109 C 
ATOM     16  C   UNL     1       1.263  -1.797   2.302  0.00  0.00    +0.017 C 
ATOM     17  C   UNL     1       0.897  -0.382   2.753  0.00  0.00    +0.003 C 
ATOM     18  C   UNL     1       1.925   0.612   2.207  0.00  0.00    +0.017 C 
ATOM     19  C   UNL     1       3.309   0.268   2.768  0.00  0.00    +0.109 C 
ENDBRANCH  11  14
ENDBRANCH   9  11
ENDBRANCH   3   5
BRANCH   1  20
ATOM     20  C   UNL     1       3.266  -5.233  -4.692  0.00  0.00    +0.163 C 
BRANCH  20  24
ATOM     21  C   UNL     1       4.768  -4.673  -8.169  0.00  0.00    +0.109 C 
ATOM     22  C   UNL     1       4.626  -4.882  -6.683  0.00  0.00    +0.211 C 
ATOM     23  O   UNL     1       5.613  -4.915  -5.979  0.00  0.00    -0.276 OA
ATOM     24  N   UNL     1       3.403  -5.031  -6.137  0.00  0.00    -0.304 N 
ATOM     25  H   UNL     1       2.508  -5.000  -6.775  0.00  0.00    +0.149 HD
ENDBRANCH  20  24
BRANCH  20  26
ATOM     26  C   UNL     1       4.011  -6.505  -4.282  0.00  0.00    +0.069 C 
BRANCH  26  27
ATOM     27  C   UNL     1       3.350  -7.701  -4.918  0.00  0.00    -0.020 A 
ATOM     28  C   UNL     1       2.421  -8.491  -4.357  0.00  0.00    +0.087 A 
ATOM     29  N   UNL     1       2.054  -9.476  -5.234  0.00  0.00    -0.360 N 
ATOM     30  H   UNL     1       1.298 -10.219  -4.942  0.00  0.00    +0.165 HD
ATOM     31  C   UNL     1       2.757  -9.339  -6.410  0.00  0.00    +0.047 A 
ATOM     32  C   UNL     1       3.595  -8.219  -6.266  0.00  0.00    +0.003 A 
ATOM     33  C   UNL     1       4.438  -7.840  -7.312  0.00  0.00    +0.010 A 
ATOM     34  C   UNL     1       4.436  -8.554  -8.477  0.00  0.00    +0.001 A 
ATOM     35  C   UNL     1       3.607  -9.657  -8.627  0.00  0.00    +0.002 A 
ATOM     36  C   UNL     1       2.772 -10.052  -7.605  0.00  0.00    +0.026 A 
ENDBRANCH  26  27
ENDBRANCH  20  26
ENDBRANCH   1  20
TORSDOF 7
