REMARK  Name = ZINC14309886
REMARK  5 active torsions:
REMARK  status: ('A' for Active; 'I' for Inactive)
REMARK    1  A    between atoms: C_1  and  O_2
REMARK    2  A    between atoms: O_2  and  C_3
REMARK    3  A    between atoms: C_9  and  O_22
REMARK    4  A    between atoms: C_10  and  C_13
REMARK    5  A    between atoms: C_13  and  N_42
REMARK                            x       y       z     vdW  Elec       q    Type
REMARK                         _______ _______ _______ _____ _____    ______ ____
ROOT
ATOM      1  C   UNL     1       1.161   2.092   0.002  0.00  0.00    +0.121 A 
ATOM      2  C   UNL     1       2.387   1.420  -0.012  0.00  0.00    +0.046 A 
ATOM      3  C   UNL     1       2.439   0.061  -0.020  0.00  0.00    +0.012 A 
ATOM      4  C   UNL     1       1.246  -0.683  -0.013  0.00  0.00    -0.017 A 
ATOM      5  C   UNL     1       1.266  -2.089  -0.022  0.00  0.00    +0.012 A 
ATOM      6  C   UNL     1       0.095  -2.780  -0.016  0.00  0.00    +0.046 A 
ATOM      7  C   UNL     1      -1.134  -2.113   0.000  0.00  0.00    +0.119 A 
ATOM      8  C   UNL     1      -1.190  -0.748   0.009  0.00  0.00    -0.015 A 
ATOM      9  C   UNL     1       0.002  -0.004   0.002  0.00  0.00    -0.010 A 
ATOM     10  C   UNL     1      -0.017   1.401   0.010  0.00  0.00    +0.054 A 
ENDROOT
BRANCH   1  12
ATOM     11  C   UNL     1       2.405   4.118   0.001  0.00  0.00    +0.277 C 
ATOM     12  O   UNL     1       1.141   3.451   0.009  0.00  0.00    -0.495 OA
ENDBRANCH   1  12
BRANCH   7  13
ATOM     13  O   UNL     1      -2.287  -2.831   0.007  0.00  0.00    -0.507 OA
ATOM     14  H   UNL     1      -2.612  -3.044   0.892  0.00  0.00    +0.292 HD
ENDBRANCH   7  13
BRANCH   8  15
ATOM     15  C   UNL     1      -2.522  -0.044   0.026  0.00  0.00    -0.038 C 
BRANCH  15  24
ATOM     16  C   UNL     1      -4.119   1.107  -1.385  0.00  0.00    -0.073 C 
ATOM     17  C   UNL     1      -4.286   1.644  -2.817  0.00  0.00    +0.024 C 
ATOM     18  C   UNL     1      -4.188   0.483  -3.752  0.00  0.00    -0.011 A 
ATOM     19  C   UNL     1      -3.731  -0.765  -3.455  0.00  0.00    -0.054 A 
ATOM     20  C   UNL     1      -3.734  -1.693  -4.494  0.00  0.00    +0.009 A 
ATOM     21  C   UNL     1      -4.177  -1.333  -5.722  0.00  0.00    +0.045 A 
ATOM     22  S   UNL     1      -4.622   0.379  -5.466  0.00  0.00    -0.101 S 
ATOM     23  C   UNL     1      -3.251  -1.074  -2.040  0.00  0.00    -0.042 C 
ATOM     24  N   UNL     1      -2.939   0.209  -1.367  0.00  0.00    +0.385 N 
ATOM     25  H   UNL     1      -2.168   0.666  -1.868  0.00  0.00    -0.081 HD
ENDBRANCH  15  24
ENDBRANCH   8  15
TORSDOF 4
