REMARK  Name = ZINC06602466
REMARK  7 active torsions:
REMARK  status: ('A' for Active; 'I' for Inactive)
REMARK    1  A    between atoms: C_1  and  S_2
REMARK    2  A    between atoms: S_2  and  C_3
REMARK    3  A    between atoms: C_6  and  C_9
REMARK    4  A    between atoms: C_10  and  C_11
REMARK    5  A    between atoms: N_13  and  C_14
REMARK    6  A    between atoms: C_14  and  C_15
REMARK    7  A    between atoms: N_17  and  C_18
REMARK                            x       y       z     vdW  Elec       q    Type
REMARK                         _______ _______ _______ _____ _____    ______ ____
ROOT
ATOM      1  C   UNL     1      -3.707   1.407  -0.007  0.00  0.00    +0.237 C 
ATOM      2  O   UNL     1      -3.946   2.601  -0.004  0.00  0.00    -0.271 OA
ATOM      3  N   UNL     1      -2.430   0.976  -0.004  0.00  0.00    -0.303 N 
ATOM      4  H   UNL     1      -2.239   0.025  -0.006  0.00  0.00    +0.149 HD
ENDROOT
BRANCH   1   6
ATOM      5  C   UNL     1      -6.084   0.875  -0.014  0.00  0.00    +0.013 C 
ATOM      6  C   UNL     1      -4.804   0.442  -0.012  0.00  0.00    +0.068 C 
BRANCH   5  10
ATOM      7  C   UNL     1      -9.261  -1.920  -0.030  0.00  0.00    +0.008 A 
ATOM      8  C   UNL     1      -9.537  -0.554  -0.027  0.00  0.00    +0.015 A 
ATOM      9  C   UNL     1      -8.514   0.351  -0.022  0.00  0.00    +0.009 A 
ATOM     10  C   UNL     1      -7.187  -0.095  -0.019  0.00  0.00    -0.025 A 
ATOM     11  C   UNL     1      -6.914  -1.469  -0.028  0.00  0.00    +0.009 A 
ATOM     12  C   UNL     1      -7.942  -2.368  -0.028  0.00  0.00    +0.015 A 
BRANCH   7  14
ATOM     13  C   UNL     1      -9.752  -4.695  -0.039  0.00  0.00    +0.090 C 
ATOM     14  S   UNL     1     -10.585  -3.083  -0.037  0.00  0.00    -0.129 S 
ENDBRANCH   7  14
ENDBRANCH   5  10
ENDBRANCH   1   6
BRANCH   3  15
ATOM     15  C   UNL     1      -1.330   1.944   0.001  0.00  0.00    +0.200 C 
BRANCH  15  16
ATOM     16  C   UNL     1      -0.014   1.208   0.002  0.00  0.00    +0.234 C 
ATOM     17  O   UNL     1       0.003  -0.004  -0.001  0.00  0.00    -0.274 OA
ATOM     18  N   UNL     1       1.143   1.898   0.001  0.00  0.00    -0.283 N 
ATOM     19  H   UNL     1       1.131   2.866  -0.062  0.00  0.00    +0.155 HD
BRANCH  18  20
ATOM     20  C   UNL     1       2.364   1.218   0.092  0.00  0.00    +0.053 A 
ATOM     21  C   UNL     1       2.513  -0.025  -0.508  0.00  0.00    +0.044 A 
ATOM     22  C   UNL     1       3.721  -0.692  -0.421  0.00  0.00    +0.043 A 
ATOM     23  C   UNL     1       4.777  -0.125   0.271  0.00  0.00    +0.021 A 
ATOM     24  C   UNL     1       4.630   1.110   0.874  0.00  0.00    +0.023 A 
ATOM     25  C   UNL     1       3.426   1.784   0.786  0.00  0.00    +0.062 A 
ATOM     26 CL   UNL     1       3.242   3.336   1.543  0.00  0.00    -0.082 Cl
ATOM     27 CL   UNL     1       3.911  -2.244  -1.175  0.00  0.00    -0.083 Cl
ENDBRANCH  18  20
ENDBRANCH  15  16
ENDBRANCH   3  15
TORSDOF 6
