REMARK  Name = ZINC00985836
REMARK  10 active torsions:
REMARK  status: ('A' for Active; 'I' for Inactive)
REMARK    1  A    between atoms: C_1  and  C_2
REMARK    2  A    between atoms: C_2  and  C_3
REMARK    3  A    between atoms: C_2  and  C_4
REMARK    4  A    between atoms: C_4  and  C_5
REMARK    5  A    between atoms: C_8  and  C_11
REMARK    6  A    between atoms: C_18  and  N_32
REMARK    7  A    between atoms: C_19  and  C_30
REMARK    8  A    between atoms: C_20  and  C_22
REMARK    9  A    between atoms: C_25  and  S_28
REMARK   10  A    between atoms: S_28  and  C_29
REMARK                            x       y       z     vdW  Elec       q    Type
REMARK                         _______ _______ _______ _____ _____    ______ ____
ROOT
ATOM      1  C   UNL     1      -4.346   0.949  -5.188  0.00  0.00    +0.100 A 
ATOM      2  C   UNL     1      -3.651   0.761  -6.387  0.00  0.00    +0.054 A 
ATOM      3  C   UNL     1      -4.430   1.230  -7.405  0.00  0.00    +0.223 A 
ATOM      4  N   UNL     1      -5.575   1.695  -6.864  0.00  0.00    -0.246 N 
ATOM      5  H   UNL     1      -6.317   2.087  -7.351  0.00  0.00    +0.192 HD
ATOM      6  N   UNL     1      -5.507   1.507  -5.475  0.00  0.00    -0.171 NA
ATOM      7  O   UNL     1      -4.038   1.195  -8.703  0.00  0.00    -0.423 OA
ATOM      8  C   UNL     1      -2.739   0.936  -8.956  0.00  0.00    +0.200 C 
ATOM      9  C   UNL     1      -1.874   0.457  -8.034  0.00  0.00    +0.098 C 
ATOM     10  C   UNL     1      -2.289   0.159  -6.615  0.00  0.00    +0.102 C 
ENDROOT
BRANCH   1  14
ATOM     11  C   UNL     1      -2.969  -0.109  -1.306  0.00  0.00    -0.047 A 
ATOM     12  C   UNL     1      -4.282  -0.356  -1.662  0.00  0.00    +0.004 A 
ATOM     13  C   UNL     1      -4.735  -0.014  -2.921  0.00  0.00    +0.010 A 
ATOM     14  C   UNL     1      -3.865   0.580  -3.833  0.00  0.00    +0.003 A 
ATOM     15  C   UNL     1      -2.543   0.827  -3.469  0.00  0.00    +0.010 A 
ATOM     16  C   UNL     1      -2.103   0.486  -2.206  0.00  0.00    +0.004 A 
BRANCH  11  17
ATOM     17  C   UNL     1      -2.481  -0.483   0.070  0.00  0.00    +0.038 C 
BRANCH  17  19
ATOM     18  C   UNL     1      -4.200   0.947   1.184  0.00  0.00    +0.007 C 
ATOM     19  C   UNL     1      -2.700   0.691   1.026  0.00  0.00    -0.013 C 
ATOM     20  C   UNL     1      -2.093   0.358   2.390  0.00  0.00    +0.007 C 
ENDBRANCH  17  19
ENDBRANCH  11  17
ENDBRANCH   1  14
BRANCH  10  21
ATOM     21  C   UNL     1      -2.350  -1.332  -6.405  0.00  0.00    -0.034 A 
ATOM     22  C   UNL     1      -3.248  -2.095  -7.130  0.00  0.00    +0.005 A 
ATOM     23  C   UNL     1      -3.307  -3.461  -6.940  0.00  0.00    +0.015 A 
ATOM     24  C   UNL     1      -2.462  -4.070  -6.019  0.00  0.00    +0.008 A 
ATOM     25  C   UNL     1      -1.561  -3.301  -5.293  0.00  0.00    +0.015 A 
ATOM     26  C   UNL     1      -1.504  -1.935  -5.492  0.00  0.00    +0.005 A 
BRANCH  24  27
ATOM     27  S   UNL     1      -2.534  -5.813  -5.773  0.00  0.00    -0.129 S 
ATOM     28  C   UNL     1      -1.275  -6.130  -4.507  0.00  0.00    +0.090 C 
ENDBRANCH  24  27
ENDBRANCH  10  21
BRANCH   8  29
ATOM     29  N   UNL     1      -2.268   1.171 -10.223  0.00  0.00    -0.328 N 
ATOM     30  H   UNL     1      -2.864   1.515 -10.907  0.00  0.00    +0.145 HD
ATOM     31  H   UNL     1      -1.338   0.994 -10.436  0.00  0.00    +0.145 HD
ENDBRANCH   8  29
BRANCH   9  32
ATOM     32  C   UNL     1      -0.515   0.224  -8.419  0.00  0.00    +0.101 C 
ATOM     33  N   UNL     1       0.564   0.039  -8.725  0.00  0.00    -0.191 NA
ENDBRANCH   9  32
TORSDOF 7
