REMARK  Name = ZINC00664506
REMARK  9 active torsions:
REMARK  status: ('A' for Active; 'I' for Inactive)
REMARK    1  A    between atoms: C_1  and  C_2
REMARK    2  A    between atoms: C_4  and  S_10
REMARK    3  A    between atoms: C_7  and  O_8
REMARK    4  A    between atoms: O_8  and  C_9
REMARK    5  A    between atoms: S_10  and  N_13
REMARK    6  A    between atoms: N_13  and  C_14
REMARK    7  A    between atoms: C_17  and  S_20
REMARK    8  A    between atoms: S_20  and  N_23
REMARK    9  A    between atoms: N_23  and  C_24
REMARK                            x       y       z     vdW  Elec       q    Type
REMARK                         _______ _______ _______ _____ _____    ______ ____
ROOT
ATOM      1  C   UNL     1       2.227   1.681   0.080  0.00  0.00    +0.048 A 
ATOM      2  C   UNL     1       3.463   1.402   0.649  0.00  0.00    +0.026 A 
ATOM      3  C   UNL     1       4.519   2.273   0.463  0.00  0.00    +0.030 A 
ATOM      4  C   UNL     1       4.344   3.425  -0.280  0.00  0.00    +0.109 A 
ATOM      5  C   UNL     1       3.113   3.708  -0.844  0.00  0.00    +0.030 A 
ATOM      6  C   UNL     1       2.054   2.839  -0.666  0.00  0.00    +0.026 A 
ENDROOT
BRANCH   4   7
ATOM      7  S   UNL     1       5.692   4.537  -0.509  0.00  0.00    +0.072 S 
ATOM      8  O   UNL     1       6.875   3.806  -0.218  0.00  0.00    -0.150 OA
ATOM      9  O   UNL     1       5.481   5.178  -1.760  0.00  0.00    -0.150 OA
BRANCH   7  10
ATOM     10  N   UNL     1       5.562   5.710   0.652  0.00  0.00    -0.216 N 
ATOM     11  H   UNL     1       5.378   6.627   0.397  0.00  0.00    +0.174 HD
BRANCH  10  12
ATOM     12  C   UNL     1       5.718   5.378   2.000  0.00  0.00    +0.051 A 
ATOM     13  C   UNL     1       4.612   5.341   2.840  0.00  0.00    +0.044 A 
ATOM     14  C   UNL     1       4.769   5.008   4.172  0.00  0.00    +0.044 A 
ATOM     15  C   UNL     1       6.027   4.721   4.672  0.00  0.00    +0.040 A 
ATOM     16  C   UNL     1       7.131   4.762   3.839  0.00  0.00    +0.044 A 
ATOM     17  C   UNL     1       6.980   5.090   2.504  0.00  0.00    +0.044 A 
ATOM     18 CL   UNL     1       8.708   4.402   4.470  0.00  0.00    -0.083 Cl
ATOM     19 CL   UNL     1       3.386   4.955   5.221  0.00  0.00    -0.083 Cl
ENDBRANCH  10  12
ENDBRANCH   7  10
ENDBRANCH   4   7
BRANCH   1  20
ATOM     20  N   UNL     1       1.158   0.800   0.262  0.00  0.00    -0.216 N 
ATOM     21  H   UNL     1       0.283   1.143   0.502  0.00  0.00    +0.174 HD
BRANCH  20  22
ATOM     22  S   UNL     1       1.383  -0.828   0.062  0.00  0.00    +0.072 S 
ATOM     23  O   UNL     1       2.505  -1.184   0.860  0.00  0.00    -0.150 OA
ATOM     24  O   UNL     1       0.110  -1.437   0.224  0.00  0.00    -0.150 OA
BRANCH  22  28
ATOM     25  C   UNL     1       5.027  -1.476  -3.627  0.00  0.00    +0.047 C 
ATOM     26  C   UNL     1       3.568  -1.379  -3.264  0.00  0.00    -0.007 A 
ATOM     27  C   UNL     1       3.195  -1.176  -1.949  0.00  0.00    +0.035 A 
ATOM     28  C   UNL     1       1.856  -1.087  -1.615  0.00  0.00    +0.109 A 
ATOM     29  C   UNL     1       0.887  -1.206  -2.595  0.00  0.00    +0.032 A 
ATOM     30  C   UNL     1       1.256  -1.403  -3.911  0.00  0.00    +0.048 A 
ATOM     31  C   UNL     1       2.598  -1.493  -4.249  0.00  0.00    +0.123 A 
BRANCH  31  32
ATOM     32  O   UNL     1       2.963  -1.693  -5.543  0.00  0.00    -0.495 OA
ATOM     33  C   UNL     1       1.911  -1.801  -6.504  0.00  0.00    +0.277 C 
ENDBRANCH  31  32
ENDBRANCH  22  28
ENDBRANCH  20  22
ENDBRANCH   1  20
TORSDOF 7
