REMARK  Name = ZINC40033996
REMARK  8 active torsions:
REMARK  status: ('A' for Active; 'I' for Inactive)
REMARK    1  A    between atoms: C_1  and  C_2
REMARK    2  A    between atoms: C_4  and  C_12
REMARK    3  A    between atoms: C_12  and  C_14
REMARK    4  A    between atoms: C_14  and  O_15
REMARK    5  A    between atoms: O_15  and  C_16
REMARK    6  A    between atoms: C_16  and  C_18
REMARK    7  A    between atoms: C_20  and  S_25
REMARK    8  A    between atoms: S_25  and  C_26
REMARK                            x       y       z     vdW  Elec       q    Type
REMARK                         _______ _______ _______ _____ _____    ______ ____
ROOT
ATOM      1  C   UNL     1      -2.428  -0.333  -0.919  0.00  0.00    +0.199 C 
ATOM      2  O   UNL     1      -2.209   0.349  -1.899  0.00  0.00    -0.289 OA
ENDROOT
BRANCH   1   5
ATOM      3  C   UNL     1      -0.019   1.526   0.010  0.00  0.00    +0.035 C 
ATOM      4  C   UNL     1       0.002  -0.004   0.002  0.00  0.00    +0.111 C 
ATOM      5  C   UNL     1      -1.411  -0.544   0.036  0.00  0.00    +0.029 C 
ATOM      6  C   UNL     1      -1.496  -1.289   1.198  0.00  0.00    +0.007 A 
ATOM      7  C   UNL     1      -2.543  -2.035   1.788  0.00  0.00    +0.010 A 
ATOM      8  C   UNL     1      -2.344  -2.680   2.960  0.00  0.00    +0.001 A 
ATOM      9  C   UNL     1      -1.116  -2.646   3.640  0.00  0.00    +0.002 A 
ATOM     10  C   UNL     1      -0.053  -1.963   3.162  0.00  0.00    +0.026 A 
ATOM     11  C   UNL     1      -0.185  -1.232   1.891  0.00  0.00    +0.043 A 
ATOM     12  N   UNL     1       0.660  -0.506   1.212  0.00  0.00    -0.377 N 
ATOM     13  H   UNL     1       1.578  -0.327   1.468  0.00  0.00    +0.160 HD
ENDBRANCH   1   5
BRANCH   1  14
ATOM     14  C   UNL     1      -3.787  -0.953  -0.721  0.00  0.00    +0.311 C 
BRANCH  14  15
ATOM     15  O   UNL     1      -4.637  -0.596  -1.813  0.00  0.00    -0.453 OA
BRANCH  15  16
ATOM     16  C   UNL     1      -5.897  -1.074  -1.789  0.00  0.00    +0.341 C 
ATOM     17  O   UNL     1      -6.263  -1.774  -0.867  0.00  0.00    -0.245 OA
BRANCH  16  18
ATOM     18  C   UNL     1      -6.832  -0.746  -2.884  0.00  0.00    +0.078 A 
ATOM     19  C   UNL     1      -6.411   0.054  -3.948  0.00  0.00    +0.031 A 
ATOM     20  C   UNL     1      -7.295   0.358  -4.972  0.00  0.00    +0.008 A 
ATOM     21  C   UNL     1      -8.596  -0.134  -4.938  0.00  0.00    +0.016 A 
ATOM     22  C   UNL     1      -9.013  -0.925  -3.885  0.00  0.00    +0.022 A 
ATOM     23  C   UNL     1      -8.139  -1.240  -2.862  0.00  0.00    +0.055 A 
ATOM     24 CL   UNL     1      -8.666  -2.241  -1.546  0.00  0.00    -0.083 Cl
BRANCH  20  25
ATOM     25  S   UNL     1      -6.770   1.367  -6.318  0.00  0.00    -0.129 S 
ATOM     26  C   UNL     1      -8.237   1.482  -7.379  0.00  0.00    +0.090 C 
ENDBRANCH  20  25
ENDBRANCH  16  18
ENDBRANCH  15  16
ENDBRANCH  14  15
ENDBRANCH   1  14
TORSDOF 6
