REMARK  Name = ZINC59417005
REMARK  8 active torsions:
REMARK  status: ('A' for Active; 'I' for Inactive)
REMARK    1  A    between atoms: C_1  and  C_2
REMARK    2  A    between atoms: C_9  and  S_12
REMARK    3  A    between atoms: S_12  and  C_13
REMARK    4  A    between atoms: C_13  and  C_14
REMARK    5  A    between atoms: C_18  and  C_21
REMARK    6  A    between atoms: C_24  and  N_27
REMARK    7  A    between atoms: N_27  and  C_28
REMARK    8  A    between atoms: N_27  and  C_29
REMARK                            x       y       z     vdW  Elec       q    Type
REMARK                         _______ _______ _______ _____ _____    ______ ____
ROOT
ATOM      1  C   UNL     1       0.129  -6.436   5.172  0.00  0.00    +0.145 C 
ATOM      2  C   UNL     1       0.013  -6.019   6.654  0.00  0.00    +0.116 C 
ATOM      3  N   UNL     1       0.946  -6.960   7.333  0.00  0.00    -0.285 NA
ATOM      4  C   UNL     1       2.034  -7.104   6.332  0.00  0.00    +0.218 C 
ATOM      5  O   UNL     1       1.385  -7.122   5.048  0.00  0.00    -0.352 OA
ATOM      6  H   UNL     1       1.296  -6.565   8.193  0.00  0.00    +0.125 HD
ENDROOT
BRANCH   4   7
ATOM      7  C   UNL     1       2.780  -8.394   6.557  0.00  0.00    -0.004 A 
ATOM      8  C   UNL     1       2.123  -9.488   7.087  0.00  0.00    +0.009 A 
ATOM      9  C   UNL     1       2.804 -10.672   7.294  0.00  0.00    +0.023 A 
ATOM     10  C   UNL     1       4.151 -10.762   6.969  0.00  0.00    +0.029 A 
ATOM     11  C   UNL     1       4.809  -9.660   6.436  0.00  0.00    +0.023 A 
ATOM     12  C   UNL     1       4.121  -8.482   6.227  0.00  0.00    +0.009 A 
BRANCH  10  13
ATOM     13  N   UNL     1       4.843 -11.957   7.178  0.00  0.00    -0.336 N 
ATOM     14  C   UNL     1       4.184 -13.077   7.854  0.00  0.00    +0.129 C 
ATOM     15  C   UNL     1       6.228 -12.091   6.720  0.00  0.00    +0.129 C 
ENDBRANCH  10  13
ENDBRANCH   4   7
BRANCH   1  16
ATOM     16  C   UNL     1       0.115  -5.198   4.273  0.00  0.00    +0.110 C 
BRANCH  16  17
ATOM     17  S   UNL     1       0.131  -5.714   2.534  0.00  0.00    -0.085 S 
BRANCH  17  26
ATOM     18  C   UNL     1       0.034   1.543   0.052  0.00  0.00    +0.044 C 
ATOM     19  C   UNL     1       0.056   0.036   0.034  0.00  0.00    -0.048 A 
ATOM     20  C   UNL     1       0.073  -0.637  -1.179  0.00  0.00    +0.005 A 
ATOM     21  C   UNL     1       0.094  -2.016  -1.212  0.00  0.00    +0.028 A 
ATOM     22  C   UNL     1       0.099  -2.735  -0.026  0.00  0.00    +0.067 A 
ATOM     23  C   UNL     1       0.082  -2.058   1.204  0.00  0.00    +0.090 A 
ATOM     24  C   UNL     1       0.066  -0.661   1.221  0.00  0.00    +0.033 A 
ATOM     25  N   UNL     1       0.092  -3.002   2.181  0.00  0.00    -0.222 NA
ATOM     26  C   UNL     1       0.112  -4.196   1.640  0.00  0.00    +0.167 A 
ATOM     27  N   UNL     1       0.117  -4.087   0.278  0.00  0.00    -0.333 N 
ATOM     28  H   UNL     1       0.131  -4.819  -0.358  0.00  0.00    +0.168 HD
ENDBRANCH  17  26
ENDBRANCH  16  17
ENDBRANCH   1  16
TORSDOF 5
