REMARK  Name = ZINC07978904
REMARK  8 active torsions:
REMARK  status: ('A' for Active; 'I' for Inactive)
REMARK    1  A    between atoms: C_1  and  C_2
REMARK    2  A    between atoms: C_5  and  S_8
REMARK    3  A    between atoms: S_8  and  C_9
REMARK    4  A    between atoms: C_9  and  C_10
REMARK    5  A    between atoms: C_10  and  O_12
REMARK    6  A    between atoms: O_12  and  C_13
REMARK    7  A    between atoms: C_13  and  C_15
REMARK    8  A    between atoms: C_13  and  C_16
REMARK                            x       y       z     vdW  Elec       q    Type
REMARK                         _______ _______ _______ _____ _____    ______ ____
ROOT
ATOM      1  C   UNL     1       0.119  -8.459   3.139  0.00  0.00    +0.259 C 
ATOM      2  C   UNL     1      -1.333  -8.943   3.159  0.00  0.00    +0.062 C 
ENDROOT
BRANCH   1   3
ATOM      3  C   UNL     1       0.822  -8.929   4.386  0.00  0.00    +0.260 C 
ATOM      4  O   UNL     1       1.137  -8.130   5.242  0.00  0.00    -0.271 OA
ATOM      5  N   UNL     1       1.102 -10.238   4.549  0.00  0.00    -0.268 N 
ATOM      6  C   UNL     1       0.878 -11.277   3.541  0.00  0.00    +0.118 C 
ATOM      7  C   UNL     1       1.350 -12.584   4.197  0.00  0.00    +0.056 C 
ATOM      8  C   UNL     1       1.821 -12.171   5.573  0.00  0.00    -0.024 A 
ATOM      9  C   UNL     1       1.653 -10.801   5.704  0.00  0.00    +0.040 A 
ATOM     10  C   UNL     1       2.027 -10.184   6.899  0.00  0.00    +0.024 A 
ATOM     11  C   UNL     1       2.559 -10.929   7.930  0.00  0.00    +0.002 A 
ATOM     12  C   UNL     1       2.727 -12.294   7.788  0.00  0.00    +0.000 A 
ATOM     13  C   UNL     1       2.351 -12.914   6.610  0.00  0.00    +0.005 A 
ENDBRANCH   1   3
BRANCH   1  14
ATOM     14  O   UNL     1       0.144  -7.031   3.087  0.00  0.00    -0.452 OA
BRANCH  14  15
ATOM     15  C   UNL     1       0.153  -6.466   1.870  0.00  0.00    +0.318 C 
ATOM     16  O   UNL     1       0.139  -7.160   0.881  0.00  0.00    -0.250 OA
BRANCH  15  17
ATOM     17  C   UNL     1       0.180  -4.965   1.736  0.00  0.00    +0.194 C 
BRANCH  17  18
ATOM     18  S   UNL     1       0.186  -4.514  -0.021  0.00  0.00    -0.114 S 
BRANCH  18  23
ATOM     19  C   UNL     1       0.293   1.521   0.021  0.00  0.00    +0.044 C 
ATOM     20  C   UNL     1       0.266   0.014   0.011  0.00  0.00    -0.050 A 
ATOM     21  C   UNL     1       0.254  -0.667  -1.193  0.00  0.00    +0.004 A 
ATOM     22  C   UNL     1       0.229  -2.047  -1.206  0.00  0.00    +0.015 A 
ATOM     23  C   UNL     1       0.218  -2.752  -0.008  0.00  0.00    +0.008 A 
ATOM     24  C   UNL     1       0.231  -2.064   1.199  0.00  0.00    +0.015 A 
ATOM     25  C   UNL     1       0.261  -0.684   1.205  0.00  0.00    +0.004 A 
ENDBRANCH  18  23
ENDBRANCH  17  18
ENDBRANCH  15  17
ENDBRANCH  14  15
ENDBRANCH   1  14
TORSDOF 6
