REMARK  Name = ZINC37037321
REMARK  7 active torsions:
REMARK  status: ('A' for Active; 'I' for Inactive)
REMARK    1  A    between atoms: C_1  and  C_2
REMARK    2  A    between atoms: C_7  and  N_12
REMARK    3  A    between atoms: C_9  and  C_11
REMARK    4  A    between atoms: C_13  and  C_15
REMARK    5  A    between atoms: C_15  and  S_16
REMARK    6  A    between atoms: S_16  and  C_17
REMARK    7  A    between atoms: C_22  and  N_23
REMARK                            x       y       z     vdW  Elec       q    Type
REMARK                         _______ _______ _______ _____ _____    ______ ____
ROOT
ATOM      1  N   UNL     1       1.471  -2.526   2.420  0.00  0.00    -0.312 N 
ATOM      2  C   UNL     1       2.056  -3.740   2.406  0.00  0.00    +0.223 C 
ATOM      3  O   UNL     1       1.996  -4.431   1.411  0.00  0.00    -0.275 OA
ATOM      4  H   UNL     1       1.520  -1.974   3.216  0.00  0.00    +0.149 HD
ENDROOT
BRANCH   1  10
ATOM      5  C   UNL     1      -0.019   1.526   0.010  0.00  0.00    +0.008 C 
ATOM      6  C   UNL     1       0.002  -0.004   0.002  0.00  0.00    -0.009 C 
ATOM      7  C   UNL     1      -1.433  -0.534   0.013  0.00  0.00    +0.003 C 
ATOM      8  C   UNL     1      -1.413  -2.063   0.004  0.00  0.00    +0.002 C 
ATOM      9  C   UNL     1      -0.673  -2.570   1.244  0.00  0.00    +0.022 C 
ATOM     10  C   UNL     1       0.763  -2.041   1.233  0.00  0.00    +0.076 C 
ATOM     11  C   UNL     1       0.742  -0.511   1.242  0.00  0.00    +0.009 C 
ATOM     12  C   UNL     1       0.026  -0.018   2.500  0.00  0.00    +0.009 C 
ENDBRANCH   1  10
BRANCH   2  13
ATOM     13  C   UNL     1       2.785  -4.239   3.627  0.00  0.00    +0.170 C 
BRANCH  13  14
ATOM     14  S   UNL     1       3.457  -5.891   3.297  0.00  0.00    -0.114 S 
BRANCH  14  15
ATOM     15  C   UNL     1       4.268  -6.330   4.798  0.00  0.00    +0.029 A 
ATOM     16  C   UNL     1       4.263  -5.453   5.873  0.00  0.00    +0.018 A 
ATOM     17  C   UNL     1       4.900  -5.799   7.050  0.00  0.00    +0.021 A 
ATOM     18  C   UNL     1       5.544  -7.019   7.161  0.00  0.00    +0.043 A 
ATOM     19  C   UNL     1       5.554  -7.899   6.093  0.00  0.00    +0.043 A 
ATOM     20  C   UNL     1       4.913  -7.562   4.911  0.00  0.00    +0.040 A 
ATOM     21 CL   UNL     1       6.342  -7.445   8.642  0.00  0.00    -0.083 Cl
BRANCH  20  22
ATOM     22  N   UNL     1       4.917  -8.454   3.832  0.00  0.00    -0.357 N 
ATOM     23  H   UNL     1       4.471  -8.215   3.004  0.00  0.00    +0.142 HD
ATOM     24  H   UNL     1       5.365  -9.310   3.912  0.00  0.00    +0.142 HD
ENDBRANCH  20  22
ENDBRANCH  14  15
ENDBRANCH  13  14
ENDBRANCH   2  13
TORSDOF 5
