REMARK  Name = ZINC39510219
REMARK  6 active torsions:
REMARK  status: ('A' for Active; 'I' for Inactive)
REMARK    1  A    between atoms: C_1  and  C_2
REMARK    2  A    between atoms: C_2  and  C_3
REMARK    3  A    between atoms: C_2  and  S_4
REMARK    4  A    between atoms: S_4  and  N_7
REMARK    5  A    between atoms: C_16  and  C_19
REMARK    6  A    between atoms: C_19  and  C_20
REMARK                            x       y       z     vdW  Elec       q    Type
REMARK                         _______ _______ _______ _____ _____    ______ ____
ROOT
ATOM      1  N   UNL     1      -1.443  -2.263   0.328  0.00  0.00    -0.172 NA
ATOM      2  C   UNL     1      -1.190  -3.173  -0.800  0.00  0.00    +0.110 C 
ATOM      3  C   UNL     1       0.079  -3.977  -0.506  0.00  0.00    +0.020 C 
ATOM      4  C   UNL     1      -0.069  -4.691   0.840  0.00  0.00    +0.040 C 
ATOM      5  C   UNL     1      -0.236  -3.652   1.953  0.00  0.00    +0.188 C 
ATOM      6  C   UNL     1      -1.472  -2.813   1.680  0.00  0.00    +0.074 C 
ATOM      7  C   UNL     1      -1.600  -1.684   2.721  0.00  0.00    +0.027 C 
ATOM      8  C   UNL     1      -3.109  -1.356   2.739  0.00  0.00    +0.006 C 
ATOM      9  C   UNL     1      -3.837  -2.606   2.213  0.00  0.00    -0.005 C 
ATOM     10  C   UNL     1      -2.747  -3.652   1.894  0.00  0.00    +0.030 C 
ATOM     11  F   UNL     1       0.889  -2.821   1.989  0.00  0.00    -0.244 F 
ENDROOT
BRANCH   1  12
ATOM     12  S   UNL     1      -1.681  -0.644   0.070  0.00  0.00    +0.035 S 
ATOM     13  O   UNL     1      -1.927  -0.104   1.361  0.00  0.00    -0.158 OA
ATOM     14  O   UNL     1      -2.676  -0.581  -0.943  0.00  0.00    -0.158 OA
BRANCH  12  16
ATOM     15  C   UNL     1      -0.170   1.482  -0.753  0.00  0.00    +0.033 C 
ATOM     16  C   UNL     1      -0.097  -0.036  -0.571  0.00  0.00    +0.142 C 
ATOM     17  C   UNL     1       1.018  -0.378   0.419  0.00  0.00    +0.033 C 
ENDBRANCH  12  16
ENDBRANCH   1  12
BRANCH   9  18
ATOM     18  C   UNL     1      -4.787  -3.148   3.283  0.00  0.00    +0.038 C 
BRANCH  18  19
ATOM     19  C   UNL     1      -5.896  -2.156   3.520  0.00  0.00    -0.047 A 
ATOM     20  C   UNL     1      -5.747  -1.167   4.474  0.00  0.00    +0.003 A 
ATOM     21  C   UNL     1      -6.765  -0.257   4.691  0.00  0.00    +0.000 A 
ATOM     22  C   UNL     1      -7.931  -0.335   3.953  0.00  0.00    +0.000 A 
ATOM     23  C   UNL     1      -8.080  -1.323   2.998  0.00  0.00    +0.000 A 
ATOM     24  C   UNL     1      -7.061  -2.231   2.778  0.00  0.00    +0.003 A 
ENDBRANCH  18  19
ENDBRANCH   9  18
TORSDOF 4
