REMARK  Name = ZINC03290694
REMARK  5 active torsions:
REMARK  status: ('A' for Active; 'I' for Inactive)
REMARK    1  A    between atoms: C_3  and  S_23
REMARK    2  A    between atoms: C_6  and  C_7
REMARK    3  A    between atoms: C_7  and  C_8
REMARK    4  A    between atoms: C_8  and  N_9
REMARK    5  A    between atoms: S_23  and  N_26
REMARK                            x       y       z     vdW  Elec       q    Type
REMARK                         _______ _______ _______ _____ _____    ______ ____
ROOT
ATOM      1  N   UNL     1       1.137   5.560   1.463  0.00  0.00    -0.328 N 
ATOM      2  C   UNL     1       1.139   6.245   2.664  0.00  0.00    +0.130 A 
ATOM      3  C   UNL     1       1.227   7.665   2.684  0.00  0.00    +0.051 A 
ATOM      4  C   UNL     1       1.324   8.594   1.556  0.00  0.00    -0.025 A 
ATOM      5  C   UNL     1       1.396   9.908   1.850  0.00  0.00    -0.004 A 
ATOM      6  S   UNL     1       1.339   9.990   3.620  0.00  0.00    -0.073 S 
ATOM      7  C   UNL     1       1.219   8.254   3.964  0.00  0.00    +0.114 A 
ATOM      8  N   UNL     1       1.136   7.523   5.059  0.00  0.00    -0.228 NA
ATOM      9  C   UNL     1       1.058   6.209   4.977  0.00  0.00    +0.224 A 
ATOM     10  N   UNL     1       1.054   5.590   3.810  0.00  0.00    -0.220 NA
ATOM     11  C   UNL     1       1.502  11.049   0.885  0.00  0.00    +0.043 C 
ATOM     12  C   UNL     1       1.892  10.488  -0.489  0.00  0.00    +0.005 C 
ATOM     13  C   UNL     1       0.989   9.292  -0.805  0.00  0.00    +0.005 C 
ATOM     14  C   UNL     1       1.345   8.117   0.106  0.00  0.00    +0.037 C 
ATOM     15  H   UNL     1       1.279   6.038   0.631  0.00  0.00    +0.147 HD
ENDROOT
BRANCH   1  16
ATOM     16  C   UNL     1       0.921   4.111   1.446  0.00  0.00    +0.107 C 
BRANCH  16  17
ATOM     17  C   UNL     1       0.967   3.605   0.003  0.00  0.00    +0.054 C 
BRANCH  17  23
ATOM     18  C   UNL     1      -0.537   1.607  -0.120  0.00  0.00    +0.005 A 
ATOM     19  C   UNL     1      -0.740   0.240  -0.136  0.00  0.00    +0.029 A 
ATOM     20  C   UNL     1       0.338  -0.620  -0.045  0.00  0.00    +0.105 A 
ATOM     21  C   UNL     1       1.619  -0.113   0.061  0.00  0.00    +0.029 A 
ATOM     22  C   UNL     1       1.823   1.254   0.076  0.00  0.00    +0.005 A 
ATOM     23  C   UNL     1       0.745   2.114  -0.014  0.00  0.00    -0.046 A 
BRANCH  20  24
ATOM     24  S   UNL     1       0.078  -2.363  -0.064  0.00  0.00    +0.056 S 
ATOM     25  O   UNL     1       1.200  -2.947   0.583  0.00  0.00    -0.153 OA
ATOM     26  O   UNL     1      -1.255  -2.580   0.378  0.00  0.00    -0.153 OA
BRANCH  24  27
ATOM     27  N   UNL     1       0.137  -2.849  -1.646  0.00  0.00    -0.204 NA
ATOM     28  H   UNL     1       0.293  -2.199  -2.348  0.00  0.00    +0.144 HD
ATOM     29  H   UNL     1       0.016  -3.785  -1.871  0.00  0.00    +0.144 HD
ENDBRANCH  24  27
ENDBRANCH  20  24
ENDBRANCH  17  23
ENDBRANCH  16  17
ENDBRANCH   1  16
TORSDOF 5
