REMARK  Name = ZINC23104702
REMARK  6 active torsions:
REMARK  status: ('A' for Active; 'I' for Inactive)
REMARK    1  A    between atoms: C_1  and  C_2
REMARK    2  A    between atoms: C_11  and  O_13
REMARK    3  A    between atoms: O_13  and  C_14
REMARK    4  A    between atoms: C_14  and  C_15
REMARK    5  A    between atoms: N_17  and  C_18
REMARK    6  A    between atoms: C_19  and  C_27
REMARK                            x       y       z     vdW  Elec       q    Type
REMARK                         _______ _______ _______ _____ _____    ______ ____
ROOT
ATOM      1  C   UNL     1      -2.653   8.627  -3.320  0.00  0.00    +0.325 C 
ENDROOT
BRANCH   1   2
ATOM      2  C   UNL     1      -2.279   7.222  -2.922  0.00  0.00    +0.255 C 
ATOM      3  O   UNL     1      -2.260   6.341  -3.755  0.00  0.00    -0.272 OA
ATOM      4  N   UNL     1      -1.965   6.946  -1.641  0.00  0.00    -0.276 N 
ATOM      5  H   UNL     1      -1.982   7.746  -0.886  0.00  0.00    +0.155 HD
BRANCH   4   6
ATOM      6  C   UNL     1      -1.621   5.653  -1.274  0.00  0.00    +0.090 A 
ATOM      7  C   UNL     1      -1.271   5.177  -0.019  0.00  0.00    +0.084 A 
ATOM      8  C   UNL     1      -0.951   3.765   0.100  0.00  0.00    -0.018 A 
ATOM      9  C   UNL     1      -1.032   3.059  -1.049  0.00  0.00    -0.004 A 
ATOM     10  S   UNL     1      -1.524   4.240  -2.273  0.00  0.00    -0.077 S 
ATOM     11  C   UNL     1      -0.761   1.597  -1.232  0.00  0.00    +0.043 C 
ATOM     12  C   UNL     1      -0.013   1.086   0.008  0.00  0.00    +0.005 C 
ATOM     13  C   UNL     1      -0.735   1.583   1.264  0.00  0.00    +0.005 C 
ATOM     14  C   UNL     1      -0.551   3.094   1.407  0.00  0.00    +0.037 C 
BRANCH   7  15
ATOM     15  C   UNL     1      -1.226   6.046   1.118  0.00  0.00    +0.102 C 
ATOM     16  N   UNL     1      -1.191   6.736   2.020  0.00  0.00    -0.191 NA
ENDBRANCH   7  15
ENDBRANCH   4   6
ENDBRANCH   1   2
BRANCH   1  17
ATOM     17  O   UNL     1      -2.940   8.665  -4.720  0.00  0.00    -0.481 OA
BRANCH  17  28
ATOM     18  C   UNL     1      -4.731  13.758  -8.347  0.00  0.00    +0.045 C 
ATOM     19  C   UNL     1      -4.408  13.604  -6.883  0.00  0.00    -0.033 A 
ATOM     20  C   UNL     1      -4.463  14.668  -6.041  0.00  0.00    +0.096 A 
ATOM     21  C   UNL     1      -4.155  14.499  -4.675  0.00  0.00    +0.337 A 
ATOM     22  O   UNL     1      -4.209  15.462  -3.931  0.00  0.00    -0.245 OA
ATOM     23  O   UNL     1      -3.804  13.305  -4.174  0.00  0.00    -0.422 OA
ATOM     24  C   UNL     1      -3.731  12.206  -4.957  0.00  0.00    +0.143 A 
ATOM     25  C   UNL     1      -4.025  12.303  -6.330  0.00  0.00    +0.022 A 
ATOM     26  C   UNL     1      -3.949  11.168  -7.144  0.00  0.00    +0.035 A 
ATOM     27  C   UNL     1      -3.588   9.967  -6.603  0.00  0.00    +0.083 A 
ATOM     28  C   UNL     1      -3.296   9.865  -5.244  0.00  0.00    +0.143 A 
ATOM     29  C   UNL     1      -3.372  10.978  -4.422  0.00  0.00    +0.094 A 
ATOM     30 CL   UNL     1      -3.495   8.559  -7.614  0.00  0.00    -0.080 Cl
ENDBRANCH  17  28
ENDBRANCH   1  17
TORSDOF 5
