REMARK  Name = ZINC21202627
REMARK  8 active torsions:
REMARK  status: ('A' for Active; 'I' for Inactive)
REMARK    1  A    between atoms: C_6  and  C_7
REMARK    2  A    between atoms: C_10  and  C_12
REMARK    3  A    between atoms: C_12  and  N_13
REMARK    4  A    between atoms: C_14  and  C_16
REMARK    5  A    between atoms: C_16  and  S_17
REMARK    6  A    between atoms: S_17  and  C_18
REMARK    7  A    between atoms: C_21  and  C_24
REMARK    8  A    between atoms: N_22  and  N_23
REMARK                            x       y       z     vdW  Elec       q    Type
REMARK                         _______ _______ _______ _____ _____    ______ ____
ROOT
ATOM      1  N   UNL     1      -0.011   0.966   0.007  0.00  0.00    -0.308 N 
ATOM      2  C   UNL     1       1.147   1.655   0.000  0.00  0.00    +0.224 C 
ATOM      3  O   UNL     1       1.130   2.868   0.007  0.00  0.00    -0.275 OA
ATOM      4  H   UNL     1       0.004  -0.134   0.006  0.00  0.00    +0.149 HD
ENDROOT
BRANCH   1   5
ATOM      5  C   UNL     1      -1.290   1.681   0.017  0.00  0.00    +0.178 C 
BRANCH   5   9
ATOM      6  C   UNL     1      -3.985  -0.680  -0.697  0.00  0.00    +0.135 A 
ATOM      7  C   UNL     1      -4.012  -0.717   0.661  0.00  0.00    +0.050 A 
ATOM      8  C   UNL     1      -3.006   0.162   1.112  0.00  0.00    +0.047 A 
ATOM      9  C   UNL     1      -2.422   0.686   0.017  0.00  0.00    +0.123 A 
ATOM     10  O   UNL     1      -3.019   0.180  -1.074  0.00  0.00    -0.458 OA
BRANCH   6  16
ATOM     11  C   UNL     1      -5.833  -2.305  -1.080  0.00  0.00    +0.013 A 
ATOM     12  C   UNL     1      -6.656  -3.013  -1.931  0.00  0.00    +0.021 A 
ATOM     13  C   UNL     1      -6.519  -2.879  -3.302  0.00  0.00    +0.041 A 
ATOM     14  C   UNL     1      -5.559  -2.030  -3.828  0.00  0.00    +0.021 A 
ATOM     15  C   UNL     1      -4.733  -1.314  -2.987  0.00  0.00    +0.013 A 
ATOM     16  C   UNL     1      -4.867  -1.445  -1.603  0.00  0.00    +0.017 A 
ATOM     17 CL   UNL     1      -7.555  -3.778  -4.367  0.00  0.00    -0.084 Cl
ENDBRANCH   6  16
ENDBRANCH   5   9
ENDBRANCH   1   5
BRANCH   2  18
ATOM     18  C   UNL     1       2.462   0.920  -0.017  0.00  0.00    +0.173 C 
BRANCH  18  19
ATOM     19  S   UNL     1       3.822   2.115  -0.023  0.00  0.00    -0.075 S 
BRANCH  19  20
ATOM     20  C   UNL     1       5.197   1.013  -0.042  0.00  0.00    +0.209 A 
ATOM     21  N   UNL     1       5.146  -0.299  -0.043  0.00  0.00    -0.121 NA
ATOM     22  N   UNL     1       6.337  -0.781  -0.061  0.00  0.00    -0.123 NA
ATOM     23  C   UNL     1       7.211   0.185  -0.065  0.00  0.00    +0.255 A 
ATOM     24  N   UNL     1       6.517   1.363  -0.053  0.00  0.00    -0.220 N 
BRANCH  23  25
ATOM     25  C   UNL     1       8.711   0.032  -0.080  0.00  0.00    +0.454 C 
ATOM     26  F   UNL     1       9.043  -1.281  -0.430  0.00  0.00    -0.163 F 
ATOM     27  F   UNL     1       9.260   0.917  -1.013  0.00  0.00    -0.163 F 
ATOM     28  F   UNL     1       9.221   0.319   1.191  0.00  0.00    -0.163 F 
ENDBRANCH  23  25
BRANCH  24  29
ATOM     29  N   UNL     1       7.035   2.626  -0.052  0.00  0.00    -0.295 N 
ATOM     30  H   UNL     1       8.126   2.773  -0.061  0.00  0.00    +0.163 HD
ATOM     31  H   UNL     1       6.363   3.497  -0.041  0.00  0.00    +0.163 HD
ENDBRANCH  24  29
ENDBRANCH  19  20
ENDBRANCH  18  19
ENDBRANCH   2  18
TORSDOF 8
