REMARK  Name = ZINC08452793
REMARK  8 active torsions:
REMARK  status: ('A' for Active; 'I' for Inactive)
REMARK    1  A    between atoms: C_1  and  C_2
REMARK    2  A    between atoms: C_2  and  O_3
REMARK    3  A    between atoms: O_3  and  C_4
REMARK    4  A    between atoms: C_6  and  C_11
REMARK    5  A    between atoms: C_9  and  O_10
REMARK    6  A    between atoms: C_23  and  S_26
REMARK    7  A    between atoms: S_26  and  C_27
REMARK    8  A    between atoms: C_27  and  C_28
REMARK                            x       y       z     vdW  Elec       q    Type
REMARK                         _______ _______ _______ _____ _____    ______ ____
ROOT
ATOM      1  C   UNL     1       7.043   8.102  -3.518  0.00  0.00    +0.294 C 
ATOM      2  N   UNL     1       7.179   8.883  -2.292  0.00  0.00    -0.305 N 
ATOM      3  C   UNL     1       8.129   8.490  -1.345  0.00  0.00    +0.039 A 
ATOM      4  C   UNL     1       9.264   9.242  -1.108  0.00  0.00    +0.024 A 
ATOM      5  C   UNL     1      10.201   8.805  -0.189  0.00  0.00    +0.002 A 
ATOM      6  C   UNL     1      10.008   7.618   0.497  0.00  0.00    +0.001 A 
ATOM      7  C   UNL     1       8.875   6.859   0.277  0.00  0.00    +0.012 A 
ATOM      8  C   UNL     1       7.924   7.289  -0.640  0.00  0.00    +0.028 A 
ATOM      9  C   UNL     1       6.691   6.515  -0.896  0.00  0.00    +0.156 A 
ATOM     10  C   UNL     1       6.295   6.256  -2.228  0.00  0.00    +0.248 A 
ATOM     11  N   UNL     1       5.183   5.573  -2.438  0.00  0.00    -0.184 NA
ATOM     12  C   UNL     1       4.475   5.146  -1.396  0.00  0.00    +0.213 A 
ATOM     13  N   UNL     1       4.865   5.400  -0.153  0.00  0.00    -0.122 NA
ATOM     14  N   UNL     1       5.943   6.059   0.096  0.00  0.00    -0.141 NA
ATOM     15  O   UNL     1       7.054   6.703  -3.257  0.00  0.00    -0.449 OA
ATOM     16  H   UNL     1       6.620   9.661  -2.138  0.00  0.00    +0.150 HD
ENDROOT
BRANCH   1  19
ATOM     17  C   UNL     1       9.831   7.747  -6.042  0.00  0.00    +0.162 A 
ATOM     18  C   UNL     1       8.782   7.440  -5.191  0.00  0.00    +0.058 A 
ATOM     19  C   UNL     1       8.185   8.437  -4.443  0.00  0.00    +0.015 A 
ATOM     20  C   UNL     1       8.629   9.743  -4.546  0.00  0.00    +0.013 A 
ATOM     21  C   UNL     1       9.679  10.054  -5.389  0.00  0.00    +0.049 A 
ATOM     22  C   UNL     1      10.282   9.059  -6.141  0.00  0.00    +0.158 A 
BRANCH  22  23
ATOM     23  O   UNL     1      11.311   9.365  -6.976  0.00  0.00    -0.503 OA
ATOM     24  H   UNL     1      11.035   9.601  -7.872  0.00  0.00    +0.292 HD
ENDBRANCH  22  23
BRANCH  17  25
ATOM     25  O   UNL     1      10.420   6.766  -6.779  0.00  0.00    -0.489 OA
BRANCH  25  27
ATOM     26  C   UNL     1      10.688   4.484  -7.526  0.00  0.00    +0.048 C 
ATOM     27  C   UNL     1       9.906   5.442  -6.625  0.00  0.00    +0.226 C 
ENDBRANCH  25  27
ENDBRANCH  17  25
ENDBRANCH   1  19
BRANCH  12  28
ATOM     28  S   UNL     1       2.992   4.235  -1.671  0.00  0.00    -0.080 S 
BRANCH  28  29
ATOM     29  C   UNL     1       2.485   3.937   0.041  0.00  0.00    +0.114 C 
BRANCH  29  30
ATOM     30  C   UNL     1       1.200   3.150   0.055  0.00  0.00    -0.019 A 
ATOM     31  C   UNL     1      -0.015   3.809   0.055  0.00  0.00    +0.006 A 
ATOM     32  C   UNL     1      -1.193   3.087   0.068  0.00  0.00    +0.000 A 
ATOM     33  C   UNL     1      -1.158   1.705   0.075  0.00  0.00    +0.001 A 
ATOM     34  C   UNL     1       0.056   1.044   0.081  0.00  0.00    +0.020 A 
ATOM     35  C   UNL     1       1.236   1.767   0.068  0.00  0.00    +0.045 A 
ATOM     36 CL   UNL     1       2.762   0.938   0.069  0.00  0.00    -0.083 Cl
ENDBRANCH  29  30
ENDBRANCH  28  29
ENDBRANCH  12  28
TORSDOF 7
