REMARK  Name = ZINC37335296
REMARK  7 active torsions:
REMARK  status: ('A' for Active; 'I' for Inactive)
REMARK    1  A    between atoms: C_1  and  C_2
REMARK    2  A    between atoms: C_2  and  C_3
REMARK    3  A    between atoms: C_3  and  N_4
REMARK    4  A    between atoms: N_4  and  C_5
REMARK    5  A    between atoms: N_4  and  C_15
REMARK    6  A    between atoms: C_5  and  C_6
REMARK    7  A    between atoms: C_6  and  C_8
REMARK                            x       y       z     vdW  Elec       q    Type
REMARK                         _______ _______ _______ _____ _____    ______ ____
ROOT
ATOM      1  C   UNL     1      -2.803  -2.525  -0.090  0.00  0.00    +0.003 C 
ENDROOT
BRANCH   1   2
ATOM      2  N   UNL     1      -1.436  -1.997   0.018  0.00  0.00    +0.386 N 
ATOM      3  H   UNL     1      -0.923  -2.219  -0.821  0.00  0.00    -0.081 HD
BRANCH   2   4
ATOM      4  C   UNL     1      -0.767  -2.605   1.176  0.00  0.00    -0.068 C 
ATOM      5  C   UNL     1       0.656  -3.129   0.975  0.00  0.00    -0.017 C 
ATOM      6  C   UNL     1      -0.506  -4.112   1.131  0.00  0.00    -0.017 C 
ENDBRANCH   2   4
BRANCH   2   7
ATOM      7  C   UNL     1      -1.487  -0.539   0.191  0.00  0.00    -0.078 C 
BRANCH   7   9
ATOM      8  C   UNL     1      -0.117   1.544   0.360  0.00  0.00    +0.002 C 
ATOM      9  C   UNL     1      -0.065   0.025   0.179  0.00  0.00    -0.022 C 
ENDBRANCH   7   9
ENDBRANCH   2   7
ENDBRANCH   1   2
BRANCH   1  10
ATOM     10  C   UNL     1      -3.432  -2.031  -1.367  0.00  0.00    +0.149 C 
ATOM     11  O   UNL     1      -2.771  -1.399  -2.165  0.00  0.00    -0.294 OA
BRANCH  10  12
ATOM     12  C   UNL     1      -4.839  -2.315  -1.646  0.00  0.00    +0.038 A 
ATOM     13  C   UNL     1      -5.662  -3.060  -0.720  0.00  0.00    +0.035 A 
ATOM     14  C   UNL     1      -6.941  -3.253  -1.096  0.00  0.00    +0.057 A 
ATOM     15  S   UNL     1      -7.028  -2.439  -2.676  0.00  0.00    -0.074 S 
ATOM     16  C   UNL     1      -5.452  -1.878  -2.807  0.00  0.00    +0.066 A 
ATOM     17 BR   UNL     1      -4.687  -0.881  -4.220  0.00  0.00    -0.042 Br
ATOM     18 BR   UNL     1      -8.312  -4.168  -0.170  0.00  0.00    -0.043 Br
ENDBRANCH  10  12
ENDBRANCH   1  10
TORSDOF 6
