REMARK  Name = ZINC39373268
REMARK  6 active torsions:
REMARK  status: ('A' for Active; 'I' for Inactive)
REMARK    1  A    between atoms: C_1  and  C_2
REMARK    2  A    between atoms: C_7  and  S_22
REMARK    3  A    between atoms: C_11  and  N_13
REMARK    4  A    between atoms: C_14  and  C_16
REMARK    5  A    between atoms: S_22  and  C_23
REMARK    6  A    between atoms: C_23  and  C_24
REMARK                            x       y       z     vdW  Elec       q    Type
REMARK                         _______ _______ _______ _____ _____    ______ ____
ROOT
ATOM      1  C   UNL     1      -0.034   1.498  -0.055  0.00  0.00    +0.109 C 
ATOM      2  C   UNL     1      -0.010  -0.008  -0.062  0.00  0.00    +0.215 C 
ATOM      3  O   UNL     1       1.049  -0.598  -0.051  0.00  0.00    -0.276 OA
ATOM      4  N   UNL     1      -1.167  -0.700  -0.081  0.00  0.00    -0.272 N 
ATOM      5  C   UNL     1      -1.146  -2.064  -0.087  0.00  0.00    +0.134 C 
ATOM      6  N   UNL     1      -0.015  -2.728  -0.070  0.00  0.00    -0.211 NA
ATOM      7  C   UNL     1       0.030  -4.062  -0.075  0.00  0.00    +0.182 C 
ATOM      8  N   UNL     1      -1.024  -4.859  -0.099  0.00  0.00    -0.153 NA
ATOM      9  C   UNL     1      -2.268  -4.381  -0.120  0.00  0.00    +0.266 C 
ATOM     10  O   UNL     1      -3.232  -5.122  -0.142  0.00  0.00    -0.271 OA
ATOM     11  C   UNL     1      -2.431  -2.872  -0.109  0.00  0.00    +0.226 C 
ATOM     12  H   UNL     1      -2.014  -0.228  -0.091  0.00  0.00    +0.156 HD
ENDROOT
BRANCH  11  13
ATOM     13  N   UNL     1      -3.190  -2.490  -1.302  0.00  0.00    -0.294 N 
ATOM     14  C   UNL     1      -4.529  -2.643  -1.326  0.00  0.00    +0.245 C 
ATOM     15  O   UNL     1      -5.106  -3.098  -0.358  0.00  0.00    -0.270 OA
ATOM     16  H   UNL     1      -2.730  -2.127  -2.075  0.00  0.00    +0.150 HD
BRANCH  14  17
ATOM     17  C   UNL     1      -5.296  -2.258  -2.530  0.00  0.00    +0.037 A 
ATOM     18  C   UNL     1      -4.636  -1.740  -3.646  0.00  0.00    +0.013 A 
ATOM     19  C   UNL     1      -5.357  -1.383  -4.766  0.00  0.00    +0.001 A 
ATOM     20  C   UNL     1      -6.732  -1.537  -4.785  0.00  0.00    +0.000 A 
ATOM     21  C   UNL     1      -7.393  -2.048  -3.682  0.00  0.00    +0.001 A 
ATOM     22  C   UNL     1      -6.683  -2.415  -2.558  0.00  0.00    +0.013 A 
ENDBRANCH  14  17
ENDBRANCH  11  13
BRANCH   7  23
ATOM     23  S   UNL     1       1.620  -4.821  -0.049  0.00  0.00    -0.079 S 
BRANCH  23  24
ATOM     24  C   UNL     1       1.259  -6.599  -0.065  0.00  0.00    +0.173 C 
BRANCH  24  25
ATOM     25  C   UNL     1       2.550  -7.374  -0.044  0.00  0.00    +0.230 C 
ATOM     26  O   UNL     1       3.611  -6.789  -0.113  0.00  0.00    -0.274 OA
ATOM     27  N   UNL     1       2.528  -8.718   0.050  0.00  0.00    -0.270 N 
ATOM     28  C   UNL     1       1.252  -9.446   0.048  0.00  0.00    +0.114 C 
ATOM     29  C   UNL     1       1.315 -10.506   1.155  0.00  0.00    +0.024 C 
ATOM     30  C   UNL     1       2.424 -11.504   0.822  0.00  0.00    +0.038 C 
ATOM     31  C   UNL     1       3.710 -10.781   0.522  0.00  0.00    -0.026 A 
ATOM     32  C   UNL     1       3.722  -9.446   0.147  0.00  0.00    +0.039 A 
ATOM     33  C   UNL     1       4.927  -8.811  -0.133  0.00  0.00    +0.024 A 
ATOM     34  C   UNL     1       6.114  -9.509  -0.041  0.00  0.00    +0.002 A 
ATOM     35  C   UNL     1       6.103 -10.841   0.331  0.00  0.00    +0.000 A 
ATOM     36  C   UNL     1       4.906 -11.474   0.620  0.00  0.00    +0.005 A 
ENDBRANCH  24  25
ENDBRANCH  23  24
ENDBRANCH   7  23
TORSDOF 5
