REMARK  Name = ZINC40122729
REMARK  5 active torsions:
REMARK  status: ('A' for Active; 'I' for Inactive)
REMARK    1  A    between atoms: C_3  and  N_20
REMARK    2  A    between atoms: C_5  and  S_7
REMARK    3  A    between atoms: S_7  and  N_10
REMARK    4  A    between atoms: N_10  and  C_11
REMARK    5  A    between atoms: C_21  and  C_23
REMARK                            x       y       z     vdW  Elec       q    Type
REMARK                         _______ _______ _______ _____ _____    ______ ____
ROOT
ATOM      1  C   UNL     1      -0.014   1.367  -0.001  0.00  0.00    +0.004 A 
ATOM      2  C   UNL     1       1.169   2.079  -0.002  0.00  0.00    +0.023 A 
ATOM      3  C   UNL     1       2.383   1.405  -0.019  0.00  0.00    +0.035 A 
ATOM      4  C   UNL     1       2.403   0.016  -0.036  0.00  0.00    +0.051 A 
ATOM      5  C   UNL     1       1.216  -0.690  -0.035  0.00  0.00    +0.107 A 
ATOM      6  C   UNL     1       0.009  -0.015  -0.017  0.00  0.00    +0.028 A 
ENDROOT
BRANCH   3   7
ATOM      7  N   UNL     1       3.584   2.123  -0.021  0.00  0.00    -0.285 N 
ATOM      8  C   UNL     1       4.658   1.642   0.635  0.00  0.00    +0.224 C 
ATOM      9  O   UNL     1       4.610   0.548   1.157  0.00  0.00    -0.275 OA
ATOM     10  H   UNL     1       3.643   2.968  -0.495  0.00  0.00    +0.155 HD
BRANCH   8  11
ATOM     11  C   UNL     1       5.919   2.463   0.722  0.00  0.00    +0.117 C 
ATOM     12  C   UNL     1       6.976   1.703   1.526  0.00  0.00    +0.055 C 
ATOM     13  C   UNL     1       8.117   2.627   1.866  0.00  0.00    -0.004 A 
ATOM     14  C   UNL     1       9.329   2.076   2.251  0.00  0.00    +0.027 A 
ATOM     15  C   UNL     1      10.395   2.894   2.573  0.00  0.00    +0.041 A 
ATOM     16  C   UNL     1      10.255   4.269   2.512  0.00  0.00    +0.023 A 
ATOM     17  C   UNL     1       9.051   4.822   2.128  0.00  0.00    +0.047 A 
ATOM     18  C   UNL     1       7.976   4.002   1.801  0.00  0.00    +0.124 A 
ATOM     19  O   UNL     1       6.810   4.584   1.417  0.00  0.00    -0.491 OA
ATOM     20  C   UNL     1       5.625   3.787   1.440  0.00  0.00    +0.242 C 
ATOM     21 CL   UNL     1      11.910   2.196   3.054  0.00  0.00    -0.084 Cl
ENDBRANCH   8  11
ENDBRANCH   3   7
BRANCH   5  22
ATOM     22  S   UNL     1       1.240  -2.451  -0.056  0.00  0.00    +0.059 S 
ATOM     23  O   UNL     1      -0.004  -2.868  -0.601  0.00  0.00    -0.153 OA
ATOM     24  O   UNL     1       2.486  -2.834  -0.622  0.00  0.00    -0.153 OA
BRANCH  22  25
ATOM     25  N   UNL     1       1.260  -2.960   1.520  0.00  0.00    -0.188 NA
ATOM     26  H   UNL     1       2.030  -3.436   1.867  0.00  0.00    +0.148 HD
BRANCH  25  27
ATOM     27  C   UNL     1       0.113  -2.690   2.391  0.00  0.00    +0.063 C 
ATOM     28  C   UNL     1       0.366  -1.410   3.191  0.00  0.00    -0.058 C 
ATOM     29  N   UNL     1       0.349  -1.704   4.626  0.00  0.00    +0.381 N 
ATOM     30  C   UNL     1      -0.959  -2.222   5.031  0.00  0.00    -0.078 C 
ATOM     31  C   UNL     1      -1.256  -3.529   4.292  0.00  0.00    -0.014 C 
ATOM     32  C   UNL     1      -0.076  -3.858   3.368  0.00  0.00    +0.002 C 
ATOM     33  C   UNL     1       1.188  -3.980   4.228  0.00  0.00    -0.014 C 
ATOM     34  C   UNL     1       1.410  -2.654   4.970  0.00  0.00    -0.078 C 
ATOM     35  H   UNL     1       0.514  -0.845   5.129  0.00  0.00    -0.082 HD
ENDBRANCH  25  27
ENDBRANCH  22  25
ENDBRANCH   5  22
TORSDOF 5
