REMARK  Name = ZINC23991368
REMARK  14 active torsions:
REMARK  status: ('A' for Active; 'I' for Inactive)
REMARK    1  A    between atoms: C_1  and  C_2
REMARK    2  A    between atoms: C_2  and  C_3
REMARK    3  A    between atoms: N_9  and  C_10
REMARK    4  A    between atoms: C_10  and  C_11
REMARK    5  A    between atoms: N_13  and  C_14
REMARK    6  A    between atoms: N_13  and  C_18
REMARK    7  A    between atoms: C_14  and  C_15
REMARK    8  A    between atoms: C_15  and  C_16
REMARK    9  A    between atoms: C_15  and  C_17
REMARK   10  A    between atoms: C_19  and  N_31
REMARK   11  A    between atoms: N_20  and  C_27
REMARK   12  A    between atoms: C_27  and  C_28
REMARK   13  A    between atoms: C_28  and  C_29
REMARK   14  A    between atoms: C_28  and  C_30
REMARK                            x       y       z     vdW  Elec       q    Type
REMARK                         _______ _______ _______ _____ _____    ______ ____
ROOT
ATOM      1  C   UNL     1       0.682   1.554   3.035  0.00  0.00    +0.203 C 
ATOM      2  O   UNL     1       1.529   2.318   2.622  0.00  0.00    -0.277 OA
ATOM      3  N   UNL     1       0.823   0.982   4.249  0.00  0.00    -0.266 N 
ENDROOT
BRANCH   3   4
ATOM      4  C   UNL     1       1.905   1.346   5.079  0.00  0.00    +0.140 A 
ATOM      5  C   UNL     1       3.204   1.101   4.685  0.00  0.00    +0.127 A 
ATOM      6  N   UNL     1       4.238   1.473   5.513  0.00  0.00    -0.280 N 
ATOM      7  C   UNL     1       3.984   2.057   6.699  0.00  0.00    +0.331 A 
ATOM      8  O   UNL     1       4.911   2.374   7.419  0.00  0.00    -0.246 OA
ATOM      9  N   UNL     1       2.724   2.299   7.101  0.00  0.00    -0.273 N 
ATOM     10  H   UNL     1       2.539   2.779   8.073  0.00  0.00    +0.173 HD
ATOM     11  C   UNL     1       1.676   1.959   6.324  0.00  0.00    +0.277 A 
ATOM     12  O   UNL     1       0.537   2.183   6.699  0.00  0.00    -0.266 OA
BRANCH   5  13
ATOM     13  N   UNL     1       3.464   0.498   3.478  0.00  0.00    -0.343 N 
ATOM     14  H   UNL     1       4.502   0.307   3.171  0.00  0.00    +0.144 HD
ATOM     15  H   UNL     1       2.632   0.207   2.819  0.00  0.00    +0.144 HD
ENDBRANCH   5  13
BRANCH   6  16
ATOM     16  C   UNL     1       5.623   1.225   5.106  0.00  0.00    +0.131 C 
BRANCH  16  17
ATOM     17  C   UNL     1       6.058  -0.158   5.593  0.00  0.00    +0.003 C 
ATOM     18  C   UNL     1       7.459  -0.469   5.062  0.00  0.00    +0.009 C 
ATOM     19  C   UNL     1       6.077  -0.177   7.123  0.00  0.00    +0.009 C 
ENDBRANCH  16  17
ENDBRANCH   6  16
ENDBRANCH   3   4
BRANCH   1  20
ATOM     20  C   UNL     1      -0.528   1.243   2.192  0.00  0.00    +0.019 C 
BRANCH  20  26
ATOM     21  C   UNL     1      -0.418   3.433   1.167  0.00  0.00    -0.068 C 
ATOM     22  C   UNL     1      -0.481   4.174  -0.171  0.00  0.00    -0.015 C 
ATOM     23  C   UNL     1       0.712   3.758  -1.036  0.00  0.00    -0.003 C 
ATOM     24  C   UNL     1       0.686   2.240  -1.230  0.00  0.00    -0.019 C 
ATOM     25  C   UNL     1       0.715   1.554   0.138  0.00  0.00    -0.078 C 
ATOM     26  N   UNL     1      -0.447   1.985   0.926  0.00  0.00    +0.387 N 
ATOM     27  H   UNL     1      -1.351   1.759   0.342  0.00  0.00    -0.081 HD
BRANCH  21  29
ATOM     28  C   UNL     1      -1.566   5.332   2.315  0.00  0.00    +0.002 C 
ATOM     29  C   UNL     1      -1.620   3.831   2.026  0.00  0.00    -0.019 C 
ENDBRANCH  21  29
ENDBRANCH  20  26
ENDBRANCH   1  20
BRANCH   3  30
ATOM     30  C   UNL     1      -0.146  -0.017   4.705  0.00  0.00    +0.117 C 
BRANCH  30  31
ATOM     31  C   UNL     1       0.322  -1.412   4.284  0.00  0.00    +0.001 C 
ATOM     32  C   UNL     1       1.598  -1.774   5.046  0.00  0.00    +0.009 C 
ATOM     33  C   UNL     1      -0.771  -2.434   4.604  0.00  0.00    +0.009 C 
ENDBRANCH  30  31
ENDBRANCH   3  30
TORSDOF 9
