REMARK  Name = ZINC34981806
REMARK  3 active torsions:
REMARK  status: ('A' for Active; 'I' for Inactive)
REMARK    1  A    between atoms: C_4  and  C_7
REMARK    2  A    between atoms: C_9  and  C_18
REMARK    3  A    between atoms: C_26  and  C_28
REMARK                            x       y       z     vdW  Elec       q    Type
REMARK                         _______ _______ _______ _____ _____    ______ ____
ROOT
ATOM      1  C   UNL     1       3.717  -0.762  -0.026  0.00  0.00    +0.234 C 
ATOM      2  C   UNL     1       4.089  -1.060   1.403  0.00  0.00    -0.001 C 
ATOM      3  C   UNL     1       3.645  -2.202   1.994  0.00  0.00    +0.019 C 
ATOM      4  C   UNL     1       2.856  -3.139   1.183  0.00  0.00    +0.017 A 
ATOM      5  C   UNL     1       2.145  -4.187   1.770  0.00  0.00    +0.011 A 
ATOM      6  C   UNL     1       1.398  -5.031   0.974  0.00  0.00    +0.001 A 
ATOM      7  C   UNL     1       1.351  -4.840  -0.397  0.00  0.00    +0.004 A 
ATOM      8  C   UNL     1       2.058  -3.810  -0.990  0.00  0.00    +0.046 A 
ATOM      9  C   UNL     1       2.822  -2.961  -0.211  0.00  0.00    +0.129 A 
ATOM     10  O   UNL     1       3.560  -1.971  -0.768  0.00  0.00    -0.479 OA
ENDROOT
BRANCH   2  11
ATOM     11  C   UNL     1       4.895  -0.161   2.124  0.00  0.00    +0.028 C 
ATOM     12  C   UNL     1       6.074  -0.592   2.688  0.00  0.00    +0.082 A 
ATOM     13  C   UNL     1       6.730  -1.848   2.559  0.00  0.00    +0.288 A 
ATOM     14  O   UNL     1       6.249  -2.728   1.869  0.00  0.00    -0.265 OA
ATOM     15  N   UNL     1       7.884  -2.048   3.208  0.00  0.00    -0.169 N 
ATOM     16  C   UNL     1       8.386  -1.030   3.972  0.00  0.00    +0.200 A 
ATOM     17  S   UNL     1       7.197   0.276   3.773  0.00  0.00    -0.044 S 
ATOM     18  N   UNL     1       9.505  -1.404   4.523  0.00  0.00    -0.200 NA
ATOM     19  C   UNL     1       9.782  -2.664   4.151  0.00  0.00    +0.189 A 
ATOM     20  N   UNL     1       8.832  -3.097   3.356  0.00  0.00    -0.141 NA
BRANCH  19  21
ATOM     21  C   UNL     1      10.968  -3.440   4.570  0.00  0.00    +0.058 A 
ATOM     22  C   UNL     1      11.996  -3.068   5.395  0.00  0.00    +0.019 A 
ATOM     23  C   UNL     1      13.005  -3.970   5.645  0.00  0.00    +0.008 A 
ATOM     24  C   UNL     1      12.952  -5.199   5.067  0.00  0.00    +0.046 A 
ATOM     25  S   UNL     1      11.431  -5.110   4.138  0.00  0.00    -0.093 S 
ENDBRANCH  19  21
ENDBRANCH   2  11
BRANCH   1  29
ATOM     26  C   UNL     1       0.046   1.420  -0.101  0.00  0.00    +0.000 A 
ATOM     27  C   UNL     1       1.246   2.079  -0.290  0.00  0.00    +0.000 A 
ATOM     28  C   UNL     1       2.434   1.373  -0.266  0.00  0.00    +0.007 A 
ATOM     29  C   UNL     1       2.422   0.008  -0.052  0.00  0.00    -0.003 A 
ATOM     30  C   UNL     1       1.222  -0.652   0.139  0.00  0.00    +0.007 A 
ATOM     31  C   UNL     1       0.034   0.054   0.113  0.00  0.00    +0.000 A 
ENDBRANCH   1  29
TORSDOF 3
