REMARK  Name = ZINC12507842
REMARK  9 active torsions:
REMARK  status: ('A' for Active; 'I' for Inactive)
REMARK    1  A    between atoms: C_1  and  C_2
REMARK    2  A    between atoms: C_5  and  N_9
REMARK    3  A    between atoms: C_6  and  C_8
REMARK    4  A    between atoms: N_9  and  S_10
REMARK    5  A    between atoms: S_10  and  C_13
REMARK    6  A    between atoms: C_16  and  S_22
REMARK    7  A    between atoms: C_17  and  N_19
REMARK    8  A    between atoms: S_22  and  C_23
REMARK    9  A    between atoms: C_26  and  C_29
REMARK                            x       y       z     vdW  Elec       q    Type
REMARK                         _______ _______ _______ _____ _____    ______ ____
ROOT
ATOM      1  C   UNL     1       2.517  -4.721  -1.125  0.00  0.00    +0.111 A 
ATOM      2  C   UNL     1       3.098  -3.610  -1.709  0.00  0.00    +0.030 A 
ATOM      3  C   UNL     1       4.458  -3.402  -1.599  0.00  0.00    +0.019 A 
ATOM      4  C   UNL     1       5.244  -4.310  -0.900  0.00  0.00    +0.046 A 
ATOM      5  C   UNL     1       4.657  -5.425  -0.315  0.00  0.00    +0.142 A 
ATOM      6  C   UNL     1       3.295  -5.624  -0.424  0.00  0.00    +0.062 A 
ENDROOT
BRANCH   1   7
ATOM      7  S   UNL     1       0.780  -4.982  -1.268  0.00  0.00    +0.072 S 
ATOM      8  O   UNL     1       0.563  -6.376  -1.093  0.00  0.00    -0.150 OA
ATOM      9  O   UNL     1       0.359  -4.286  -2.433  0.00  0.00    -0.150 OA
BRANCH   7  10
ATOM     10  N   UNL     1       0.064  -4.226   0.020  0.00  0.00    -0.216 N 
ATOM     11  H   UNL     1      -0.463  -4.740   0.652  0.00  0.00    +0.174 HD
BRANCH  10  16
ATOM     12  C   UNL     1       0.690   1.364   0.735  0.00  0.00    +0.044 C 
ATOM     13  C   UNL     1       0.524  -0.122   0.545  0.00  0.00    -0.050 A 
ATOM     14  C   UNL     1       0.425  -0.647  -0.731  0.00  0.00    +0.005 A 
ATOM     15  C   UNL     1       0.273  -2.008  -0.908  0.00  0.00    +0.025 A 
ATOM     16  C   UNL     1       0.218  -2.850   0.196  0.00  0.00    +0.051 A 
ATOM     17  C   UNL     1       0.318  -2.318   1.475  0.00  0.00    -0.028 A 
ATOM     18  C   UNL     1       0.476  -0.957   1.646  0.00  0.00    +0.008 A 
ATOM     19  C   UNL     1       0.259  -3.227   2.676  0.00  0.00    +0.046 C 
ENDBRANCH  10  16
ENDBRANCH   7  10
ENDBRANCH   1   7
BRANCH   5  20
ATOM     20  N   UNL     1       5.490  -6.396   0.431  0.00  0.00    +0.058 N 
ATOM     21  O   UNL     1       4.979  -7.366   0.940  0.00  0.00    -0.126 OA
ATOM     22  O   UNL     1       6.682  -6.218   0.530  0.00  0.00    -0.126 OA
ENDBRANCH   5  20
BRANCH   4  23
ATOM     23  S   UNL     1       6.981  -4.049  -0.757  0.00  0.00    -0.048 S 
BRANCH  23  24
ATOM     24  C   UNL     1       7.677  -5.164  -1.931  0.00  0.00    +0.189 A 
ATOM     25  N   UNL     1       7.015  -6.047  -2.645  0.00  0.00    -0.201 NA
ATOM     26  H   UNL     1       9.713  -4.729  -1.895  0.00  0.00    +0.191 HD
ATOM     27  C   UNL     1       7.866  -6.721  -3.432  0.00  0.00    +0.182 A 
ATOM     28  N   UNL     1       9.083  -6.271  -3.224  0.00  0.00    -0.152 NA
ATOM     29  N   UNL     1       8.985  -5.257  -2.258  0.00  0.00    -0.253 N 
BRANCH  27  30
ATOM     30  C   UNL     1       7.494  -7.798  -4.382  0.00  0.00    +0.021 A 
ATOM     31  C   UNL     1       6.162  -8.183  -4.516  0.00  0.00    +0.011 A 
ATOM     32  C   UNL     1       5.822  -9.186  -5.401  0.00  0.00    +0.001 A 
ATOM     33  C   UNL     1       6.801  -9.809  -6.154  0.00  0.00    +0.000 A 
ATOM     34  C   UNL     1       8.125  -9.431  -6.024  0.00  0.00    +0.001 A 
ATOM     35  C   UNL     1       8.476  -8.425  -5.147  0.00  0.00    +0.011 A 
ENDBRANCH  27  30
ENDBRANCH  23  24
ENDBRANCH   4  23
TORSDOF 7
