REMARK  Name = ZINC03065561
REMARK  3 active torsions:
REMARK  status: ('A' for Active; 'I' for Inactive)
REMARK    1  A    between atoms: C_1  and  C_2
REMARK    2  A    between atoms: C_5  and  S_8
REMARK    3  A    between atoms: S_8  and  C_11
REMARK                            x       y       z     vdW  Elec       q    Type
REMARK                         _______ _______ _______ _____ _____    ______ ____
ROOT
ATOM      1  C   UNL     1       1.156   4.360   1.697  0.00  0.00    +0.116 A 
ATOM      2  C   UNL     1       2.240   5.054   2.199  0.00  0.00    +0.029 A 
ATOM      3  C   UNL     1       2.253   5.466   3.518  0.00  0.00    +0.003 A 
ATOM      4  C   UNL     1       1.182   5.171   4.343  0.00  0.00    +0.017 A 
ATOM      5  C   UNL     1       0.094   4.468   3.848  0.00  0.00    +0.036 A 
ATOM      6  C   UNL     1       0.074   4.058   2.517  0.00  0.00    +0.071 A 
ATOM      7  N   UNL     1      -1.002   3.358   1.978  0.00  0.00    -0.311 N 
ATOM      8  C   UNL     1      -1.910   2.600   2.713  0.00  0.00    +0.045 A 
ATOM      9  C   UNL     1      -2.613   1.587   2.068  0.00  0.00    +0.024 A 
ATOM     10  C   UNL     1      -3.525   0.817   2.765  0.00  0.00    +0.002 A 
ATOM     11  C   UNL     1      -3.747   1.048   4.110  0.00  0.00    +0.001 A 
ATOM     12  C   UNL     1      -3.053   2.051   4.761  0.00  0.00    +0.017 A 
ATOM     13  C   UNL     1      -2.134   2.827   4.067  0.00  0.00    +0.034 A 
ATOM     14  S   UNL     1      -1.257   4.098   4.915  0.00  0.00    -0.086 S 
ATOM     15  H   UNL     1      -1.130   3.403   1.018  0.00  0.00    +0.152 HD
ENDROOT
BRANCH   1  16
ATOM     16  S   UNL     1       1.147   3.847   0.011  0.00  0.00    +0.027 S 
ATOM     17  O   UNL     1       2.382   4.273  -0.549  0.00  0.00    -0.164 OA
ATOM     18  O   UNL     1      -0.109   4.239  -0.526  0.00  0.00    -0.164 OA
BRANCH  16  23
ATOM     19  C   UNL     1       1.229  -2.186  -0.022  0.00  0.00    +0.044 C 
ATOM     20  C   UNL     1       1.208  -0.679  -0.014  0.00  0.00    -0.050 A 
ATOM     21  C   UNL     1       0.002  -0.004   0.002  0.00  0.00    +0.005 A 
ATOM     22  C   UNL     1      -0.017   1.378   0.010  0.00  0.00    +0.027 A 
ATOM     23  C   UNL     1       1.171   2.086   0.002  0.00  0.00    +0.094 A 
ATOM     24  C   UNL     1       2.377   1.411  -0.014  0.00  0.00    +0.027 A 
ATOM     25  C   UNL     1       2.396   0.029  -0.021  0.00  0.00    +0.005 A 
ENDBRANCH  16  23
ENDBRANCH   1  16
TORSDOF 2
