REMARK  Name = ZINC25180445
REMARK  8 active torsions:
REMARK  status: ('A' for Active; 'I' for Inactive)
REMARK    1  A    between atoms: C_1  and  C_2
REMARK    2  A    between atoms: C_5  and  C_8
REMARK    3  A    between atoms: C_8  and  N_25
REMARK    4  A    between atoms: N_15  and  C_18
REMARK    5  A    between atoms: C_21  and  C_24
REMARK    6  A    between atoms: N_25  and  C_26
REMARK    7  A    between atoms: C_26  and  C_27
REMARK    8  A    between atoms: C_27  and  C_28
REMARK                            x       y       z     vdW  Elec       q    Type
REMARK                         _______ _______ _______ _____ _____    ______ ____
ROOT
ATOM      1  C   UNL     1       1.690  -5.174   0.371  0.00  0.00    +0.052 C 
ATOM      2  C   UNL     1       0.995  -5.561   1.520  0.00  0.00    +0.121 C 
ATOM      3  C   UNL     1       0.041  -6.679   1.500  0.00  0.00    +0.258 C 
ATOM      4  O   UNL     1      -0.169  -7.302   0.475  0.00  0.00    -0.269 OA
ATOM      5  N   UNL     1      -0.594  -6.998   2.646  0.00  0.00    -0.235 N 
ATOM      6  C   UNL     1      -0.371  -6.321   3.781  0.00  0.00    +0.320 C 
ATOM      7  O   UNL     1      -0.976  -6.658   4.781  0.00  0.00    -0.251 OA
ATOM      8  N   UNL     1       0.484  -5.293   3.871  0.00  0.00    -0.190 N 
ATOM      9  C   UNL     1       1.192  -4.870   2.804  0.00  0.00    +0.265 C 
ATOM     10  O   UNL     1       1.969  -3.938   2.899  0.00  0.00    -0.269 OA
ATOM     11  H   UNL     1      -1.227  -7.734   2.648  0.00  0.00    +0.159 HD
ENDROOT
BRANCH   1  16
ATOM     12  C   UNL     1       4.919  -0.415   0.429  0.00  0.00    +0.044 C 
ATOM     13  C   UNL     1       4.073  -1.662   0.414  0.00  0.00    -0.050 A 
ATOM     14  C   UNL     1       2.721  -1.580   0.700  0.00  0.00    +0.004 A 
ATOM     15  C   UNL     1       1.940  -2.717   0.688  0.00  0.00    +0.010 A 
ATOM     16  C   UNL     1       2.517  -3.954   0.386  0.00  0.00    -0.003 A 
ATOM     17  C   UNL     1       3.884  -4.029   0.099  0.00  0.00    +0.010 A 
ATOM     18  C   UNL     1       4.650  -2.882   0.110  0.00  0.00    +0.004 A 
ENDBRANCH   1  16
BRANCH   8  19
ATOM     19  C   UNL     1       0.650  -4.646   5.103  0.00  0.00    +0.046 A 
ATOM     20  C   UNL     1      -0.191  -3.601   5.460  0.00  0.00    +0.024 A 
ATOM     21  C   UNL     1      -0.025  -2.966   6.675  0.00  0.00    +0.005 A 
ATOM     22  C   UNL     1       0.980  -3.370   7.536  0.00  0.00    -0.050 A 
ATOM     23  C   UNL     1       1.820  -4.410   7.183  0.00  0.00    +0.005 A 
ATOM     24  C   UNL     1       1.654  -5.053   5.972  0.00  0.00    +0.024 A 
ATOM     25  C   UNL     1       1.159  -2.674   8.860  0.00  0.00    +0.044 C 
ENDBRANCH   8  19
BRANCH   1  26
ATOM     26  N   UNL     1       1.602  -5.925  -0.764  0.00  0.00    -0.342 N 
ATOM     27  H   UNL     1       1.837  -6.866  -0.742  0.00  0.00    +0.146 HD
BRANCH  26  28
ATOM     28  C   UNL     1       1.153  -5.311  -2.016  0.00  0.00    +0.107 C 
BRANCH  28  29
ATOM     29  C   UNL     1       1.190  -6.352  -3.137  0.00  0.00    +0.073 C 
BRANCH  29  30
ATOM     30  C   UNL     1       0.728  -5.720  -4.425  0.00  0.00    +0.037 A 
ATOM     31  C   UNL     1      -0.546  -5.576  -4.836  0.00  0.00    +0.133 A 
ATOM     32  N   UNL     1      -0.529  -4.967  -6.031  0.00  0.00    -0.244 NA
ATOM     33  C   UNL     1       0.707  -4.728  -6.375  0.00  0.00    +0.196 A 
ATOM     34  N   UNL     1       1.523  -5.177  -5.398  0.00  0.00    -0.348 N 
ATOM     35  H   UNL     1       2.491  -5.125  -5.388  0.00  0.00    +0.166 HD
ENDBRANCH  29  30
ENDBRANCH  28  29
ENDBRANCH  26  28
ENDBRANCH   1  26
TORSDOF 6
