REMARK  Name = ZINC65424290
REMARK  9 active torsions:
REMARK  status: ('A' for Active; 'I' for Inactive)
REMARK    1  A    between atoms: C_1  and  C_2
REMARK    2  A    between atoms: N_4  and  C_10
REMARK    3  A    between atoms: C_6  and  C_8
REMARK    4  A    between atoms: C_6  and  C_9
REMARK    5  A    between atoms: C_10  and  C_11
REMARK    6  A    between atoms: C_10  and  C_12
REMARK    7  A    between atoms: N_14  and  C_15
REMARK    8  A    between atoms: C_23  and  C_24
REMARK    9  A    between atoms: C_24  and  C_26
REMARK                            x       y       z     vdW  Elec       q    Type
REMARK                         _______ _______ _______ _____ _____    ______ ____
ROOT
ATOM      1  C   UNL     1       0.552  -2.338  -3.633  0.00  0.00    +0.234 C 
ATOM      2  O   UNL     1      -0.575  -1.929  -3.454  0.00  0.00    -0.274 OA
ATOM      3  N   UNL     1       1.040  -2.445  -4.885  0.00  0.00    -0.281 N 
ATOM      4  H   UNL     1       1.966  -2.697  -5.025  0.00  0.00    +0.155 HD
ENDROOT
BRANCH   3   5
ATOM      5  C   UNL     1       0.217  -2.194  -5.973  0.00  0.00    +0.091 A 
ATOM      6  C   UNL     1      -0.860  -1.201  -6.059  0.00  0.00    +0.042 A 
ATOM      7  C   UNL     1      -1.383  -0.259  -5.171  0.00  0.00    +0.013 A 
ATOM      8  C   UNL     1      -2.419   0.541  -5.565  0.00  0.00    +0.001 A 
ATOM      9  C   UNL     1      -2.953   0.422  -6.840  0.00  0.00    +0.004 A 
ATOM     10  C   UNL     1      -2.451  -0.502  -7.731  0.00  0.00    +0.047 A 
ATOM     11  C   UNL     1      -1.397  -1.327  -7.353  0.00  0.00    +0.138 A 
ATOM     12  O   UNL     1      -0.718  -2.297  -7.996  0.00  0.00    -0.450 OA
ATOM     13  C   UNL     1       0.245  -2.824  -7.205  0.00  0.00    +0.192 A 
BRANCH  13  14
ATOM     14  C   UNL     1       1.133  -3.850  -7.575  0.00  0.00    +0.197 C 
ATOM     15  O   UNL     1       1.889  -4.326  -6.752  0.00  0.00    -0.289 OA
ATOM     16  C   UNL     1       1.146  -4.360  -8.993  0.00  0.00    +0.095 C 
ENDBRANCH  13  14
ENDBRANCH   3   5
BRANCH   1  17
ATOM     17  C   UNL     1       1.409  -2.727  -2.456  0.00  0.00    +0.140 C 
ATOM     18  C   UNL     1       2.671  -1.863  -2.436  0.00  0.00    +0.034 C 
BRANCH  17  22
ATOM     19  C   UNL     1      -0.876   0.532   0.440  0.00  0.00    +0.039 C 
ATOM     20  C   UNL     1      -0.552  -0.948   0.223  0.00  0.00    +0.130 C 
ATOM     21  C   UNL     1       0.281  -1.107  -1.051  0.00  0.00    +0.116 C 
ATOM     22  N   UNL     1       0.654  -2.520  -1.212  0.00  0.00    -0.287 NA
ATOM     23  C   UNL     1       1.417  -2.993  -0.048  0.00  0.00    +0.119 C 
ATOM     24  C   UNL     1       0.573  -2.815   1.216  0.00  0.00    +0.077 C 
ATOM     25  O   UNL     1       0.193  -1.441   1.339  0.00  0.00    -0.368 OA
ATOM     26  C   UNL     1      -0.682  -3.685   1.119  0.00  0.00    +0.042 C 
ATOM     27  C   UNL     1       1.391  -3.231   2.440  0.00  0.00    +0.042 C 
ENDBRANCH  17  22
ENDBRANCH   1  17
TORSDOF 4
