REMARK  Name = ZINC61891479
REMARK  3 active torsions:
REMARK  status: ('A' for Active; 'I' for Inactive)
REMARK    1  A    between atoms: C_8  and  N_13
REMARK    2  A    between atoms: N_13  and  C_14
REMARK    3  A    between atoms: C_19  and  C_21
REMARK                            x       y       z     vdW  Elec       q    Type
REMARK                         _______ _______ _______ _____ _____    ______ ____
ROOT
ATOM      1  C   UNL     1      -0.017   1.379   0.010  0.00  0.00    +0.022 A 
ATOM      2  C   UNL     1       1.164   2.093   0.002  0.00  0.00    +0.025 A 
ATOM      3  C   UNL     1       2.386   1.424  -0.013  0.00  0.00    +0.039 A 
ATOM      4  C   UNL     1       2.392   0.034  -0.021  0.00  0.00    +0.001 A 
ATOM      5  C   UNL     1       1.213  -0.676  -0.013  0.00  0.00    +0.027 A 
ATOM      6  C   UNL     1       0.002  -0.004   0.002  0.00  0.00    +0.041 A 
ATOM      7 CL   UNL     1      -1.488  -0.895   0.012  0.00  0.00    -0.084 Cl
ATOM      8  C   UNL     1       3.844  -0.384  -0.037  0.00  0.00    +0.173 C 
ATOM      9  C   UNL     1       4.605   0.924  -0.037  0.00  0.00    +0.239 C 
ATOM     10  O   UNL     1       5.811   1.057  -0.048  0.00  0.00    -0.273 OA
ATOM     11  N   UNL     1       3.694   1.912  -0.023  0.00  0.00    -0.284 N 
ATOM     12  H   UNL     1       3.919   2.855  -0.020  0.00  0.00    +0.155 HD
ENDROOT
BRANCH   8  13
ATOM     13  N   UNL     1       4.144  -1.157  -1.250  0.00  0.00    -0.298 NA
ATOM     14  H   UNL     1       3.335  -1.678  -1.556  0.00  0.00    +0.123 HD
BRANCH  13  15
ATOM     15  C   UNL     1       5.293  -2.047  -1.037  0.00  0.00    +0.071 C 
ATOM     16  C   UNL     1       4.826  -3.410  -0.469  0.00  0.00    +0.020 C 
ATOM     17  C   UNL     1       5.977  -4.363  -0.877  0.00  0.00    +0.003 C 
ATOM     18  C   UNL     1       6.390  -3.877  -2.282  0.00  0.00    +0.020 C 
ATOM     19  C   UNL     1       5.957  -2.402  -2.383  0.00  0.00    +0.108 C 
BRANCH  19  20
ATOM     20  C   UNL     1       7.132  -1.543  -2.608  0.00  0.00    +0.067 C 
ATOM     21  N   UNL     1       8.038  -0.881  -2.782  0.00  0.00    -0.196 NA
ENDBRANCH  19  20
ENDBRANCH  13  15
ENDBRANCH   8  13
TORSDOF 3
