REMARK  Name = ZINC04026864
REMARK  5 active torsions:
REMARK  status: ('A' for Active; 'I' for Inactive)
REMARK    1  A    between atoms: C_1  and  C_2
REMARK    2  A    between atoms: C_2  and  C_27
REMARK    3  A    between atoms: N_7  and  N_8
REMARK    4  A    between atoms: N_8  and  C_9
REMARK    5  A    between atoms: C_9  and  N_11
REMARK                            x       y       z     vdW  Elec       q    Type
REMARK                         _______ _______ _______ _____ _____    ______ ____
ROOT
ATOM      1  C   UNL     1      -0.019   1.526   0.010  0.00  0.00    +0.011 C 
ATOM      2  C   UNL     1       0.002  -0.004   0.002  0.00  0.00    -0.023 C 
ATOM      3  C   UNL     1       0.729  -0.500  -1.253  0.00  0.00    +0.058 C 
ATOM      4  C   UNL     1       2.153  -0.036  -1.221  0.00  0.00    +0.020 C 
ATOM      5  C   UNL     1       2.816   0.191  -0.029  0.00  0.00    +0.057 C 
ATOM      6  C   UNL     1       4.209   0.675  -0.071  0.00  0.00    +0.073 C 
ATOM      7  N   UNL     1       4.726   1.248   0.973  0.00  0.00    -0.185 NA
ATOM      8  C   UNL     1       5.038   0.508  -1.322  0.00  0.00    +0.085 C 
ATOM      9  C   UNL     1       4.249  -0.296  -2.357  0.00  0.00    +0.109 C 
ATOM     10  N   UNL     1       2.865   0.166  -2.374  0.00  0.00    -0.325 N 
ATOM     11  C   UNL     1       2.252   0.835  -3.503  0.00  0.00    +0.110 C 
ATOM     12  C   UNL     1       2.730   0.299  -4.837  0.00  0.00    +0.054 C 
ATOM     13  C   UNL     1       4.209   0.043  -4.851  0.00  0.00    -0.041 A 
ATOM     14  C   UNL     1       4.899  -0.225  -3.702  0.00  0.00    -0.024 A 
ATOM     15  C   UNL     1       6.267  -0.453  -3.785  0.00  0.00    +0.006 A 
ATOM     16  C   UNL     1       6.917  -0.390  -5.000  0.00  0.00    +0.000 A 
ATOM     17  C   UNL     1       6.204  -0.096  -6.147  0.00  0.00    +0.000 A 
ATOM     18  C   UNL     1       4.875   0.096  -6.067  0.00  0.00    +0.004 A 
ATOM     19  C   UNL     1       2.170  -0.031   1.206  0.00  0.00    +0.167 C 
ATOM     20  O   UNL     1       2.768   0.167   2.244  0.00  0.00    -0.292 OA
ATOM     21  C   UNL     1       0.743  -0.513   1.242  0.00  0.00    +0.086 C 
ATOM     22  C   UNL     1      -1.433  -0.535   0.009  0.00  0.00    +0.011 C 
ENDROOT
BRANCH   7  23
ATOM     23  N   UNL     1       6.048   1.709   0.937  0.00  0.00    -0.218 N 
ATOM     24  H   UNL     1       6.578   1.600   0.132  0.00  0.00    +0.176 HD
BRANCH  23  25
ATOM     25  C   UNL     1       6.584   2.304   2.021  0.00  0.00    +0.147 C 
ATOM     26  S   UNL     1       8.200   2.867   1.978  0.00  0.00    -0.017 S 
BRANCH  25  27
ATOM     27  N   UNL     1       5.848   2.455   3.140  0.00  0.00    -0.339 N 
ATOM     28  H   UNL     1       4.932   2.136   3.165  0.00  0.00    +0.144 HD
ATOM     29  H   UNL     1       6.233   2.883   3.920  0.00  0.00    +0.144 HD
ENDBRANCH  25  27
ENDBRANCH  23  25
ENDBRANCH   7  23
TORSDOF 3
