REMARK  Name = ZINC04073313
REMARK  6 active torsions:
REMARK  status: ('A' for Active; 'I' for Inactive)
REMARK    1  A    between atoms: C_1  and  C_2
REMARK    2  A    between atoms: C_12  and  N_67
REMARK    3  A    between atoms: C_17  and  C_18
REMARK    4  A    between atoms: C_17  and  N_67
REMARK    5  A    between atoms: C_24  and  C_36
REMARK    6  A    between atoms: C_28  and  C_35
REMARK                            x       y       z     vdW  Elec       q    Type
REMARK                         _______ _______ _______ _____ _____    ______ ____
ROOT
ATOM      1  N   UNL     1       0.711   1.258  -4.767  0.00  0.00    +0.385 N 
ATOM      2  H   UNL     1       1.217   2.151  -4.806  0.00  0.00    -0.085 HD
ATOM      3  H   UNL     1       1.366   0.504  -4.530  0.00  0.00    -0.085 HD
ENDROOT
BRANCH   1  15
ATOM      4  C   UNL     1       4.366   2.251 -12.085  0.00  0.00    +0.044 C 
ATOM      5  C   UNL     1       3.668   2.415 -10.760  0.00  0.00    -0.050 A 
ATOM      6  C   UNL     1       3.870   3.578 -10.035  0.00  0.00    +0.005 A 
ATOM      7  C   UNL     1       3.265   3.799  -8.810  0.00  0.00    +0.026 A 
ATOM      8  C   UNL     1       2.430   2.794  -8.328  0.00  0.00    +0.047 A 
ATOM      9  C   UNL     1       2.225   1.605  -9.075  0.00  0.00    +0.003 A 
ATOM     10  C   UNL     1       2.851   1.407 -10.310  0.00  0.00    +0.013 A 
ATOM     11  C   UNL     1       1.315   0.794  -8.293  0.00  0.00    -0.021 A 
ATOM     12  C   UNL     1       1.028   1.488  -7.171  0.00  0.00    +0.006 A 
ATOM     13  N   UNL     1       1.692   2.687  -7.184  0.00  0.00    -0.359 N 
ATOM     14  H   UNL     1       1.645   3.358  -6.486  0.00  0.00    +0.166 HD
ATOM     15  C   UNL     1       0.108   0.983  -6.085  0.00  0.00    -0.024 C 
ATOM     16  C   UNL     1      -0.079  -0.528  -6.260  0.00  0.00    -0.009 C 
ATOM     17  C   UNL     1      -0.452  -0.830  -7.715  0.00  0.00    +0.003 C 
ATOM     18  C   UNL     1       0.759  -0.570  -8.618  0.00  0.00    +0.037 C 
ENDBRANCH   1  15
BRANCH   1  19
ATOM     19  C   UNL     1      -0.336   1.338  -3.731  0.00  0.00    -0.067 C 
BRANCH  19  20
ATOM     20  C   UNL     1       0.318   1.624  -2.378  0.00  0.00    +0.088 C 
ATOM     21  C   UNL     1      -0.747   1.590  -1.238  0.00  0.00    +0.046 C 
ATOM     22  C   UNL     1      -0.013   1.086   0.008  0.00  0.00    +0.039 C 
ATOM     23  C   UNL     1      -0.715   1.571   1.259  0.00  0.00    -0.064 C 
ATOM     24  C   UNL     1      -1.047   0.663   2.137  0.00  0.00    -0.073 C 
ATOM     25  C   UNL     1      -1.755   1.010   3.416  0.00  0.00    +0.030 C 
ATOM     26  C   UNL     1      -1.390   2.447   3.803  0.00  0.00    +0.005 C 
ATOM     27  C   UNL     1      -1.773   3.368   2.646  0.00  0.00    +0.011 C 
ATOM     28  C   UNL     1      -0.985   3.027   1.392  0.00  0.00    -0.007 C 
ATOM     29  C   UNL     1      -1.765   3.479   0.155  0.00  0.00    +0.056 C 
ATOM     30  C   UNL     1      -1.067   3.092  -1.120  0.00  0.00    +0.181 C 
ATOM     31  O   UNL     1       0.251   3.720  -1.336  0.00  0.00    -0.461 OA
ATOM     32  C   UNL     1       0.857   3.042  -2.337  0.00  0.00    +0.309 C 
ATOM     33  O   UNL     1       1.695   3.494  -3.081  0.00  0.00    -0.251 OA
ATOM     34  C   UNL     1       0.354   3.766   1.431  0.00  0.00    +0.016 C 
ATOM     35  C   UNL     1      -0.713  -0.781   1.866  0.00  0.00    +0.039 C 
ENDBRANCH  19  20
ENDBRANCH   1  19
TORSDOF 3
