REMARK  Name = ZINC39966545
REMARK  7 active torsions:
REMARK  status: ('A' for Active; 'I' for Inactive)
REMARK    1  A    between atoms: C_1  and  C_2
REMARK    2  A    between atoms: C_2  and  N_3
REMARK    3  A    between atoms: C_4  and  C_22
REMARK    4  A    between atoms: C_7  and  S_8
REMARK    5  A    between atoms: S_8  and  C_9
REMARK    6  A    between atoms: C_9  and  C_10
REMARK    7  A    between atoms: N_12  and  C_13
REMARK                            x       y       z     vdW  Elec       q    Type
REMARK                         _______ _______ _______ _____ _____    ______ ____
ROOT
ATOM      1  N   UNL     1      -0.857  -0.526  -0.271  0.00  0.00    -0.302 N 
ATOM      2  C   UNL     1      -1.465  -0.992   0.871  0.00  0.00    +0.166 A 
ATOM      3  N   UNL     1      -2.648  -1.440   0.522  0.00  0.00    -0.128 NA
ATOM      4  N   UNL     1      -2.821  -1.287  -0.742  0.00  0.00    -0.122 NA
ATOM      5  C   UNL     1      -1.761  -0.729  -1.278  0.00  0.00    +0.192 A 
ENDROOT
BRANCH   2   6
ATOM      6  C   UNL     1      -0.892  -0.991   2.234  0.00  0.00    +0.030 A 
ATOM      7  C   UNL     1       0.378  -1.443   2.445  0.00  0.00    +0.057 A 
ATOM      8  S   UNL     1       0.557  -1.223   4.208  0.00  0.00    -0.101 S 
ATOM      9  C   UNL     1      -1.051  -0.546   4.536  0.00  0.00    -0.006 A 
ATOM     10  C   UNL     1      -1.653  -0.517   3.322  0.00  0.00    -0.026 A 
ATOM     11  C   UNL     1      -3.084  -0.017   3.140  0.00  0.00    +0.036 C 
ATOM     12  C   UNL     1      -3.430   0.979   4.240  0.00  0.00    +0.005 C 
ATOM     13  C   UNL     1      -4.021   0.262   5.452  0.00  0.00    +0.001 C 
ATOM     14  C   UNL     1      -2.993  -0.695   6.048  0.00  0.00    +0.005 C 
ATOM     15  C   UNL     1      -1.601  -0.098   5.851  0.00  0.00    +0.043 C 
ENDBRANCH   2   6
BRANCH   1  17
ATOM     16  C   UNL     1       0.365   1.592  -0.288  0.00  0.00    +0.027 C 
ATOM     17  C   UNL     1       0.477   0.069  -0.385  0.00  0.00    +0.122 C 
ENDBRANCH   1  17
BRANCH   5  18
ATOM     18  S   UNL     1      -1.541  -0.320  -2.978  0.00  0.00    -0.077 S 
BRANCH  18  19
ATOM     19  C   UNL     1      -3.092  -0.843  -3.759  0.00  0.00    +0.173 C 
BRANCH  19  20
ATOM     20  C   UNL     1      -3.037  -0.545  -5.235  0.00  0.00    +0.228 C 
ATOM     21  O   UNL     1      -2.048  -0.031  -5.713  0.00  0.00    -0.275 OA
ATOM     22  N   UNL     1      -4.086  -0.851  -6.024  0.00  0.00    -0.283 N 
ATOM     23  H   UNL     1      -4.905  -1.190  -5.631  0.00  0.00    +0.155 HD
BRANCH  22  24
ATOM     24  C   UNL     1      -3.993  -0.680  -7.405  0.00  0.00    +0.065 A 
ATOM     25  C   UNL     1      -2.776  -0.620  -8.015  0.00  0.00    +0.026 A 
ATOM     26  C   UNL     1      -2.655  -0.450  -9.396  0.00  0.00    +0.004 A 
ATOM     27  C   UNL     1      -3.727  -0.335 -10.213  0.00  0.00    +0.033 A 
ATOM     28  C   UNL     1      -5.040  -0.384  -9.682  0.00  0.00    +0.136 A 
ATOM     29  C   UNL     1      -5.204  -0.569  -8.226  0.00  0.00    +0.155 A 
ATOM     30  N   UNL     1      -6.485  -0.592  -7.958  0.00  0.00    -0.047 NA
ATOM     31  O   UNL     1      -7.191  -0.435  -9.177  0.00  0.00    -0.242 OA
ATOM     32  N   UNL     1      -6.237  -0.302 -10.217  0.00  0.00    -0.049 NA
ENDBRANCH  22  24
ENDBRANCH  19  20
ENDBRANCH  18  19
ENDBRANCH   5  18
TORSDOF 6
