REMARK  Name = ZINC05570670
REMARK  8 active torsions:
REMARK  status: ('A' for Active; 'I' for Inactive)
REMARK    1  A    between atoms: C_1  and  C_2
REMARK    2  A    between atoms: C_4  and  C_27
REMARK    3  A    between atoms: C_5  and  C_9
REMARK    4  A    between atoms: C_7  and  C_8
REMARK    5  A    between atoms: C_9  and  C_11
REMARK    6  A    between atoms: C_11  and  S_12
REMARK    7  A    between atoms: S_12  and  C_13
REMARK    8  A    between atoms: N_25  and  C_26
REMARK                            x       y       z     vdW  Elec       q    Type
REMARK                         _______ _______ _______ _____ _____    ______ ____
ROOT
ATOM      1  C   UNL     1       2.507   1.508   1.254  0.00  0.00    +0.173 A 
ATOM      2  N   UNL     1       2.521   0.192   1.184  0.00  0.00    -0.216 NA
ATOM      3  C   UNL     1       1.408  -0.509   1.371  0.00  0.00    +0.117 A 
ATOM      4  C   UNL     1       0.179   0.104   1.650  0.00  0.00    +0.076 A 
ATOM      5  C   UNL     1      -0.967  -0.801   1.836  0.00  0.00    -0.023 A 
ATOM      6  C   UNL     1      -0.727  -2.117   1.718  0.00  0.00    -0.004 A 
ATOM      7  S   UNL     1       1.011  -2.237   1.363  0.00  0.00    -0.073 S 
ATOM      8  C   UNL     1      -1.969  -2.942   1.924  0.00  0.00    +0.043 C 
ATOM      9  C   UNL     1      -3.132  -1.938   1.766  0.00  0.00    +0.010 C 
ATOM     10  C   UNL     1      -2.453  -0.609   2.152  0.00  0.00    +0.037 C 
ATOM     11  C   UNL     1       0.191   1.533   1.719  0.00  0.00    +0.263 A 
ATOM     12  O   UNL     1      -0.834   2.151   1.952  0.00  0.00    -0.267 OA
ATOM     13  N   UNL     1       1.352   2.185   1.518  0.00  0.00    -0.290 N 
ATOM     14  C   UNL     1       1.375   3.648   1.586  0.00  0.00    +0.154 C 
ENDROOT
BRANCH   1  15
ATOM     15  S   UNL     1       4.001   2.407   0.999  0.00  0.00    -0.080 S 
BRANCH  15  16
ATOM     16  C   UNL     1       5.145   1.037   0.699  0.00  0.00    +0.157 C 
BRANCH  16  17
ATOM     17  C   UNL     1       6.527   1.582   0.449  0.00  0.00    +0.174 C 
ATOM     18  O   UNL     1       6.720   2.779   0.471  0.00  0.00    -0.291 OA
BRANCH  17  23
ATOM     19  C   UNL     1      10.887  -2.012  -0.610  0.00  0.00    +0.044 C 
ATOM     20  C   UNL     1       9.744  -1.070  -0.333  0.00  0.00    -0.047 A 
ATOM     21  C   UNL     1       9.939   0.297  -0.431  0.00  0.00    +0.007 A 
ATOM     22  C   UNL     1       8.897   1.165  -0.184  0.00  0.00    -0.040 A 
ATOM     23  C   UNL     1       7.643   0.662   0.177  0.00  0.00    +0.021 A 
ATOM     24  C   UNL     1       7.454  -0.720   0.274  0.00  0.00    +0.015 A 
ATOM     25  C   UNL     1       8.505  -1.576   0.019  0.00  0.00    -0.047 A 
ATOM     26  C   UNL     1       8.303  -3.066   0.122  0.00  0.00    +0.044 C 
ATOM     27  C   UNL     1       9.110   2.653  -0.298  0.00  0.00    +0.044 C 
ENDBRANCH  17  23
ENDBRANCH  16  17
ENDBRANCH  15  16
ENDBRANCH   1  15
TORSDOF 4
