REMARK  Name = ZINC65145359
REMARK  7 active torsions:
REMARK  status: ('A' for Active; 'I' for Inactive)
REMARK    1  A    between atoms: C_5  and  C_7
REMARK    2  A    between atoms: C_7  and  C_8
REMARK    3  A    between atoms: C_8  and  C_9
REMARK    4  A    between atoms: N_11  and  N_12
REMARK    5  A    between atoms: N_15  and  C_16
REMARK    6  A    between atoms: C_16  and  C_17
REMARK    7  A    between atoms: C_17  and  C_18
REMARK                            x       y       z     vdW  Elec       q    Type
REMARK                         _______ _______ _______ _____ _____    ______ ____
ROOT
ATOM      1  N   UNL     1       1.537  -6.289   2.552  0.00  0.00    -0.218 N 
ATOM      2  C   UNL     1       1.660  -6.968   3.710  0.00  0.00    +0.316 C 
ATOM      3  O   UNL     1       1.676  -8.184   3.703  0.00  0.00    -0.251 OA
ATOM      4  N   UNL     1       1.764  -6.300   4.875  0.00  0.00    -0.298 N 
ATOM      5  H   UNL     1       1.462  -6.770   1.713  0.00  0.00    +0.174 HD
ATOM      6  H   UNL     1       1.751  -5.330   4.881  0.00  0.00    +0.150 HD
ENDROOT
BRANCH   1   9
ATOM      7  C   UNL     1       1.396  -4.209   1.402  0.00  0.00    +0.229 C 
ATOM      8  O   UNL     1       1.302  -4.811   0.353  0.00  0.00    -0.274 OA
ATOM      9  N   UNL     1       1.518  -4.888   2.560  0.00  0.00    -0.233 N 
ATOM     10  H   UNL     1       1.594  -4.407   3.399  0.00  0.00    +0.173 HD
BRANCH   7  11
ATOM     11  C   UNL     1       1.376  -2.702   1.411  0.00  0.00    +0.102 C 
BRANCH  11  12
ATOM     12  C   UNL     1       1.229  -2.186  -0.022  0.00  0.00    +0.046 C 
BRANCH  12  17
ATOM     13  C   UNL     1      -0.017   1.378   0.010  0.00  0.00    +0.000 A 
ATOM     14  C   UNL     1       1.171   2.086   0.002  0.00  0.00    +0.001 A 
ATOM     15  C   UNL     1       2.377   1.412  -0.013  0.00  0.00    +0.020 A 
ATOM     16  C   UNL     1       2.397   0.029  -0.021  0.00  0.00    +0.044 A 
ATOM     17  C   UNL     1       1.208  -0.679  -0.013  0.00  0.00    -0.029 A 
ATOM     18  C   UNL     1       0.002  -0.004   0.002  0.00  0.00    +0.005 A 
ATOM     19 CL   UNL     1       3.912  -0.818  -0.041  0.00  0.00    -0.083 Cl
ENDBRANCH  12  17
ENDBRANCH  11  12
ENDBRANCH   7  11
ENDBRANCH   1   9
BRANCH   4  20
ATOM     20  C   UNL     1       1.897  -7.038   6.134  0.00  0.00    +0.112 C 
BRANCH  20  21
ATOM     21  C   UNL     1       1.997  -6.049   7.297  0.00  0.00    +0.074 C 
BRANCH  21  22
ATOM     22  C   UNL     1       2.134  -6.808   8.591  0.00  0.00    +0.043 A 
ATOM     23  C   UNL     1       3.198  -6.539   9.432  0.00  0.00    +0.023 A 
ATOM     24  C   UNL     1       3.315  -7.243  10.620  0.00  0.00    +0.003 A 
ATOM     25  C   UNL     1       2.353  -8.195  10.920  0.00  0.00    +0.020 A 
ATOM     26  C   UNL     1       1.317  -8.410  10.031  0.00  0.00    +0.111 A 
ATOM     27  N   UNL     1       1.235  -7.717   8.912  0.00  0.00    -0.260 NA
ENDBRANCH  21  22
ENDBRANCH  20  21
ENDBRANCH   4  20
TORSDOF 7
