REMARK  Name = ZINC43685589
REMARK  6 active torsions:
REMARK  status: ('A' for Active; 'I' for Inactive)
REMARK    1  A    between atoms: C_9  and  S_11
REMARK    2  A    between atoms: S_11  and  C_12
REMARK    3  A    between atoms: C_12  and  C_13
REMARK    4  A    between atoms: C_16  and  C_18
REMARK    5  A    between atoms: C_19  and  C_20
REMARK    6  A    between atoms: C_20  and  N_21
REMARK                            x       y       z     vdW  Elec       q    Type
REMARK                         _______ _______ _______ _____ _____    ______ ____
ROOT
ATOM      1  C   UNL     1       5.602  -2.978  -0.067  0.00  0.00    +0.119 C 
ENDROOT
BRANCH   1   2
ATOM      2  C   UNL     1       6.532  -4.164  -0.082  0.00  0.00    +0.001 A 
ATOM      3  C   UNL     1       7.053  -4.827  -1.146  0.00  0.00    +0.013 A 
ATOM      4  C   UNL     1       7.893  -5.896  -0.926  0.00  0.00    +0.025 A 
ATOM      5  C   UNL     1       8.175  -6.256   0.367  0.00  0.00    +0.062 A 
ATOM      6  S   UNL     1       7.239  -5.052   1.296  0.00  0.00    -0.084 S 
BRANCH   5   7
ATOM      7  C   UNL     1       9.008  -7.317   0.847  0.00  0.00    -0.058 C 
ATOM      8  C   UNL     1       9.691  -8.187   1.241  0.00  0.00    -0.081 C 
BRANCH   8   9
ATOM      9  C   UNL     1      10.547  -9.278   1.734  0.00  0.00    +0.168 C 
BRANCH   9  10
ATOM     10  N   UNL     1      10.545  -9.276   3.203  0.00  0.00    -0.320 NA
ATOM     11  H   UNL     1       9.605  -9.344   3.564  0.00  0.00    +0.119 HD
ATOM     12  H   UNL     1      11.127 -10.016   3.567  0.00  0.00    +0.119 HD
ENDBRANCH   9  10
ENDBRANCH   8   9
ENDBRANCH   5   7
ENDBRANCH   1   2
BRANCH   1  13
ATOM     13  S   UNL     1       3.883  -3.559  -0.053  0.00  0.00    -0.083 S 
BRANCH  13  22
ATOM     14  C   UNL     1      -0.017   1.375   0.010  0.00  0.00    +0.002 A 
ATOM     15  C   UNL     1       1.170   2.094   0.002  0.00  0.00    +0.002 A 
ATOM     16  C   UNL     1       2.382   1.442  -0.013  0.00  0.00    +0.030 A 
ATOM     17  C   UNL     1       2.418   0.045  -0.021  0.00  0.00    +0.090 A 
ATOM     18  C   UNL     1       1.214  -0.678  -0.013  0.00  0.00    +0.067 A 
ATOM     19  C   UNL     1       0.002  -0.004   0.002  0.00  0.00    +0.028 A 
ATOM     20  N   UNL     1       1.568  -2.017  -0.024  0.00  0.00    -0.333 N 
ATOM     21  H   UNL     1       0.960  -2.773  -0.022  0.00  0.00    +0.168 HD
ATOM     22  C   UNL     1       2.933  -2.075  -0.037  0.00  0.00    +0.168 A 
ATOM     23  N   UNL     1       3.429  -0.862  -0.036  0.00  0.00    -0.222 NA
ENDBRANCH  13  22
ENDBRANCH   1  13
TORSDOF 6
