REMARK  Name = ZINC08447352
REMARK  4 active torsions:
REMARK  status: ('A' for Active; 'I' for Inactive)
REMARK    1  A    between atoms: C_1  and  C_2
REMARK    2  A    between atoms: C_5  and  C_18
REMARK    3  A    between atoms: C_6  and  S_9
REMARK    4  A    between atoms: S_9  and  N_12
REMARK                            x       y       z     vdW  Elec       q    Type
REMARK                         _______ _______ _______ _____ _____    ______ ____
ROOT
ATOM      1  C   UNL     1      -2.471   3.581   4.551  0.00  0.00    +0.045 C 
ATOM      2  C   UNL     1      -1.894   2.766   3.422  0.00  0.00    -0.029 A 
ATOM      3  C   UNL     1      -0.664   2.153   3.571  0.00  0.00    +0.025 A 
ATOM      4  C   UNL     1      -0.135   1.405   2.535  0.00  0.00    +0.046 A 
ATOM      5  C   UNL     1      -0.836   1.270   1.350  0.00  0.00    -0.004 A 
ATOM      6  C   UNL     1      -2.062   1.888   1.199  0.00  0.00    +0.128 A 
ATOM      7  C   UNL     1      -2.595   2.631   2.237  0.00  0.00    +0.071 A 
ATOM      8 CL   UNL     1      -4.139   3.402   2.050  0.00  0.00    -0.081 Cl
ATOM      9  C   UNL     1      -0.258   0.455   0.221  0.00  0.00    +0.047 C 
ATOM     10 CL   UNL     1       1.410   0.634   2.722  0.00  0.00    -0.083 Cl
ENDROOT
BRANCH   6  11
ATOM     11  S   UNL     1      -2.952   1.723  -0.313  0.00  0.00    +0.063 S 
ATOM     12  O   UNL     1      -3.997   2.684  -0.276  0.00  0.00    -0.153 OA
ATOM     13  O   UNL     1      -1.983   1.690  -1.352  0.00  0.00    -0.153 OA
BRANCH  11  14
ATOM     14  N   UNL     1      -3.677   0.234  -0.294  0.00  0.00    -0.177 NA
ATOM     15  C   UNL     1      -2.985  -0.943  -0.838  0.00  0.00    +0.109 C 
ATOM     16  C   UNL     1      -2.970  -2.040   0.237  0.00  0.00    +0.017 C 
ATOM     17  C   UNL     1      -4.402  -2.313   0.700  0.00  0.00    +0.003 C 
ATOM     18  C   UNL     1      -4.991  -1.042   1.317  0.00  0.00    +0.017 C 
ATOM     19  C   UNL     1      -5.027   0.066   0.260  0.00  0.00    +0.109 C 
ENDBRANCH  11  14
ENDBRANCH   6  11
TORSDOF 2
