REMARK  Name = ZINC09446703
REMARK  9 active torsions:
REMARK  status: ('A' for Active; 'I' for Inactive)
REMARK    1  A    between atoms: C_1  and  C_2
REMARK    2  A    between atoms: C_5  and  C_37
REMARK    3  A    between atoms: N_8  and  S_10
REMARK    4  A    between atoms: S_10  and  C_13
REMARK    5  A    between atoms: C_16  and  C_19
REMARK    6  A    between atoms: N_21  and  C_22
REMARK    7  A    between atoms: C_23  and  C_35
REMARK    8  A    between atoms: C_31  and  O_33
REMARK    9  A    between atoms: O_33  and  C_34
REMARK                            x       y       z     vdW  Elec       q    Type
REMARK                         _______ _______ _______ _____ _____    ______ ____
ROOT
ATOM      1  C   UNL     1      -7.646   1.504   0.083  0.00  0.00    +0.249 C 
ATOM      2  O   UNL     1      -8.151   1.176   1.139  0.00  0.00    -0.270 OA
ATOM      3  N   UNL     1      -8.228   1.153  -1.081  0.00  0.00    -0.275 N 
ATOM      4  H   UNL     1      -7.825   1.415  -1.923  0.00  0.00    +0.156 HD
ENDROOT
BRANCH   3   5
ATOM      5  C   UNL     1      -9.405   0.419  -1.073  0.00  0.00    +0.090 A 
ATOM      6  C   UNL     1     -10.149  -0.027  -2.156  0.00  0.00    +0.084 A 
ATOM      7  C   UNL     1     -11.355  -0.788  -1.876  0.00  0.00    -0.015 A 
ATOM      8  C   UNL     1     -11.624  -0.972  -0.565  0.00  0.00    +0.013 A 
ATOM      9  S   UNL     1     -10.305  -0.159   0.290  0.00  0.00    -0.075 S 
ATOM     10  C   UNL     1     -12.790  -1.712   0.018  0.00  0.00    +0.153 C 
ATOM     11  N   UNL     1     -13.718  -2.005  -1.092  0.00  0.00    -0.262 N 
ATOM     12  C   UNL     1     -13.134  -2.459  -2.363  0.00  0.00    +0.116 C 
ATOM     13  C   UNL     1     -12.272  -1.344  -2.958  0.00  0.00    +0.056 C 
ATOM     14  C   UNL     1     -15.050  -1.863  -0.946  0.00  0.00    +0.403 C 
ATOM     15  O   UNL     1     -15.793  -2.111  -1.875  0.00  0.00    -0.226 OA
BRANCH  14  16
ATOM     16  O   UNL     1     -15.558  -1.445   0.229  0.00  0.00    -0.454 OA
ATOM     17  C   UNL     1     -17.002  -1.314   0.314  0.00  0.00    +0.282 C 
ENDBRANCH  14  16
BRANCH   6  18
ATOM     18  C   UNL     1      -9.741   0.250  -3.501  0.00  0.00    +0.102 C 
ATOM     19  N   UNL     1      -9.418   0.469  -4.567  0.00  0.00    -0.191 NA
ENDBRANCH   6  18
ENDBRANCH   3   5
BRANCH   1  23
ATOM     20  C   UNL     1      -4.043   3.754   0.061  0.00  0.00    +0.106 A 
ATOM     21  C   UNL     1      -4.642   3.400  -1.135  0.00  0.00    +0.029 A 
ATOM     22  C   UNL     1      -5.809   2.665  -1.135  0.00  0.00    +0.015 A 
ATOM     23  C   UNL     1      -6.392   2.287   0.075  0.00  0.00    +0.037 A 
ATOM     24  C   UNL     1      -5.786   2.652   1.279  0.00  0.00    +0.015 A 
ATOM     25  C   UNL     1      -4.616   3.382   1.264  0.00  0.00    +0.029 A 
BRANCH  20  26
ATOM     26  S   UNL     1      -2.550   4.688   0.052  0.00  0.00    +0.061 S 
ATOM     27  O   UNL     1      -2.485   5.364   1.300  0.00  0.00    -0.153 OA
ATOM     28  O   UNL     1      -2.509   5.377  -1.190  0.00  0.00    -0.153 OA
BRANCH  26  34
ATOM     29  C   UNL     1      -2.198   1.093  -1.204  0.00  0.00    +0.009 C 
ATOM     30  C   UNL     1      -0.752   1.593  -1.232  0.00  0.00    +0.002 C 
ATOM     31  C   UNL     1      -0.013   1.086   0.008  0.00  0.00    +0.009 C 
ATOM     32  C   UNL     1      -0.729   1.579   1.268  0.00  0.00    +0.002 C 
ATOM     33  C   UNL     1      -0.717   3.111   1.290  0.00  0.00    +0.112 C 
ATOM     34  N   UNL     1      -1.296   3.606   0.034  0.00  0.00    -0.176 NA
ATOM     35  C   UNL     1      -0.741   3.124  -1.238  0.00  0.00    +0.112 C 
ATOM     36  C   UNL     1      -0.008   1.045   2.507  0.00  0.00    +0.009 C 
ENDBRANCH  26  34
ENDBRANCH  20  26
ENDBRANCH   1  23
TORSDOF 6
