REMARK  Name = ZINC63072160
REMARK  11 active torsions:
REMARK  status: ('A' for Active; 'I' for Inactive)
REMARK    1  A    between atoms: C_1  and  C_2
REMARK    2  A    between atoms: C_2  and  O_3
REMARK    3  A    between atoms: O_3  and  C_4
REMARK    4  A    between atoms: C_9  and  N_10
REMARK    5  A    between atoms: C_11  and  C_13
REMARK    6  A    between atoms: C_22  and  N_24
REMARK    7  A    between atoms: N_24  and  C_25
REMARK    8  A    between atoms: C_25  and  C_26
REMARK    9  A    between atoms: C_35  and  O_37
REMARK   10  A    between atoms: O_37  and  C_38
REMARK   11  A    between atoms: C_38  and  C_39
REMARK                            x       y       z     vdW  Elec       q    Type
REMARK                         _______ _______ _______ _____ _____    ______ ____
ROOT
ATOM      1  C   UNL     1       3.314  -1.058  -5.409  0.00  0.00    +0.042 C 
ATOM      2  C   UNL     1       4.000  -1.534  -6.421  0.00  0.00    -0.043 C 
ATOM      3  C   UNL     1       4.286  -3.018  -6.647  0.00  0.00    +0.051 C 
ATOM      4  C   UNL     1       4.907  -3.154  -8.042  0.00  0.00    +0.115 C 
ATOM      5  N   UNL     1       6.079  -2.284  -8.166  0.00  0.00    -0.266 N 
ATOM      6  C   UNL     1       6.083  -0.940  -7.569  0.00  0.00    +0.129 C 
ATOM      7  C   UNL     1       4.623  -0.514  -7.383  0.00  0.00    +0.092 C 
ATOM      8  S   UNL     1       4.538   1.022  -6.379  0.00  0.00    -0.128 S 
ATOM      9  C   UNL     1       3.204   0.445  -5.239  0.00  0.00    +0.148 C 
ATOM     10  C   UNL     1       7.166  -2.720  -8.835  0.00  0.00    +0.403 C 
ATOM     11  O   UNL     1       8.141  -2.003  -8.942  0.00  0.00    -0.226 OA
ENDROOT
BRANCH   1  13
ATOM     12  N   UNL     1       1.953  -1.468  -3.424  0.00  0.00    -0.279 N 
ATOM     13  C   UNL     1       2.659  -1.968  -4.457  0.00  0.00    +0.247 C 
ATOM     14  O   UNL     1       2.753  -3.172  -4.603  0.00  0.00    -0.270 OA
ATOM     15  H   UNL     1       1.809  -0.511  -3.353  0.00  0.00    +0.155 HD
BRANCH  12  21
ATOM     16  C   UNL     1       0.318  -1.943  -1.703  0.00  0.00    +0.142 A 
ATOM     17  C   UNL     1      -0.201  -2.802  -0.748  0.00  0.00    +0.047 A 
ATOM     18  C   UNL     1       0.385  -4.036  -0.535  0.00  0.00    +0.004 A 
ATOM     19  C   UNL     1       1.490  -4.417  -1.275  0.00  0.00    +0.002 A 
ATOM     20  C   UNL     1       2.013  -3.567  -2.230  0.00  0.00    +0.027 A 
ATOM     21  C   UNL     1       1.427  -2.329  -2.453  0.00  0.00    +0.076 A 
BRANCH  16  22
ATOM     22  O   UNL     1      -0.257  -0.729  -1.913  0.00  0.00    -0.490 OA
BRANCH  22  24
ATOM     23  C   UNL     1      -1.898   0.993  -1.485  0.00  0.00    +0.048 C 
ATOM     24  C   UNL     1      -1.391  -0.401  -1.108  0.00  0.00    +0.226 C 
ENDBRANCH  22  24
ENDBRANCH  16  22
ENDBRANCH  12  21
ENDBRANCH   1  13
BRANCH   9  25
ATOM     25  N   UNL     1       3.484   0.843  -3.853  0.00  0.00    -0.297 NA
ATOM     26  H   UNL     1       2.629   1.024  -3.349  0.00  0.00    +0.124 HD
BRANCH  25  27
ATOM     27  C   UNL     1       4.378   2.008  -3.810  0.00  0.00    +0.115 C 
BRANCH  27  28
ATOM     28  C   UNL     1       4.642   2.387  -2.375  0.00  0.00    -0.028 C 
ATOM     29  C   UNL     1       5.696   2.011  -1.616  0.00  0.00    +0.000 A 
ATOM     30  C   UNL     1       6.867   1.168  -1.888  0.00  0.00    +0.010 A 
ATOM     31  C   UNL     1       7.774   0.969  -0.905  0.00  0.00    +0.001 A 
ATOM     32  C   UNL     1       7.624   1.546   0.364  0.00  0.00    +0.002 A 
ATOM     33  C   UNL     1       6.576   2.331   0.689  0.00  0.00    +0.026 A 
ATOM     34  C   UNL     1       5.561   2.608  -0.268  0.00  0.00    +0.043 A 
ATOM     35  N   UNL     1       4.466   3.325  -0.197  0.00  0.00    -0.380 N 
ATOM     36  C   UNL     1       3.785   3.269  -1.495  0.00  0.00    +0.146 C 
ATOM     37  H   UNL     1       4.160   3.815   0.582  0.00  0.00    +0.160 HD
ENDBRANCH  27  28
ENDBRANCH  25  27
ENDBRANCH   9  25
BRANCH  10  38
ATOM     38  O   UNL     1       7.170  -3.949  -9.384  0.00  0.00    -0.451 OA
BRANCH  38  39
ATOM     39  C   UNL     1       8.355  -4.345 -10.078  0.00  0.00    +0.230 C 
ATOM     40  C   UNL     1       8.173  -5.761 -10.630  0.00  0.00    +0.048 C 
ENDBRANCH  38  39
ENDBRANCH  10  38
TORSDOF 9
