REMARK  Name = ZINC39927289
REMARK  2 active torsions:
REMARK  status: ('A' for Active; 'I' for Inactive)
REMARK    1  A    between atoms: C_4  and  C_7
REMARK    2  A    between atoms: C_8  and  C_9
REMARK                            x       y       z     vdW  Elec       q    Type
REMARK                         _______ _______ _______ _____ _____    ______ ____
ROOT
ATOM      1  C   UNL     1       4.997  -2.740  -0.061  0.00  0.00    +0.147 C 
ATOM      2  N   UNL     1       6.115  -2.028  -0.063  0.00  0.00    -0.157 NA
ATOM      3  C   UNL     1       7.323  -2.588  -0.083  0.00  0.00    +0.272 C 
ATOM      4  O   UNL     1       8.332  -1.903  -0.082  0.00  0.00    -0.268 OA
ATOM      5  C   UNL     1       7.407  -4.085  -0.107  0.00  0.00    +0.071 C 
ATOM      6  C   UNL     1       8.512  -4.845  -0.192  0.00  0.00    -0.042 C 
ATOM      7  C   UNL     1       9.909  -4.289  -0.452  0.00  0.00    +0.033 C 
ATOM      8  C   UNL     1      10.455  -5.024  -1.684  0.00  0.00    +0.004 C 
ATOM      9  C   UNL     1      10.359  -6.535  -1.484  0.00  0.00    +0.002 C 
ATOM     10  C   UNL     1       8.898  -6.975  -1.355  0.00  0.00    +0.019 C 
ATOM     11  C   UNL     1       8.312  -6.353  -0.085  0.00  0.00    +0.079 C 
ATOM     12  S   UNL     1       6.485  -6.498  -0.102  0.00  0.00    -0.097 S 
ATOM     13  C   UNL     1       6.095  -4.766  -0.092  0.00  0.00    +0.112 C 
ATOM     14  N   UNL     1       4.984  -4.076  -0.068  0.00  0.00    -0.223 NA
ENDROOT
BRANCH   1  16
ATOM     15  C   UNL     1       3.692  -0.680  -0.037  0.00  0.00    +0.011 C 
ATOM     16  C   UNL     1       3.714  -2.027  -0.045  0.00  0.00    +0.046 C 
BRANCH  15  20
ATOM     17  C   UNL     1      -0.017   1.380   0.010  0.00  0.00    +0.000 A 
ATOM     18  C   UNL     1       1.168   2.095   0.002  0.00  0.00    +0.001 A 
ATOM     19  C   UNL     1       2.377   1.433  -0.013  0.00  0.00    +0.008 A 
ATOM     20  C   UNL     1       2.405   0.035  -0.021  0.00  0.00    -0.025 A 
ATOM     21  C   UNL     1       1.203  -0.681  -0.013  0.00  0.00    +0.008 A 
ATOM     22  C   UNL     1       0.002  -0.004   0.002  0.00  0.00    +0.001 A 
ENDBRANCH  15  20
ENDBRANCH   1  16
TORSDOF 2
