REMARK  Name = ZINC05562699
REMARK  6 active torsions:
REMARK  status: ('A' for Active; 'I' for Inactive)
REMARK    1  A    between atoms: C_1  and  C_2
REMARK    2  A    between atoms: N_4  and  C_5
REMARK    3  A    between atoms: C_8  and  C_11
REMARK    4  A    between atoms: C_14  and  C_25
REMARK    5  A    between atoms: C_20  and  N_24
REMARK    6  A    between atoms: C_21  and  C_22
REMARK                            x       y       z     vdW  Elec       q    Type
REMARK                         _______ _______ _______ _____ _____    ______ ____
ROOT
ATOM      1  C   UNL     1      -0.197  -6.058  -1.117  0.00  0.00    +0.102 C 
ATOM      2  C   UNL     1       1.026  -6.806  -1.581  0.00  0.00    +0.054 A 
ATOM      3  C   UNL     1       2.262  -6.962  -0.945  0.00  0.00    +0.102 A 
ATOM      4  N   UNL     1       3.031  -7.696  -1.726  0.00  0.00    -0.171 NA
ATOM      5  N   UNL     1       2.302  -8.026  -2.879  0.00  0.00    -0.246 N 
ATOM      6  H   UNL     1       2.624  -8.559  -3.624  0.00  0.00    +0.192 HD
ATOM      7  C   UNL     1       1.077  -7.473  -2.771  0.00  0.00    +0.223 A 
ATOM      8  O   UNL     1       0.028  -7.518  -3.630  0.00  0.00    -0.423 OA
ATOM      9  C   UNL     1      -1.174  -7.117  -3.169  0.00  0.00    +0.200 C 
ATOM     10  C   UNL     1      -1.350  -6.439  -2.012  0.00  0.00    +0.098 C 
ENDROOT
BRANCH   3  11
ATOM     11  C   UNL     1       2.641  -6.400   0.375  0.00  0.00    +0.021 A 
ATOM     12  C   UNL     1       1.783  -6.534   1.465  0.00  0.00    +0.011 A 
ATOM     13  C   UNL     1       2.141  -6.010   2.691  0.00  0.00    +0.001 A 
ATOM     14  C   UNL     1       3.349  -5.352   2.839  0.00  0.00    +0.001 A 
ATOM     15  C   UNL     1       4.205  -5.215   1.762  0.00  0.00    +0.020 A 
ATOM     16  C   UNL     1       3.860  -5.741   0.531  0.00  0.00    +0.050 A 
ATOM     17 CL   UNL     1       4.938  -5.574  -0.819  0.00  0.00    -0.083 Cl
ENDBRANCH   3  11
BRANCH   1  21
ATOM     18  C   UNL     1       0.501  -1.850  -1.378  0.00  0.00    +0.033 A 
ATOM     19  C   UNL     1       0.150  -2.423  -0.163  0.00  0.00    +0.023 A 
ATOM     20  C   UNL     1      -0.075  -3.783  -0.082  0.00  0.00    +0.006 A 
ATOM     21  C   UNL     1       0.049  -4.574  -1.209  0.00  0.00    -0.034 A 
ATOM     22  C   UNL     1       0.399  -4.007  -2.421  0.00  0.00    +0.006 A 
ATOM     23  C   UNL     1       0.619  -2.646  -2.510  0.00  0.00    +0.023 A 
BRANCH  18  27
ATOM     24  C   UNL     1       0.518   1.702  -2.624  0.00  0.00    +0.109 C 
ATOM     25  C   UNL     1       0.373   0.203  -2.574  0.00  0.00    +0.214 C 
ATOM     26  O   UNL     1      -0.065  -0.397  -3.533  0.00  0.00    -0.276 OA
ATOM     27  N   UNL     1       0.730  -0.472  -1.463  0.00  0.00    -0.286 N 
ATOM     28  H   UNL     1       1.145  -0.003  -0.723  0.00  0.00    +0.155 HD
ENDBRANCH  18  27
ENDBRANCH   1  21
BRANCH   9  29
ATOM     29  N   UNL     1      -2.285  -7.415  -3.919  0.00  0.00    -0.328 N 
ATOM     30  H   UNL     1      -2.192  -7.900  -4.753  0.00  0.00    +0.145 HD
ATOM     31  H   UNL     1      -3.164  -7.140  -3.613  0.00  0.00    +0.145 HD
ENDBRANCH   9  29
BRANCH  10  32
ATOM     32  C   UNL     1      -2.677  -6.071  -1.622  0.00  0.00    +0.101 C 
ATOM     33  N   UNL     1      -3.731  -5.778  -1.312  0.00  0.00    -0.191 NA
ENDBRANCH  10  32
TORSDOF 5
