REMARK  Name = ZINC64428108
REMARK  8 active torsions:
REMARK  status: ('A' for Active; 'I' for Inactive)
REMARK    1  A    between atoms: C_1  and  C_2
REMARK    2  A    between atoms: C_4  and  C_31
REMARK    3  A    between atoms: C_11  and  O_15
REMARK    4  A    between atoms: O_15  and  C_16
REMARK    5  A    between atoms: C_16  and  C_18
REMARK    6  A    between atoms: C_18  and  C_20
REMARK    7  A    between atoms: C_18  and  N_30
REMARK    8  A    between atoms: C_20  and  C_21
REMARK                            x       y       z     vdW  Elec       q    Type
REMARK                         _______ _______ _______ _____ _____    ______ ____
ROOT
ATOM      1  C   UNL     1       0.026   1.364  -0.041  0.00  0.00    +0.053 C 
ATOM      2  C   UNL     1      -0.058  -0.163   0.013  0.00  0.00    +0.185 C 
ATOM      3  C   UNL     1      -1.531  -0.594   0.060  0.00  0.00    +0.131 C 
ATOM      4  C   UNL     1      -2.130  -0.007   1.326  0.00  0.00    +0.178 C 
ATOM      5  O   UNL     1      -3.249   0.462   1.345  0.00  0.00    -0.291 OA
ATOM      6  C   UNL     1      -1.283  -0.036   2.529  0.00  0.00    +0.060 A 
ATOM      7  C   UNL     1      -1.822   0.243   3.788  0.00  0.00    +0.018 A 
ATOM      8  C   UNL     1      -1.018   0.217   4.891  0.00  0.00    +0.047 A 
ATOM      9  C   UNL     1       0.336  -0.086   4.766  0.00  0.00    +0.135 A 
ATOM     10  C   UNL     1       0.884  -0.367   3.524  0.00  0.00    +0.092 A 
ATOM     11  C   UNL     1       0.081  -0.349   2.394  0.00  0.00    +0.135 A 
ATOM     12  O   UNL     1       0.611  -0.636   1.182  0.00  0.00    -0.487 OA
ENDROOT
BRANCH   3  13
ATOM     13  C   UNL     1      -1.625  -2.097   0.095  0.00  0.00    -0.030 A 
ATOM     14  C   UNL     1      -1.049  -2.800   1.137  0.00  0.00    +0.008 A 
ATOM     15  C   UNL     1      -1.131  -4.180   1.176  0.00  0.00    +0.050 A 
ATOM     16  C   UNL     1      -1.795  -4.857   0.167  0.00  0.00    +0.162 A 
ATOM     17  C   UNL     1      -2.374  -4.152  -0.879  0.00  0.00    +0.162 A 
ATOM     18  C   UNL     1      -2.293  -2.770  -0.912  0.00  0.00    +0.054 A 
ATOM     19  O   UNL     1      -3.027  -4.828  -1.868  0.00  0.00    -0.488 OA
ATOM     20  C   UNL     1      -2.208  -5.629  -2.723  0.00  0.00    +0.232 C 
ATOM     21  C   UNL     1      -1.960  -6.996  -2.105  0.00  0.00    +0.082 C 
ATOM     22  C   UNL     1      -1.154  -6.913  -0.819  0.00  0.00    +0.232 C 
ATOM     23  O   UNL     1      -1.886  -6.218   0.193  0.00  0.00    -0.488 OA
ENDBRANCH   3  13
BRANCH   9  24
ATOM     24  O   UNL     1       1.125  -0.105   5.870  0.00  0.00    -0.425 OA
BRANCH  24  25
ATOM     25  C   UNL     1       0.934  -1.088   6.766  0.00  0.00    +0.330 C 
ATOM     26  O   UNL     1       0.152  -1.978   6.528  0.00  0.00    -0.249 OA
BRANCH  25  27
ATOM     27  C   UNL     1       1.694  -1.081   8.067  0.00  0.00    +0.165 C 
BRANCH  27  28
ATOM     28  N   UNL     1       1.694  -2.433   8.641  0.00  0.00    -0.318 NA
ATOM     29  H   UNL     1       0.753  -2.751   8.818  0.00  0.00    +0.119 HD
ATOM     30  H   UNL     1       2.188  -3.079   8.044  0.00  0.00    +0.119 HD
ENDBRANCH  27  28
BRANCH  27  31
ATOM     31  C   UNL     1       1.023  -0.112   9.043  0.00  0.00    +0.063 C 
BRANCH  31  32
ATOM     32  C   UNL     1       1.851  -0.011  10.299  0.00  0.00    -0.040 C 
ATOM     33  C   UNL     1       2.785   0.924  10.584  0.00  0.00    -0.001 A 
ATOM     34  C   UNL     1       3.292   2.083   9.839  0.00  0.00    +0.010 A 
ATOM     35  C   UNL     1       4.254   2.853  10.398  0.00  0.00    +0.001 A 
ATOM     36  C   UNL     1       4.778   2.572  11.667  0.00  0.00    +0.002 A 
ATOM     37  C   UNL     1       4.363   1.525  12.412  0.00  0.00    +0.026 A 
ATOM     38  C   UNL     1       3.355   0.649  11.923  0.00  0.00    +0.043 A 
ATOM     39  N   UNL     1       2.794  -0.414  12.445  0.00  0.00    -0.380 N 
ATOM     40  C   UNL     1       1.800  -0.932  11.497  0.00  0.00    +0.144 C 
ATOM     41  H   UNL     1       2.999  -0.794  13.313  0.00  0.00    +0.160 HD
ENDBRANCH  31  32
ENDBRANCH  27  31
ENDBRANCH  25  27
ENDBRANCH  24  25
ENDBRANCH   9  24
TORSDOF 7
