REMARK  Name = ZINC11332183
REMARK  5 active torsions:
REMARK  status: ('A' for Active; 'I' for Inactive)
REMARK    1  A    between atoms: C_4  and  N_27
REMARK    2  A    between atoms: C_5  and  C_7
REMARK    3  A    between atoms: C_10  and  C_12
REMARK    4  A    between atoms: C_13  and  C_14
REMARK    5  A    between atoms: C_14  and  C_16
REMARK                            x       y       z     vdW  Elec       q    Type
REMARK                         _______ _______ _______ _____ _____    ______ ____
ROOT
ATOM      1  C   UNL     1       1.948  -6.122  -0.793  0.00  0.00    +0.019 C 
ATOM      2  C   UNL     1       2.809  -6.326  -1.826  0.00  0.00    +0.052 C 
ENDROOT
BRANCH   1   6
ATOM      3  C   UNL     1       1.251  -2.159  -0.022  0.00  0.00    +0.022 A 
ATOM      4  C   UNL     1       0.577  -3.048   0.803  0.00  0.00    +0.017 A 
ATOM      5  C   UNL     1       0.755  -4.387   0.612  0.00  0.00    +0.016 A 
ATOM      6  C   UNL     1       1.608  -4.807  -0.407  0.00  0.00    +0.013 A 
ATOM      7  S   UNL     1       2.154  -3.256  -1.103  0.00  0.00    -0.089 S 
BRANCH   3  12
ATOM      8  C   UNL     1      -0.017   1.375   0.010  0.00  0.00    +0.001 A 
ATOM      9  C   UNL     1       1.171   2.086   0.002  0.00  0.00    +0.002 A 
ATOM     10  C   UNL     1       2.383   1.421  -0.013  0.00  0.00    +0.033 A 
ATOM     11  C   UNL     1       2.417   0.042  -0.021  0.00  0.00    +0.134 A 
ATOM     12  C   UNL     1       1.223  -0.683  -0.013  0.00  0.00    +0.019 A 
ATOM     13  C   UNL     1       0.002  -0.004   0.002  0.00  0.00    +0.011 A 
BRANCH  11  14
ATOM     14  N   UNL     1       3.715  -0.669  -0.038  0.00  0.00    +0.057 N 
ATOM     15  O   UNL     1       4.748  -0.041  -0.046  0.00  0.00    -0.126 OA
ATOM     16  O   UNL     1       3.743  -1.878  -0.045  0.00  0.00    -0.126 OA
ENDBRANCH  11  14
ENDBRANCH   3  12
ENDBRANCH   1   6
BRANCH   2  17
ATOM     17  C   UNL     1       3.150  -7.641  -2.212  0.00  0.00    +0.186 C 
ATOM     18  O   UNL     1       2.672  -8.593  -1.620  0.00  0.00    -0.287 OA
BRANCH  17  19
ATOM     19  C   UNL     1       4.085  -7.862  -3.335  0.00  0.00    +0.024 A 
ATOM     20  C   UNL     1       4.638  -6.771  -4.011  0.00  0.00    +0.015 A 
ATOM     21  C   UNL     1       5.511  -6.977  -5.058  0.00  0.00    +0.048 A 
ATOM     22  C   UNL     1       5.842  -8.267  -5.443  0.00  0.00    +0.142 A 
ATOM     23  C   UNL     1       5.293  -9.362  -4.772  0.00  0.00    +0.076 A 
ATOM     24  C   UNL     1       4.423  -9.163  -3.718  0.00  0.00    +0.038 A 
ATOM     25  N   UNL     1       5.640 -10.659  -5.177  0.00  0.00    -0.280 N 
ATOM     26  C   UNL     1       6.716 -10.829  -5.976  0.00  0.00    +0.255 C 
ATOM     27  O   UNL     1       7.017 -11.938  -6.364  0.00  0.00    -0.272 OA
ATOM     28  C   UNL     1       7.540  -9.634  -6.384  0.00  0.00    +0.325 C 
ATOM     29  O   UNL     1       6.702  -8.480  -6.474  0.00  0.00    -0.481 OA
ATOM     30  H   UNL     1       5.115 -11.422  -4.889  0.00  0.00    +0.155 HD
ENDBRANCH  17  19
ENDBRANCH   2  17
TORSDOF 5
