REMARK  Name = ZINC13064791
REMARK  15 active torsions:
REMARK  status: ('A' for Active; 'I' for Inactive)
REMARK    1  A    between atoms: C_1  and  C_2
REMARK    2  A    between atoms: C_2  and  C_3
REMARK    3  A    between atoms: C_3  and  C_5
REMARK    4  A    between atoms: C_3  and  N_74
REMARK    5  A    between atoms: N_9  and  C_10
REMARK    6  A    between atoms: C_10  and  C_11
REMARK    7  A    between atoms: C_10  and  C_12
REMARK    8  A    between atoms: C_10  and  C_13
REMARK    9  A    between atoms: C_13  and  C_14
REMARK   10  A    between atoms: C_15  and  C_16
REMARK   11  A    between atoms: C_15  and  N_74
REMARK   12  A    between atoms: C_25  and  C_26
REMARK   13  A    between atoms: C_25  and  N_74
REMARK   14  A    between atoms: C_29  and  C_39
REMARK   15  A    between atoms: C_31  and  C_38
REMARK                            x       y       z     vdW  Elec       q    Type
REMARK                         _______ _______ _______ _____ _____    ______ ____
ROOT
ATOM      1  N   UNL     1       1.268   2.163   4.606  0.00  0.00    +0.392 N 
ATOM      2  H   UNL     1       0.551   2.070   5.335  0.00  0.00    -0.080 HD
ENDROOT
BRANCH   1   3
ATOM      3  C   UNL     1       0.789   1.499   3.375  0.00  0.00    +0.003 C 
BRANCH   3   4
ATOM      4  C   UNL     1      -0.110   0.355   3.765  0.00  0.00    +0.139 A 
ATOM      5  N   UNL     1       0.034  -0.435   4.801  0.00  0.00    -0.115 NA
ATOM      6  N   UNL     1      -0.932  -1.289   4.788  0.00  0.00    -0.023 NA
ATOM      7  N   UNL     1      -1.691  -1.060   3.774  0.00  0.00    -0.043 NA
ATOM      8  N   UNL     1      -1.219  -0.052   3.120  0.00  0.00    -0.225 N 
BRANCH   8   9
ATOM      9  C   UNL     1      -1.782   0.535   1.901  0.00  0.00    +0.061 C 
ATOM     10  C   UNL     1      -0.700   0.601   0.821  0.00  0.00    +0.036 C 
ATOM     11  C   UNL     1      -2.289   1.946   2.203  0.00  0.00    +0.036 C 
BRANCH   9  12
ATOM     12  C   UNL     1      -2.943  -0.331   1.408  0.00  0.00    +0.026 C 
ATOM     13  C   UNL     1      -3.530   0.282   0.135  0.00  0.00    +0.006 C 
ENDBRANCH   9  12
ENDBRANCH   8   9
ENDBRANCH   3   4
BRANCH   3  15
ATOM     14  C   UNL     1       2.834   2.135   2.088  0.00  0.00    +0.002 C 
ATOM     15  C   UNL     1       1.971   0.965   2.563  0.00  0.00    -0.011 C 
ENDBRANCH   3  15
ENDBRANCH   1   3
BRANCH   1  16
ATOM     16  C   UNL     1       1.505   3.598   4.346  0.00  0.00    -0.041 C 
BRANCH  16  17
ATOM     17  C   UNL     1       0.179   4.315   4.353  0.00  0.00    -0.060 A 
ATOM     18  C   UNL     1      -0.479   4.561   3.163  0.00  0.00    +0.005 A 
ATOM     19  C   UNL     1      -1.698   5.213   3.165  0.00  0.00    +0.050 A 
ATOM     20  C   UNL     1      -2.257   5.633   4.361  0.00  0.00    +0.166 A 
ATOM     21  C   UNL     1      -1.592   5.391   5.560  0.00  0.00    +0.166 A 
ATOM     22  C   UNL     1      -0.373   4.731   5.550  0.00  0.00    +0.051 A 
ATOM     23  O   UNL     1      -2.340   5.896   6.584  0.00  0.00    -0.453 OA
ATOM     24  C   UNL     1      -3.268   6.808   5.968  0.00  0.00    +0.466 C 
ATOM     25  O   UNL     1      -3.422   6.290   4.633  0.00  0.00    -0.453 OA
ENDBRANCH  16  17
ENDBRANCH   1  16
BRANCH   1  26
ATOM     26  C   UNL     1       2.514   1.522   5.073  0.00  0.00    -0.036 C 
BRANCH  26  27
ATOM     27  C   UNL     1       2.161   0.242   5.787  0.00  0.00    +0.001 A 
ATOM     28  C   UNL     1       2.430  -0.953   5.204  0.00  0.00    +0.017 A 
ATOM     29  C   UNL     1       2.074  -2.177   5.923  0.00  0.00    +0.002 A 
ATOM     30  C   UNL     1       2.327  -3.439   5.374  0.00  0.00    -0.041 A 
ATOM     31  C   UNL     1       1.983  -4.562   6.071  0.00  0.00    +0.007 A 
ATOM     32  C   UNL     1       1.384  -4.463   7.319  0.00  0.00    -0.048 A 
ATOM     33  C   UNL     1       1.125  -3.231   7.880  0.00  0.00    +0.029 A 
ATOM     34  C   UNL     1       1.466  -2.073   7.189  0.00  0.00    +0.050 A 
ATOM     35  N   UNL     1       1.220  -0.828   7.726  0.00  0.00    -0.322 N 
ATOM     36  H   UNL     1       0.801  -0.758   8.599  0.00  0.00    +0.169 HD
ATOM     37  C   UNL     1       1.555   0.291   7.061  0.00  0.00    +0.251 A 
ATOM     38  O   UNL     1       1.327   1.376   7.568  0.00  0.00    -0.268 OA
ATOM     39  C   UNL     1       1.013  -5.717   8.070  0.00  0.00    +0.044 C 
ATOM     40  C   UNL     1       2.976  -3.557   4.019  0.00  0.00    +0.044 C 
ENDBRANCH  26  27
ENDBRANCH   1  26
TORSDOF 9
