REMARK  Name = ZINC40162296
REMARK  10 active torsions:
REMARK  status: ('A' for Active; 'I' for Inactive)
REMARK    1  A    between atoms: C_1  and  C_2
REMARK    2  A    between atoms: C_2  and  C_4
REMARK    3  A    between atoms: C_2  and  N_20
REMARK    4  A    between atoms: N_6  and  C_7
REMARK    5  A    between atoms: C_10  and  S_13
REMARK    6  A    between atoms: S_13  and  N_16
REMARK    7  A    between atoms: N_16  and  C_17
REMARK    8  A    between atoms: C_17  and  C_18
REMARK    9  A    between atoms: C_17  and  C_19
REMARK   10  A    between atoms: C_23  and  C_26
REMARK                            x       y       z     vdW  Elec       q    Type
REMARK                         _______ _______ _______ _____ _____    ______ ____
ROOT
ATOM      1  C   UNL     1      -0.197   1.519  -0.215  0.00  0.00    -0.004 C 
ATOM      2  C   UNL     1       0.001   0.009  -0.067  0.00  0.00    +0.016 C 
ENDROOT
BRANCH   2   3
ATOM      3  N   UNL     1      -1.299  -0.667  -0.161  0.00  0.00    +0.387 N 
ATOM      4  C   UNL     1      -1.096  -2.120  -0.142  0.00  0.00    -0.077 C 
ATOM      5  C   UNL     1      -2.452  -2.829  -0.158  0.00  0.00    -0.009 C 
ATOM      6  C   UNL     1      -3.213  -2.435  -1.427  0.00  0.00    +0.041 C 
ATOM      7  C   UNL     1      -3.354  -0.911  -1.474  0.00  0.00    -0.009 C 
ATOM      8  C   UNL     1      -1.965  -0.273  -1.409  0.00  0.00    -0.077 C 
ATOM      9  H   UNL     1      -1.874  -0.399   0.624  0.00  0.00    -0.081 HD
BRANCH   6  10
ATOM     10  C   UNL     1      -4.581  -3.068  -1.412  0.00  0.00    +0.082 A 
ATOM     11  N   UNL     1      -5.527  -2.899  -0.535  0.00  0.00    -0.244 NA
ATOM     12  C   UNL     1      -6.718  -3.527  -0.633  0.00  0.00    +0.078 A 
ATOM     13  C   UNL     1      -7.845  -3.466   0.213  0.00  0.00    +0.029 A 
ATOM     14  C   UNL     1      -8.963  -4.190  -0.071  0.00  0.00    +0.002 A 
ATOM     15  C   UNL     1      -9.035  -5.007  -1.190  0.00  0.00    +0.001 A 
ATOM     16  C   UNL     1      -7.950  -5.093  -2.043  0.00  0.00    +0.017 A 
ATOM     17  C   UNL     1      -6.818  -4.366  -1.766  0.00  0.00    +0.039 A 
ATOM     18  S   UNL     1      -5.232  -4.146  -2.528  0.00  0.00    -0.072 S 
ENDBRANCH   6  10
ENDBRANCH   2   3
BRANCH   2  19
ATOM     19  C   UNL     1       0.626  -0.286   1.272  0.00  0.00    +0.203 C 
ATOM     20  O   UNL     1      -0.041  -0.784   2.155  0.00  0.00    -0.277 OA
ATOM     21  N   UNL     1       1.924   0.002   1.488  0.00  0.00    -0.287 N 
ATOM     22  H   UNL     1       2.438   0.468   0.810  0.00  0.00    +0.155 HD
BRANCH  21  23
ATOM     23  C   UNL     1       2.533  -0.372   2.692  0.00  0.00    +0.033 A 
ATOM     24  C   UNL     1       3.864  -0.767   2.706  0.00  0.00    +0.025 A 
ATOM     25  C   UNL     1       4.462  -1.135   3.895  0.00  0.00    +0.030 A 
ATOM     26  C   UNL     1       3.735  -1.110   5.072  0.00  0.00    +0.105 A 
ATOM     27  C   UNL     1       2.409  -0.718   5.061  0.00  0.00    +0.030 A 
ATOM     28  C   UNL     1       1.808  -0.343   3.876  0.00  0.00    +0.025 A 
BRANCH  26  29
ATOM     29  S   UNL     1       4.501  -1.580   6.587  0.00  0.00    +0.059 S 
ATOM     30  O   UNL     1       3.458  -1.994   7.459  0.00  0.00    -0.153 OA
ATOM     31  O   UNL     1       5.590  -2.427   6.247  0.00  0.00    -0.153 OA
BRANCH  29  32
ATOM     32  N   UNL     1       5.157  -0.211   7.250  0.00  0.00    -0.187 NA
ATOM     33  H   UNL     1       6.118  -0.133   7.349  0.00  0.00    +0.148 HD
BRANCH  32  34
ATOM     34  C   UNL     1       4.284   0.881   7.686  0.00  0.00    +0.070 C 
ATOM     35  C   UNL     1       4.876   1.540   8.934  0.00  0.00    +0.025 C 
ATOM     36  C   UNL     1       4.167   1.919   6.568  0.00  0.00    +0.025 C 
ENDBRANCH  32  34
ENDBRANCH  29  32
ENDBRANCH  26  29
ENDBRANCH  21  23
ENDBRANCH   2  19
TORSDOF 7
