REMARK  Name = ZINC07284578
REMARK  9 active torsions:
REMARK  status: ('A' for Active; 'I' for Inactive)
REMARK    1  A    between atoms: C_1  and  C_2
REMARK    2  A    between atoms: C_5  and  C_26
REMARK    3  A    between atoms: C_6  and  N_8
REMARK    4  A    between atoms: C_12  and  S_13
REMARK    5  A    between atoms: S_13  and  C_14
REMARK    6  A    between atoms: C_14  and  C_15
REMARK    7  A    between atoms: N_17  and  C_18
REMARK    8  A    between atoms: C_21  and  C_25
REMARK    9  A    between atoms: C_23  and  O_24
REMARK                            x       y       z     vdW  Elec       q    Type
REMARK                         _______ _______ _______ _____ _____    ______ ____
ROOT
ATOM      1  S   UNL     1       2.591  -3.896   2.040  0.00  0.00    -0.078 S 
ENDROOT
BRANCH   1   6
ATOM      2  N   UNL     1       0.073  -2.758   2.416  0.00  0.00    -0.294 N 
ATOM      3  C   UNL     1      -0.925  -2.779   3.366  0.00  0.00    +0.113 A 
ATOM      4  C   UNL     1      -0.503  -3.580   4.360  0.00  0.00    +0.131 A 
ATOM      5  N   UNL     1       0.718  -4.043   4.041  0.00  0.00    -0.230 NA
ATOM      6  C   UNL     1       1.075  -3.562   2.873  0.00  0.00    +0.174 A 
BRANCH   2  12
ATOM      7  C   UNL     1       0.026   1.543   0.029  0.00  0.00    +0.044 C 
ATOM      8  C   UNL     1       0.035   0.036   0.021  0.00  0.00    -0.048 A 
ATOM      9  C   UNL     1       0.029  -0.649  -1.180  0.00  0.00    +0.004 A 
ATOM     10  C   UNL     1       0.037  -2.031  -1.191  0.00  0.00    +0.005 A 
ATOM     11  C   UNL     1       0.052  -2.733  -0.001  0.00  0.00    -0.027 A 
ATOM     12  C   UNL     1       0.059  -2.048   1.206  0.00  0.00    +0.052 A 
ATOM     13  C   UNL     1       0.056  -0.660   1.214  0.00  0.00    +0.029 A 
ATOM     14  C   UNL     1       0.060  -4.240  -0.014  0.00  0.00    +0.046 C 
ENDBRANCH   2  12
ENDBRANCH   1   6
BRANCH   1  15
ATOM     15  C   UNL     1       3.470  -5.019   3.161  0.00  0.00    +0.173 C 
BRANCH  15  16
ATOM     16  C   UNL     1       4.802  -5.388   2.561  0.00  0.00    +0.228 C 
ATOM     17  O   UNL     1       5.126  -4.938   1.482  0.00  0.00    -0.275 OA
ATOM     18  N   UNL     1       5.632  -6.219   3.222  0.00  0.00    -0.282 N 
ATOM     19  H   UNL     1       5.402  -6.528   4.112  0.00  0.00    +0.155 HD
BRANCH  18  20
ATOM     20  C   UNL     1       6.828  -6.636   2.623  0.00  0.00    +0.075 A 
ATOM     21  C   UNL     1       7.529  -5.773   1.793  0.00  0.00    +0.027 A 
ATOM     22  C   UNL     1       8.709  -6.186   1.204  0.00  0.00    +0.005 A 
ATOM     23  C   UNL     1       9.194  -7.460   1.440  0.00  0.00    -0.047 A 
ATOM     24  C   UNL     1       8.501  -8.325   2.266  0.00  0.00    +0.050 A 
ATOM     25  C   UNL     1       7.320  -7.917   2.865  0.00  0.00    +0.138 A 
ATOM     26  C   UNL     1      10.480  -7.905   0.794  0.00  0.00    +0.044 C 
BRANCH  25  27
ATOM     27  O   UNL     1       6.641  -8.765   3.682  0.00  0.00    -0.505 OA
ATOM     28  H   UNL     1       5.991  -9.316   3.224  0.00  0.00    +0.292 HD
ENDBRANCH  25  27
ENDBRANCH  18  20
ENDBRANCH  15  16
ENDBRANCH   1  15
TORSDOF 6
