REMARK  Name = ZINC05605026
REMARK  5 active torsions:
REMARK  status: ('A' for Active; 'I' for Inactive)
REMARK    1  A    between atoms: C_10  and  O_11
REMARK    2  A    between atoms: O_11  and  C_12
REMARK    3  A    between atoms: C_12  and  C_13
REMARK    4  A    between atoms: N_15  and  N_16
REMARK    5  A    between atoms: C_17  and  C_18
REMARK                            x       y       z     vdW  Elec       q    Type
REMARK                         _______ _______ _______ _____ _____    ______ ____
ROOT
ATOM      1  C   UNL     1       3.572   7.303   0.008  0.00  0.00    +0.270 C 
ATOM      2  O   UNL     1       2.511   7.891   0.021  0.00  0.00    -0.270 OA
ATOM      3  N   UNL     1       3.595   5.955   0.001  0.00  0.00    -0.204 N 
ATOM      4  H   UNL     1       4.444   5.485  -0.010  0.00  0.00    +0.177 HD
ENDROOT
BRANCH   3   5
ATOM      5  N   UNL     1       2.394   5.234   0.008  0.00  0.00    -0.188 NA
ATOM      6  C   UNL     1       2.417   3.936   0.001  0.00  0.00    +0.139 C 
BRANCH   6   7
ATOM      7  C   UNL     1       1.153   3.176   0.008  0.00  0.00    +0.008 A 
ATOM      8  C   UNL     1       1.173   1.780   0.000  0.00  0.00    +0.010 A 
ATOM      9  C   UNL     1      -0.013   1.076   0.008  0.00  0.00    +0.001 A 
ATOM     10  C   UNL     1      -1.222   1.750   0.017  0.00  0.00    +0.001 A 
ATOM     11  C   UNL     1      -1.250   3.132   0.031  0.00  0.00    +0.016 A 
ATOM     12  C   UNL     1      -0.071   3.851   0.023  0.00  0.00    +0.027 A 
ATOM     13 BR   UNL     1      -0.113   5.741   0.033  0.00  0.00    -0.050 Br
ENDBRANCH   6   7
ENDBRANCH   3   5
BRANCH   1  14
ATOM     14  C   UNL     1       4.863   8.079   0.001  0.00  0.00    +0.326 C 
BRANCH  14  15
ATOM     15  O   UNL     1       4.578   9.479   0.011  0.00  0.00    -0.482 OA
BRANCH  15  25
ATOM     16  C   UNL     1       5.090  14.472   0.033  0.00  0.00    +0.001 A 
ATOM     17  C   UNL     1       3.986  13.620   0.038  0.00  0.00    +0.001 A 
ATOM     18  C   UNL     1       4.144  12.268   0.029  0.00  0.00    +0.012 A 
ATOM     19  C   UNL     1       5.437  11.720   0.009  0.00  0.00    +0.024 A 
ATOM     20  C   UNL     1       6.559  12.585   0.009  0.00  0.00    -0.014 A 
ATOM     21  C   UNL     1       6.357  13.976   0.019  0.00  0.00    +0.008 A 
ATOM     22  C   UNL     1       7.853  12.036  -0.006  0.00  0.00    +0.009 A 
ATOM     23  C   UNL     1       8.013  10.684  -0.014  0.00  0.00    +0.004 A 
ATOM     24  C   UNL     1       6.914   9.830  -0.009  0.00  0.00    +0.046 A 
ATOM     25  C   UNL     1       5.640  10.325   0.005  0.00  0.00    +0.129 A 
ENDBRANCH  15  25
ENDBRANCH  14  15
ENDBRANCH   1  14
TORSDOF 5
