REMARK  Name = ZINC39452748
REMARK  6 active torsions:
REMARK  status: ('A' for Active; 'I' for Inactive)
REMARK    1  A    between atoms: C_1  and  C_2
REMARK    2  A    between atoms: C_2  and  O_3
REMARK    3  A    between atoms: O_3  and  N_4
REMARK    4  A    between atoms: C_18  and  O_19
REMARK    5  A    between atoms: C_21  and  C_26
REMARK    6  A    between atoms: C_31  and  O_32
REMARK                            x       y       z     vdW  Elec       q    Type
REMARK                         _______ _______ _______ _____ _____    ______ ____
ROOT
ATOM      1  N   UNL     1      -1.413  -1.449  -0.288  0.00  0.00    -0.138 N 
ATOM      2  C   UNL     1      -1.469  -2.264  -1.414  0.00  0.00    +0.149 A 
ATOM      3  C   UNL     1      -1.578  -3.635  -1.293  0.00  0.00    +0.085 A 
ATOM      4  C   UNL     1      -1.645  -4.251   0.044  0.00  0.00    +0.100 A 
ATOM      5  C   UNL     1      -1.588  -3.395   1.175  0.00  0.00    +0.070 A 
ATOM      6  C   UNL     1      -1.462  -1.945   0.960  0.00  0.00    +0.293 A 
ATOM      7  O   UNL     1      -1.406  -1.192   1.915  0.00  0.00    -0.264 OA
ATOM      8  C   UNL     1      -1.644  -3.924   2.457  0.00  0.00    +0.029 A 
ATOM      9  C   UNL     1      -1.759  -5.314   2.585  0.00  0.00    +0.043 A 
ATOM     10  C   UNL     1      -1.816  -6.137   1.374  0.00  0.00    +0.075 A 
ATOM     11  N   UNL     1      -1.756  -5.560   0.174  0.00  0.00    -0.244 NA
ATOM     12  C   UNL     1      -1.933  -7.531   1.512  0.00  0.00    +0.028 A 
ATOM     13  C   UNL     1      -1.990  -8.087   2.753  0.00  0.00    +0.006 A 
ATOM     14  C   UNL     1      -1.936  -7.315   3.907  0.00  0.00    +0.046 A 
ATOM     15  C   UNL     1      -1.823  -5.943   3.846  0.00  0.00    +0.126 A 
ATOM     16  N   UNL     1      -1.618  -4.426  -2.425  0.00  0.00    -0.333 N 
ATOM     17  C   UNL     1      -0.977  -3.924  -3.649  0.00  0.00    +0.112 C 
ATOM     18  C   UNL     1      -1.526  -2.522  -3.938  0.00  0.00    +0.108 C 
ATOM     19  C   UNL     1      -1.408  -1.675  -2.698  0.00  0.00    +0.187 C 
ATOM     20  O   UNL     1      -1.260  -0.474  -2.802  0.00  0.00    -0.290 OA
ATOM     21  H   UNL     1      -2.058  -5.291  -2.412  0.00  0.00    +0.147 HD
ENDROOT
BRANCH  17  22
ATOM     22  C   UNL     1       0.516  -3.855  -3.450  0.00  0.00    +0.014 A 
ATOM     23  C   UNL     1       1.045  -3.881  -2.174  0.00  0.00    +0.009 A 
ATOM     24  C   UNL     1       2.413  -3.818  -1.990  0.00  0.00    +0.001 A 
ATOM     25  C   UNL     1       3.256  -3.728  -3.083  0.00  0.00    +0.004 A 
ATOM     26  C   UNL     1       2.733  -3.701  -4.361  0.00  0.00    +0.046 A 
ATOM     27  C   UNL     1       1.359  -3.770  -4.548  0.00  0.00    +0.122 A 
BRANCH  27  28
ATOM     28  O   UNL     1       0.842  -3.750  -5.804  0.00  0.00    -0.506 OA
ATOM     29  H   UNL     1       0.647  -2.863  -6.135  0.00  0.00    +0.292 HD
ENDBRANCH  27  28
ENDBRANCH  17  22
BRANCH  15  30
ATOM     30  O   UNL     1      -1.772  -5.206   4.984  0.00  0.00    -0.506 OA
ATOM     31  H   UNL     1      -2.637  -4.920   5.306  0.00  0.00    +0.292 HD
ENDBRANCH  15  30
BRANCH   1  32
ATOM     32  O   UNL     1      -1.296  -0.048  -0.464  0.00  0.00    -0.408 OA
BRANCH  32  34
ATOM     33  C   UNL     1       0.060   1.936  -0.718  0.00  0.00    +0.051 C 
ATOM     34  C   UNL     1       0.053   0.418  -0.528  0.00  0.00    +0.257 C 
ENDBRANCH  32  34
ENDBRANCH   1  32
TORSDOF 5
