REMARK  Name = ZINC36571008
REMARK  14 active torsions:
REMARK  status: ('A' for Active; 'I' for Inactive)
REMARK    1  A    between atoms: C_1  and  C_2
REMARK    2  A    between atoms: C_2  and  C_3
REMARK    3  A    between atoms: C_3  and  C_4
REMARK    4  A    between atoms: C_4  and  N_5
REMARK    5  A    between atoms: C_6  and  C_8
REMARK    6  A    between atoms: C_8  and  C_10
REMARK    7  A    between atoms: C_8  and  N_17
REMARK    8  A    between atoms: C_15  and  O_16
REMARK    9  A    between atoms: N_17  and  C_18
REMARK   10  A    between atoms: C_18  and  C_19
REMARK   11  A    between atoms: C_19  and  C_20
REMARK   12  A    between atoms: C_21  and  C_23
REMARK   13  A    between atoms: C_24  and  O_30
REMARK   14  A    between atoms: C_28  and  O_29
REMARK                            x       y       z     vdW  Elec       q    Type
REMARK                         _______ _______ _______ _____ _____    ______ ____
ROOT
ATOM      1  C   UNL     1      -4.410  -4.429   0.132  0.00  0.00    +0.196 C 
ENDROOT
BRANCH   1   2
ATOM      2  C   UNL     1      -5.182  -4.018  -1.095  0.00  0.00    +0.023 A 
ATOM      3  C   UNL     1      -4.508  -3.656  -2.246  0.00  0.00    +0.009 A 
ATOM      4  C   UNL     1      -5.216  -3.278  -3.372  0.00  0.00    +0.001 A 
ATOM      5  C   UNL     1      -6.598  -3.261  -3.350  0.00  0.00    +0.004 A 
ATOM      6  C   UNL     1      -7.276  -3.622  -2.202  0.00  0.00    +0.046 A 
ATOM      7  C   UNL     1      -6.569  -4.007  -1.072  0.00  0.00    +0.122 A 
BRANCH   7   8
ATOM      8  O   UNL     1      -7.233  -4.368   0.057  0.00  0.00    -0.506 OA
ATOM      9  H   UNL     1      -7.481  -3.623   0.622  0.00  0.00    +0.292 HD
ENDBRANCH   7   8
ENDBRANCH   1   2
BRANCH   1  11
ATOM     10  N   UNL     1      -2.763  -2.586   0.050  0.00  0.00    -0.313 N 
ATOM     11  C   UNL     1      -2.998  -3.913   0.034  0.00  0.00    +0.238 C 
ATOM     12  O   UNL     1      -2.072  -4.691  -0.060  0.00  0.00    -0.273 OA
ATOM     13  H   UNL     1      -3.505  -1.962   0.051  0.00  0.00    +0.149 HD
BRANCH  10  14
ATOM     14  C   UNL     1      -1.386  -2.086   0.066  0.00  0.00    +0.104 C 
BRANCH  14  15
ATOM     15  C   UNL     1      -1.399  -0.556   0.082  0.00  0.00    +0.018 C 
BRANCH  15  17
ATOM     16  C   UNL     1       0.026   1.496   0.115  0.00  0.00    +0.004 C 
ATOM     17  C   UNL     1       0.039  -0.034   0.098  0.00  0.00    -0.002 C 
ENDBRANCH  15  17
ENDBRANCH  14  15
ENDBRANCH  10  14
ENDBRANCH   1  11
BRANCH   1  18
ATOM     18  N   UNL     1      -4.390  -5.891   0.229  0.00  0.00    -0.282 N 
ATOM     19  C   UNL     1      -3.960  -6.630  -0.814  0.00  0.00    +0.255 C 
ATOM     20  O   UNL     1      -3.590  -6.082  -1.835  0.00  0.00    -0.270 OA
BRANCH  19  21
ATOM     21  C   UNL     1      -3.940  -8.099  -0.717  0.00  0.00    +0.119 A 
ATOM     22  C   UNL     1      -5.059  -8.848  -1.110  0.00  0.00    +0.133 A 
ATOM     23  C   UNL     1      -5.029 -10.230  -1.014  0.00  0.00    +0.046 A 
ATOM     24  C   UNL     1      -3.902 -10.870  -0.534  0.00  0.00    +0.007 A 
ATOM     25  C   UNL     1      -2.794 -10.141  -0.143  0.00  0.00    +0.046 A 
ATOM     26  C   UNL     1      -2.800  -8.759  -0.236  0.00  0.00    +0.133 A 
BRANCH  26  27
ATOM     27  O   UNL     1      -1.709  -8.046   0.142  0.00  0.00    -0.506 OA
ATOM     28  H   UNL     1      -1.711  -7.790   1.075  0.00  0.00    +0.292 HD
ENDBRANCH  26  27
BRANCH  22  29
ATOM     29  O   UNL     1      -6.166  -8.222  -1.581  0.00  0.00    -0.506 OA
ATOM     30  H   UNL     1      -6.165  -8.090  -2.539  0.00  0.00    +0.292 HD
ENDBRANCH  22  29
ENDBRANCH  19  21
BRANCH  18  31
ATOM     31  C   UNL     1      -4.837  -6.550   1.458  0.00  0.00    +0.109 C 
BRANCH  31  32
ATOM     32  C   UNL     1      -6.304  -6.957   1.315  0.00  0.00    +0.016 C 
ATOM     33  C   UNL     1      -6.805  -7.536   2.640  0.00  0.00    +0.005 C 
ENDBRANCH  31  32
ENDBRANCH  18  31
ENDBRANCH   1  18
TORSDOF 12
