REMARK  Name = ZINC13139047
REMARK  10 active torsions:
REMARK  status: ('A' for Active; 'I' for Inactive)
REMARK    1  A    between atoms: C_1  and  C_2
REMARK    2  A    between atoms: C_2  and  N_3
REMARK    3  A    between atoms: N_3  and  C_4
REMARK    4  A    between atoms: N_3  and  C_6
REMARK    5  A    between atoms: C_4  and  C_5
REMARK    6  A    between atoms: C_9  and  C_12
REMARK    7  A    between atoms: C_20  and  O_33
REMARK    8  A    between atoms: C_23  and  C_24
REMARK    9  A    between atoms: C_23  and  N_69
REMARK   10  A    between atoms: N_26  and  C_27
REMARK                            x       y       z     vdW  Elec       q    Type
REMARK                         _______ _______ _______ _____ _____    ______ ____
ROOT
ATOM      1  C   UNL     1       1.011   7.000   3.596  0.00  0.00    -0.031 C 
ATOM      2  C   UNL     1       2.348   7.092   4.338  0.00  0.00    +0.011 C 
ATOM      3  C   UNL     1       3.451   6.552   3.433  0.00  0.00    +0.005 C 
ATOM      4  C   UNL     1       4.797   6.660   4.151  0.00  0.00    +0.000 C 
ATOM      5  C   UNL     1       5.083   8.127   4.477  0.00  0.00    +0.003 C 
ATOM      6  C   UNL     1       3.979   8.669   5.387  0.00  0.00    +0.035 C 
ATOM      7  C   UNL     1       2.629   8.557   4.680  0.00  0.00    +0.066 C 
ATOM      8  C   UNL     1       2.650   9.381   3.390  0.00  0.00    +0.016 C 
ATOM      9  C   UNL     1       1.309   9.221   2.670  0.00  0.00    -0.075 C 
ATOM     10  N   UNL     1       1.102   7.792   2.350  0.00  0.00    +0.390 N 
ATOM     11  H   UNL     1       1.900   7.455   1.799  0.00  0.00    -0.080 HD
ENDROOT
BRANCH   1  15
ATOM     12  C   UNL     1       0.216   2.922   2.592  0.00  0.00    +0.030 A 
ATOM     13  C   UNL     1       1.093   3.671   1.818  0.00  0.00    +0.023 A 
ATOM     14  C   UNL     1       1.343   4.990   2.142  0.00  0.00    +0.004 A 
ATOM     15  C   UNL     1       0.731   5.562   3.242  0.00  0.00    -0.060 A 
ATOM     16  C   UNL     1      -0.139   4.818   4.018  0.00  0.00    +0.004 A 
ATOM     17  C   UNL     1      -0.398   3.500   3.696  0.00  0.00    +0.023 A 
BRANCH  12  18
ATOM     18  N   UNL     1      -0.044   1.590   2.265  0.00  0.00    -0.330 N 
BRANCH  18  20
ATOM     19  C   UNL     1      -0.272   1.189  -0.137  0.00  0.00    +0.024 C 
ATOM     20  C   UNL     1       0.604   0.982   1.100  0.00  0.00    +0.102 C 
ENDBRANCH  18  20
BRANCH  18  21
ATOM     21  C   UNL     1      -0.965   0.799   3.086  0.00  0.00    +0.102 C 
ATOM     22  C   UNL     1      -0.183   0.105   4.204  0.00  0.00    +0.024 C 
ENDBRANCH  18  21
ENDBRANCH  12  18
ENDBRANCH   1  15
BRANCH   7  23
ATOM     23  O   UNL     1       1.600   9.049   5.541  0.00  0.00    -0.388 OA
ATOM     24  H   UNL     1       1.710   9.975   5.795  0.00  0.00    +0.210 HD
ENDBRANCH   7  23
BRANCH  10  25
ATOM     25  C   UNL     1      -0.133   7.627   1.557  0.00  0.00    +0.020 C 
BRANCH  25  26
ATOM     26  C   UNL     1      -1.323   8.169   2.307  0.00  0.00    +0.201 C 
ATOM     27  O   UNL     1      -1.195   8.552   3.451  0.00  0.00    -0.278 OA
ATOM     28  N   UNL     1      -2.529   8.226   1.708  0.00  0.00    -0.287 N 
ATOM     29  H   UNL     1      -2.648   7.852   0.821  0.00  0.00    +0.155 HD
BRANCH  28  30
ATOM     30  C   UNL     1      -3.608   8.826   2.365  0.00  0.00    +0.033 A 
ATOM     31  C   UNL     1      -3.753   8.684   3.739  0.00  0.00    +0.023 A 
ATOM     32  C   UNL     1      -4.817   9.282   4.386  0.00  0.00    +0.002 A 
ATOM     33  C   UNL     1      -5.743  10.013   3.665  0.00  0.00    +0.000 A 
ATOM     34  C   UNL     1      -5.606  10.152   2.296  0.00  0.00    +0.002 A 
ATOM     35  C   UNL     1      -4.541   9.561   1.644  0.00  0.00    +0.023 A 
ENDBRANCH  28  30
ENDBRANCH  25  26
ENDBRANCH  10  25
TORSDOF 8
