REMARK  Name = ZINC14776639
REMARK  10 active torsions:
REMARK  status: ('A' for Active; 'I' for Inactive)
REMARK    1  A    between atoms: C_1  and  C_2
REMARK    2  A    between atoms: C_2  and  C_3
REMARK    3  A    between atoms: C_3  and  O_4
REMARK    4  A    between atoms: O_4  and  C_5
REMARK    5  A    between atoms: C_10  and  C_11
REMARK    6  A    between atoms: N_13  and  C_14
REMARK    7  A    between atoms: C_14  and  N_16
REMARK    8  A    between atoms: N_16  and  N_17
REMARK    9  A    between atoms: C_18  and  C_20
REMARK   10  A    between atoms: C_20  and  N_21
REMARK                            x       y       z     vdW  Elec       q    Type
REMARK                         _______ _______ _______ _____ _____    ______ ____
ROOT
ATOM      1  C   UNL     1       3.540   5.996  -0.001  0.00  0.00    +0.153 C 
ATOM      2  S   UNL     1       5.041   5.171  -0.020  0.00  0.00    -0.017 S 
ENDROOT
BRANCH   1   5
ATOM      3  C   UNL     1       2.416   3.950  -0.001  0.00  0.00    +0.253 C 
ATOM      4  O   UNL     1       3.481   3.365  -0.014  0.00  0.00    -0.270 OA
ATOM      5  N   UNL     1       2.388   5.298   0.006  0.00  0.00    -0.263 N 
ATOM      6  H   UNL     1       1.538   5.765   0.017  0.00  0.00    +0.157 HD
BRANCH   3  12
ATOM      7  C   UNL     1       1.180   1.785   0.000  0.00  0.00    +0.133 A 
ATOM      8  C   UNL     1      -0.013   1.076   0.008  0.00  0.00    +0.047 A 
ATOM      9  C   UNL     1      -1.218   1.749   0.017  0.00  0.00    +0.019 A 
ATOM     10  C   UNL     1      -1.247   3.135   0.030  0.00  0.00    +0.019 A 
ATOM     11  C   UNL     1      -0.072   3.855   0.022  0.00  0.00    +0.032 A 
ATOM     12  C   UNL     1       1.155   3.186   0.008  0.00  0.00    +0.080 A 
ATOM     13 BR   UNL     1      -2.907   4.041   0.050  0.00  0.00    -0.050 Br
BRANCH   7  14
ATOM     14  O   UNL     1       2.365   1.124  -0.015  0.00  0.00    -0.491 OA
BRANCH  14  15
ATOM     15  C   UNL     1       2.312  -0.304  -0.022  0.00  0.00    +0.229 C 
BRANCH  15  17
ATOM     16  C   UNL     1       3.677  -2.396  -0.046  0.00  0.00    +0.007 C 
ATOM     17  C   UNL     1       3.734  -0.867  -0.038  0.00  0.00    +0.038 C 
ENDBRANCH  15  17
ENDBRANCH  14  15
ENDBRANCH   7  14
ENDBRANCH   3  12
ENDBRANCH   1   5
BRANCH   1  18
ATOM     18  N   UNL     1       3.512   7.343   0.006  0.00  0.00    -0.245 N 
ATOM     19  H   UNL     1       4.342   7.846   0.000  0.00  0.00    +0.172 HD
BRANCH  18  20
ATOM     20  N   UNL     1       2.284   8.018   0.021  0.00  0.00    -0.234 N 
ATOM     21  C   UNL     1       2.256   9.365   0.028  0.00  0.00    +0.249 C 
ATOM     22  O   UNL     1       3.293   9.994   0.021  0.00  0.00    -0.272 OA
ATOM     23  H   UNL     1       1.455   7.515   0.027  0.00  0.00    +0.173 HD
BRANCH  21  24
ATOM     24  C   UNL     1       0.935  10.091   0.045  0.00  0.00    +0.219 C 
BRANCH  24  25
ATOM     25  N   UNL     1       1.173  11.537   0.050  0.00  0.00    -0.338 N 
ATOM     26  C   UNL     1       1.215  12.323   1.169  0.00  0.00    +0.087 A 
ATOM     27  C   UNL     1       1.453  13.598   0.824  0.00  0.00    +0.027 A 
ATOM     28  C   UNL     1       1.572  13.632  -0.635  0.00  0.00    -0.000 A 
ATOM     29  C   UNL     1       1.393  12.306  -1.071  0.00  0.00    +0.049 A 
ATOM     30  C   UNL     1       1.447  12.023  -2.432  0.00  0.00    +0.026 A 
ATOM     31  C   UNL     1       1.685  13.037  -3.333  0.00  0.00    +0.002 A 
ATOM     32  C   UNL     1       1.867  14.343  -2.898  0.00  0.00    +0.001 A 
ATOM     33  C   UNL     1       1.812  14.645  -1.566  0.00  0.00    +0.010 A 
ENDBRANCH  24  25
ENDBRANCH  21  24
ENDBRANCH  18  20
ENDBRANCH   1  18
TORSDOF 9
