REMARK  Name = ZINC23877054
REMARK  10 active torsions:
REMARK  status: ('A' for Active; 'I' for Inactive)
REMARK    1  A    between atoms: C_1  and  C_2
REMARK    2  A    between atoms: C_2  and  N_3
REMARK    3  A    between atoms: C_7  and  C_12
REMARK    4  A    between atoms: C_12  and  O_14
REMARK    5  A    between atoms: O_14  and  C_15
REMARK    6  A    between atoms: C_15  and  C_17
REMARK    7  A    between atoms: C_15  and  C_18
REMARK    8  A    between atoms: N_20  and  C_21
REMARK    9  A    between atoms: C_21  and  C_23
REMARK   10  A    between atoms: C_21  and  C_24
REMARK                            x       y       z     vdW  Elec       q    Type
REMARK                         _______ _______ _______ _____ _____    ______ ____
ROOT
ATOM      1  C   UNL     1      -3.583  -0.747   2.315  0.00  0.00    +0.259 C 
ATOM      2  C   UNL     1      -4.227   0.101   3.414  0.00  0.00    +0.062 C 
ENDROOT
BRANCH   1   3
ATOM      3  C   UNL     1      -2.209  -0.209   2.006  0.00  0.00    +0.254 C 
ATOM      4  O   UNL     1      -1.234  -0.916   2.152  0.00  0.00    -0.272 OA
ATOM      5  N   UNL     1      -2.064   1.056   1.567  0.00  0.00    -0.306 N 
ATOM      6  H   UNL     1      -2.948   1.697   1.435  0.00  0.00    +0.149 HD
BRANCH   5   7
ATOM      7  C   UNL     1      -0.729   1.579   1.267  0.00  0.00    +0.102 C 
ATOM      8  C   UNL     1      -0.364   1.244  -0.181  0.00  0.00    +0.033 C 
BRANCH   7   9
ATOM      9  C   UNL     1      -0.721   3.075   1.453  0.00  0.00    -0.009 A 
ATOM     10  C   UNL     1      -1.889   3.797   1.294  0.00  0.00    +0.008 A 
ATOM     11  C   UNL     1      -1.883   5.168   1.465  0.00  0.00    +0.020 A 
ATOM     12  C   UNL     1      -0.707   5.819   1.794  0.00  0.00    +0.042 A 
ATOM     13  C   UNL     1       0.462   5.097   1.954  0.00  0.00    +0.040 A 
ATOM     14  C   UNL     1       0.454   3.724   1.789  0.00  0.00    +0.047 A 
ATOM     15 CL   UNL     1       1.919   2.816   1.996  0.00  0.00    -0.083 Cl
ATOM     16 CL   UNL     1      -0.700   7.542   2.009  0.00  0.00    -0.083 Cl
ENDBRANCH   7   9
ENDBRANCH   5   7
ENDBRANCH   1   3
BRANCH   1  17
ATOM     17  O   UNL     1      -3.473  -2.123   2.767  0.00  0.00    -0.449 OA
BRANCH  17  18
ATOM     18  C   UNL     1      -4.513  -2.938   2.502  0.00  0.00    +0.340 C 
ATOM     19  O   UNL     1      -5.484  -2.511   1.910  0.00  0.00    -0.245 OA
BRANCH  18  24
ATOM     20  N   UNL     1      -4.607  -8.321   4.018  0.00  0.00    -0.244 N 
ATOM     21  C   UNL     1      -4.365  -6.997   3.751  0.00  0.00    +0.089 A 
ATOM     22  C   UNL     1      -3.299  -6.141   4.017  0.00  0.00    +0.030 A 
ATOM     23  C   UNL     1      -3.347  -4.841   3.610  0.00  0.00    +0.017 A 
ATOM     24  C   UNL     1      -4.472  -4.349   2.932  0.00  0.00    +0.061 A 
ATOM     25  C   UNL     1      -5.546  -5.187   2.658  0.00  0.00    +0.046 A 
ATOM     26  C   UNL     1      -5.500  -6.523   3.067  0.00  0.00    +0.113 A 
ATOM     27  N   UNL     1      -6.367  -7.556   2.949  0.00  0.00    -0.129 NA
ATOM     28  N   UNL     1      -5.874  -8.613   3.493  0.00  0.00    -0.065 NA
BRANCH  20  30
ATOM     29  C   UNL     1      -2.799  -9.937   3.703  0.00  0.00    +0.029 C 
ATOM     30  C   UNL     1      -3.716  -9.250   4.717  0.00  0.00    +0.142 C 
ENDBRANCH  20  30
ENDBRANCH  18  24
ENDBRANCH  17  18
ENDBRANCH   1  17
TORSDOF 7
