REMARK  Name = ZINC39479936
REMARK  4 active torsions:
REMARK  status: ('A' for Active; 'I' for Inactive)
REMARK    1  A    between atoms: C_1  and  C_2
REMARK    2  A    between atoms: C_2  and  O_3
REMARK    3  A    between atoms: O_3  and  C_4
REMARK    4  A    between atoms: N_10  and  C_22
REMARK                            x       y       z     vdW  Elec       q    Type
REMARK                         _______ _______ _______ _____ _____    ______ ____
ROOT
ATOM      1  C   UNL     1      -1.447  -1.653  -0.263  0.00  0.00    +0.145 A 
ATOM      2  C   UNL     1      -0.281  -2.385  -0.476  0.00  0.00    +0.086 A 
ATOM      3  C   UNL     1      -0.310  -3.770  -0.556  0.00  0.00    +0.127 A 
ATOM      4  C   UNL     1      -1.490  -4.458  -0.280  0.00  0.00    +0.044 A 
ATOM      5  C   UNL     1      -2.593  -3.733  -0.008  0.00  0.00    -0.013 A 
ATOM      6  C   UNL     1      -2.630  -2.356  -0.164  0.00  0.00    +0.081 A 
ATOM      7  N   UNL     1      -3.836  -1.897  -0.683  0.00  0.00    -0.283 N 
ATOM      8  C   UNL     1      -4.472  -0.698  -0.543  0.00  0.00    +0.156 A 
ATOM      9  C   UNL     1      -5.685  -1.109   0.195  0.00  0.00    +0.142 A 
ATOM     10  C   UNL     1      -6.572  -0.146   0.536  0.00  0.00    +0.160 A 
ATOM     11  N   UNL     1      -6.315   1.116   0.185  0.00  0.00    -0.222 NA
ATOM     12  C   UNL     1      -5.224   1.438  -0.483  0.00  0.00    +0.225 A 
ATOM     13  N   UNL     1      -4.317   0.535  -0.841  0.00  0.00    -0.218 NA
ATOM     14 CL   UNL     1      -8.017  -0.544   1.412  0.00  0.00    -0.060 Cl
ATOM     15  N   UNL     1      -5.599  -2.457   0.344  0.00  0.00    -0.233 NA
ATOM     16  C   UNL     1      -4.553  -2.895   0.945  0.00  0.00    +0.112 C 
ATOM     17  C   UNL     1      -3.867  -4.237   0.720  0.00  0.00    +0.105 C 
ATOM     18 CL   UNL     1      -3.846  -1.843   2.131  0.00  0.00    -0.066 Cl
ATOM     19  C   UNL     1      -4.544  -2.866  -1.522  0.00  0.00    +0.137 C 
ATOM     20  F   UNL     1       0.805  -4.450  -0.903  0.00  0.00    -0.205 F 
ENDROOT
BRANCH   1  21
ATOM     21  O   UNL     1      -1.420  -0.298  -0.150  0.00  0.00    -0.490 OA
BRANCH  21  23
ATOM     22  C   UNL     1      -0.314   1.850  -0.115  0.00  0.00    +0.048 C 
ATOM     23  C   UNL     1      -0.146   0.337  -0.267  0.00  0.00    +0.226 C 
ENDBRANCH  21  23
ENDBRANCH   1  21
TORSDOF 2
