REMARK  Name = ZINC36513029
REMARK  16 active torsions:
REMARK  status: ('A' for Active; 'I' for Inactive)
REMARK    1  A    between atoms: C_1  and  C_2
REMARK    2  A    between atoms: C_2  and  C_3
REMARK    3  A    between atoms: C_3  and  C_4
REMARK    4  A    between atoms: C_4  and  C_5
REMARK    5  A    between atoms: C_5  and  C_6
REMARK    6  A    between atoms: C_6  and  N_7
REMARK    7  A    between atoms: N_7  and  C_8
REMARK    8  A    between atoms: C_8  and  C_10
REMARK    9  A    between atoms: C_8  and  C_19
REMARK   10  A    between atoms: C_10  and  C_12
REMARK   11  A    between atoms: C_10  and  C_13
REMARK   12  A    between atoms: N_21  and  C_22
REMARK   13  A    between atoms: C_22  and  S_23
REMARK   14  A    between atoms: S_23  and  C_26
REMARK   15  A    between atoms: C_29  and  C_32
REMARK   16  A    between atoms: C_33  and  C_35
REMARK                            x       y       z     vdW  Elec       q    Type
REMARK                         _______ _______ _______ _____ _____    ______ ____
ROOT
ATOM      1  C   UNL     1       1.514  -4.723   4.917  0.00  0.00    +0.169 C 
ENDROOT
BRANCH   1   2
ATOM      2  C   UNL     1       2.143  -3.833   5.958  0.00  0.00    +0.235 C 
ATOM      3  O   UNL     1       3.095  -3.141   5.668  0.00  0.00    -0.274 OA
ATOM      4  N   UNL     1       1.646  -3.807   7.211  0.00  0.00    -0.295 N 
ATOM      5  H   UNL     1       0.884  -4.360   7.442  0.00  0.00    +0.150 HD
BRANCH   4   6
ATOM      6  C   UNL     1       2.258  -2.942   8.223  0.00  0.00    +0.278 C 
BRANCH   6   7
ATOM      7  S   UNL     1       1.358  -1.369   8.297  0.00  0.00    +0.013 S 
ATOM      8  O   UNL     1       1.900  -0.542   9.319  0.00  0.00    -0.168 OA
ATOM      9  O   UNL     1       1.153  -0.859   6.986  0.00  0.00    -0.168 OA
BRANCH   7  10
ATOM     10  C   UNL     1      -0.253  -1.795   8.871  0.00  0.00    +0.090 A 
ATOM     11  C   UNL     1      -1.245  -2.121   7.965  0.00  0.00    +0.027 A 
ATOM     12  C   UNL     1      -2.509  -2.455   8.415  0.00  0.00    +0.005 A 
ATOM     13  C   UNL     1      -2.780  -2.464   9.771  0.00  0.00    -0.050 A 
ATOM     14  C   UNL     1      -1.787  -2.139  10.676  0.00  0.00    +0.005 A 
ATOM     15  C   UNL     1      -0.522  -1.808  10.227  0.00  0.00    +0.027 A 
ATOM     16  C   UNL     1      -4.157  -2.828  10.262  0.00  0.00    +0.044 C 
ENDBRANCH   7  10
ENDBRANCH   6   7
ENDBRANCH   4   6
ENDBRANCH   1   2
BRANCH   1  17
ATOM     17  N   UNL     1       2.230  -4.572   3.648  0.00  0.00    -0.283 N 
ATOM     18  C   UNL     1       3.543  -4.865   3.576  0.00  0.00    +0.283 C 
ATOM     19  O   UNL     1       4.113  -5.346   4.539  0.00  0.00    -0.267 OA
BRANCH  18  20
ATOM     20  C   UNL     1       4.287  -4.605   2.339  0.00  0.00    +0.189 A 
ATOM     21  C   UNL     1       5.584  -4.954   2.094  0.00  0.00    +0.054 A 
ATOM     22  C   UNL     1       5.881  -4.514   0.795  0.00  0.00    +0.042 A 
ATOM     23  C   UNL     1       4.767  -3.924   0.310  0.00  0.00    +0.196 A 
ATOM     24  O   UNL     1       3.806  -3.985   1.241  0.00  0.00    -0.458 OA
ENDBRANCH  18  20
BRANCH  17  25
ATOM     25  C   UNL     1       1.518  -4.101   2.457  0.00  0.00    +0.109 C 
BRANCH  25  26
ATOM     26  C   UNL     1       1.658  -2.582   2.346  0.00  0.00    +0.019 C 
BRANCH  26  27
ATOM     27  C   UNL     1       0.915  -2.091   1.102  0.00  0.00    +0.002 C 
BRANCH  27  28
ATOM     28  C   UNL     1       1.055  -0.571   0.991  0.00  0.00    -0.000 C 
BRANCH  28  30
ATOM     29  C   UNL     1       0.451   1.440  -0.364  0.00  0.00    +0.004 C 
ATOM     30  C   UNL     1       0.312  -0.080  -0.253  0.00  0.00    -0.003 C 
ENDBRANCH  28  30
ENDBRANCH  27  28
ENDBRANCH  26  27
ENDBRANCH  25  26
ENDBRANCH  17  25
ENDBRANCH   1  17
BRANCH   1  31
ATOM     31  C   UNL     1       1.592  -6.180   5.376  0.00  0.00    +0.045 C 
ATOM     32  C   UNL     1       0.954  -7.083   4.319  0.00  0.00    +0.015 C 
BRANCH  31  33
ATOM     33  C   UNL     1       0.855  -6.336   6.682  0.00  0.00    -0.042 A 
ATOM     34  C   UNL     1      -0.493  -6.040   6.754  0.00  0.00    +0.004 A 
ATOM     35  C   UNL     1      -1.169  -6.183   7.951  0.00  0.00    +0.000 A 
ATOM     36  C   UNL     1      -0.497  -6.621   9.076  0.00  0.00    +0.000 A 
ATOM     37  C   UNL     1       0.852  -6.918   9.004  0.00  0.00    +0.000 A 
ATOM     38  C   UNL     1       1.527  -6.779   7.806  0.00  0.00    +0.004 A 
ENDBRANCH  31  33
ENDBRANCH   1  31
TORSDOF 13
