REMARK  Name = ZINC14976127
REMARK  13 active torsions:
REMARK  status: ('A' for Active; 'I' for Inactive)
REMARK    1  A    between atoms: C_1  and  O_2
REMARK    2  A    between atoms: O_2  and  C_3
REMARK    3  A    between atoms: C_6  and  O_16
REMARK    4  A    between atoms: C_7  and  C_9
REMARK    5  A    between atoms: C_9  and  N_10
REMARK    6  A    between atoms: N_10  and  C_11
REMARK    7  A    between atoms: C_11  and  C_12
REMARK    8  A    between atoms: O_16  and  C_17
REMARK    9  A    between atoms: C_17  and  C_18
REMARK   10  A    between atoms: C_18  and  C_20
REMARK   11  A    between atoms: C_18  and  O_28
REMARK   12  A    between atoms: C_20  and  N_21
REMARK   13  A    between atoms: C_24  and  O_27
REMARK                            x       y       z     vdW  Elec       q    Type
REMARK                         _______ _______ _______ _____ _____    ______ ____
ROOT
ATOM      1  C   UNL     1       4.572  10.144   0.488  0.00  0.00    +0.121 A 
ATOM      2  C   UNL     1       3.313   9.600   0.275  0.00  0.00    +0.049 A 
ATOM      3  C   UNL     1       3.148   8.229   0.259  0.00  0.00    +0.049 A 
ATOM      4  C   UNL     1       4.239   7.396   0.456  0.00  0.00    +0.125 A 
ATOM      5  C   UNL     1       5.496   7.940   0.674  0.00  0.00    +0.011 A 
ATOM      6  C   UNL     1       5.663   9.312   0.685  0.00  0.00    +0.054 A 
ENDROOT
BRANCH   1   8
ATOM      7  C   UNL     1       3.567  12.291   0.295  0.00  0.00    +0.277 C 
ATOM      8  O   UNL     1       4.735  11.494   0.504  0.00  0.00    -0.495 OA
ENDBRANCH   1   8
BRANCH   5   9
ATOM      9  C   UNL     1       6.681   7.035   0.894  0.00  0.00    +0.120 C 
BRANCH   9  10
ATOM     10  N   UNL     1       7.163   6.536  -0.401  0.00  0.00    -0.304 NA
ATOM     11  H   UNL     1       6.359   5.973  -0.899  0.00  0.00    +0.123 HD
BRANCH  10  12
ATOM     12  C   UNL     1       8.320   5.649  -0.226  0.00  0.00    +0.195 C 
BRANCH  12  13
ATOM     13  C   UNL     1       8.792   5.150  -1.593  0.00  0.00    +0.402 C 
ATOM     14  F   UNL     1       9.158   6.242  -2.387  0.00  0.00    -0.169 F 
ATOM     15  F   UNL     1       9.894   4.304  -1.426  0.00  0.00    -0.169 F 
ATOM     16  F   UNL     1       7.755   4.447  -2.216  0.00  0.00    -0.169 F 
ENDBRANCH  12  13
ENDBRANCH  10  12
ENDBRANCH   9  10
ENDBRANCH   5   9
BRANCH   4  17
ATOM     17  O   UNL     1       4.076   6.046   0.440  0.00  0.00    -0.489 OA
BRANCH  17  18
ATOM     18  C   UNL     1       2.753   5.555   0.215  0.00  0.00    +0.258 C 
BRANCH  18  19
ATOM     19  C   UNL     1       2.767   4.025   0.232  0.00  0.00    +0.135 C 
BRANCH  19  20
ATOM     20  O   UNL     1       3.124   3.566   1.537  0.00  0.00    -0.390 OA
ATOM     21  H   UNL     1       3.187   2.487   1.742  0.00  0.00    +0.210 HD
ENDBRANCH  19  20
BRANCH  19  22
ATOM     22  C   UNL     1       1.378   3.499  -0.132  0.00  0.00    -0.044 C 
BRANCH  22  23
ATOM     23  N   UNL     1       1.393   2.030  -0.122  0.00  0.00    +0.382 N 
ATOM     24  C   UNL     1       2.256   1.505  -1.188  0.00  0.00    -0.076 C 
ATOM     25  C   UNL     1       2.364  -0.016  -1.057  0.00  0.00    +0.013 C 
ATOM     26  C   UNL     1       0.965  -0.631  -1.159  0.00  0.00    +0.111 C 
ATOM     27  C   UNL     1       0.072  -0.033  -0.068  0.00  0.00    +0.013 C 
ATOM     28  C   UNL     1       0.032   1.489  -0.228  0.00  0.00    -0.076 C 
ATOM     29  H   UNL     1       1.811   1.701   0.841  0.00  0.00    -0.082 HD
BRANCH  26  30
ATOM     30  O   UNL     1       1.053  -2.047  -0.981  0.00  0.00    -0.392 OA
ATOM     31  H   UNL     1       0.143  -2.663  -1.021  0.00  0.00    +0.210 HD
ENDBRANCH  26  30
ENDBRANCH  22  23
ENDBRANCH  19  22
ENDBRANCH  18  19
ENDBRANCH  17  18
ENDBRANCH   4  17
TORSDOF 12
