REMARK  Name = ZINC14545451
REMARK  10 active torsions:
REMARK  status: ('A' for Active; 'I' for Inactive)
REMARK    1  A    between atoms: C_1  and  C_2
REMARK    2  A    between atoms: C_2  and  O_3
REMARK    3  A    between atoms: O_3  and  C_4
REMARK    4  A    between atoms: C_7  and  N_10
REMARK    5  A    between atoms: N_10  and  S_11
REMARK    6  A    between atoms: S_11  and  C_14
REMARK    7  A    between atoms: C_27  and  C_30
REMARK    8  A    between atoms: C_35  and  O_36
REMARK    9  A    between atoms: O_36  and  C_37
REMARK   10  A    between atoms: C_37  and  C_38
REMARK                            x       y       z     vdW  Elec       q    Type
REMARK                         _______ _______ _______ _____ _____    ______ ____
ROOT
ATOM      1  C   UNL     1      -4.092   1.795  -0.685  0.00  0.00    +0.109 A 
ATOM      2  C   UNL     1      -5.217   1.740   0.117  0.00  0.00    +0.030 A 
ATOM      3  C   UNL     1      -5.735   0.515   0.487  0.00  0.00    +0.025 A 
ATOM      4  C   UNL     1      -5.125  -0.656   0.054  0.00  0.00    +0.031 A 
ATOM      5  C   UNL     1      -3.999  -0.606  -0.747  0.00  0.00    -0.018 A 
ATOM      6  C   UNL     1      -3.490   0.631  -1.119  0.00  0.00    +0.034 A 
ATOM      7  C   UNL     1      -3.294  -1.845  -1.256  0.00  0.00    +0.049 C 
ATOM      8  C   UNL     1      -1.862  -1.787  -0.720  0.00  0.00    -0.023 C 
ATOM      9  C   UNL     1      -1.750  -2.494   0.377  0.00  0.00    -0.030 C 
ATOM     10  C   UNL     1      -3.083  -3.122   0.742  0.00  0.00    +0.033 C 
ATOM     11  C   UNL     1      -3.843  -3.127  -0.605  0.00  0.00    +0.029 C 
ATOM     12  C   UNL     1      -5.343  -3.061  -0.385  0.00  0.00    +0.108 C 
ATOM     13  N   UNL     1      -5.667  -1.889   0.436  0.00  0.00    -0.336 N 
ATOM     14  H   UNL     1      -6.236  -1.966   1.218  0.00  0.00    +0.147 HD
ENDROOT
BRANCH  12  15
ATOM     15  C   UNL     1      -6.041  -2.949  -1.716  0.00  0.00    +0.015 A 
ATOM     16  C   UNL     1      -6.524  -1.727  -2.143  0.00  0.00    +0.009 A 
ATOM     17  C   UNL     1      -7.165  -1.624  -3.364  0.00  0.00    +0.001 A 
ATOM     18  C   UNL     1      -7.324  -2.744  -4.160  0.00  0.00    +0.004 A 
ATOM     19  C   UNL     1      -6.842  -3.967  -3.738  0.00  0.00    +0.046 A 
ATOM     20  C   UNL     1      -6.195  -4.072  -2.515  0.00  0.00    +0.125 A 
BRANCH  20  21
ATOM     21  O   UNL     1      -5.716  -5.274  -2.100  0.00  0.00    -0.492 OA
BRANCH  21  22
ATOM     22  C   UNL     1      -5.910  -6.388  -2.974  0.00  0.00    +0.225 C 
ATOM     23  C   UNL     1      -5.309  -7.644  -2.342  0.00  0.00    +0.048 C 
ENDBRANCH  21  22
ENDBRANCH  20  21
ENDBRANCH  12  15
BRANCH   1  24
ATOM     24  S   UNL     1      -3.429   3.356  -1.162  0.00  0.00    +0.072 S 
ATOM     25  O   UNL     1      -4.464   4.312  -0.972  0.00  0.00    -0.150 OA
ATOM     26  O   UNL     1      -2.793   3.161  -2.417  0.00  0.00    -0.150 OA
BRANCH  24  27
ATOM     27  N   UNL     1      -2.234   3.732  -0.079  0.00  0.00    -0.216 N 
ATOM     28  H   UNL     1      -2.330   4.504   0.501  0.00  0.00    +0.174 HD
BRANCH  27  32
ATOM     29  C   UNL     1       1.185   1.358   0.157  0.00  0.00    +0.121 A 
ATOM     30  C   UNL     1       1.022   2.235  -0.905  0.00  0.00    +0.047 A 
ATOM     31  C   UNL     1      -0.108   3.026  -0.981  0.00  0.00    +0.028 A 
ATOM     32  C   UNL     1      -1.086   2.935   0.001  0.00  0.00    +0.048 A 
ATOM     33  C   UNL     1      -0.922   2.057   1.063  0.00  0.00    +0.028 A 
ATOM     34  C   UNL     1       0.210   1.270   1.141  0.00  0.00    +0.047 A 
BRANCH  29  35
ATOM     35  O   UNL     1       2.300   0.584   0.234  0.00  0.00    -0.492 OA
BRANCH  35  37
ATOM     36  C   UNL     1       3.714  -1.080   1.270  0.00  0.00    +0.048 C 
ATOM     37  C   UNL     1       2.402  -0.297   1.355  0.00  0.00    +0.225 C 
ENDBRANCH  35  37
ENDBRANCH  29  35
ENDBRANCH  27  32
ENDBRANCH  24  27
ENDBRANCH   1  24
TORSDOF 8
