REMARK  Name = ZINC40693805
REMARK  5 active torsions:
REMARK  status: ('A' for Active; 'I' for Inactive)
REMARK    1  A    between atoms: C_5  and  C_6
REMARK    2  A    between atoms: C_6  and  C_8
REMARK    3  A    between atoms: C_6  and  N_10
REMARK    4  A    between atoms: C_8  and  N_9
REMARK    5  A    between atoms: C_13  and  N_16
REMARK                            x       y       z     vdW  Elec       q    Type
REMARK                         _______ _______ _______ _____ _____    ______ ____
ROOT
ATOM      1  N   UNL     1      -0.870  -2.493   0.695  0.00  0.00    -0.297 NA
ATOM      2  C   UNL     1      -1.805  -3.561   0.320  0.00  0.00    +0.083 C 
ATOM      3  C   UNL     1      -1.318  -4.893   0.895  0.00  0.00    +0.000 C 
ATOM      4  C   UNL     1      -1.227  -4.781   2.420  0.00  0.00    -0.066 C 
ATOM      5  C   UNL     1      -0.285  -3.631   2.784  0.00  0.00    +0.000 C 
ATOM      6  C   UNL     1      -0.802  -2.336   2.154  0.00  0.00    +0.083 C 
ENDROOT
BRANCH   4   7
ATOM      7  N   UNL     1      -0.704  -6.038   2.973  0.00  0.00    +0.382 N 
ATOM      8  C   UNL     1      -1.600  -7.142   2.609  0.00  0.00    -0.078 C 
ATOM      9  C   UNL     1      -1.018  -8.464   3.114  0.00  0.00    -0.019 C 
ATOM     10  C   UNL     1      -0.874  -8.403   4.637  0.00  0.00    -0.004 C 
ATOM     11  C   UNL     1       0.002  -7.204   5.010  0.00  0.00    -0.019 C 
ATOM     12  C   UNL     1      -0.618  -5.928   4.435  0.00  0.00    -0.078 C 
ATOM     13  H   UNL     1       0.215  -6.214   2.595  0.00  0.00    -0.081 HD
ENDBRANCH   4   7
BRANCH   1  14
ATOM     14  C   UNL     1      -1.230  -1.226   0.045  0.00  0.00    +0.076 C 
BRANCH  14  19
ATOM     15  C   UNL     1      -0.451   1.141   0.731  0.00  0.00    +0.028 A 
ATOM     16  C   UNL     1       0.627   1.942   1.061  0.00  0.00    +0.025 A 
ATOM     17  C   UNL     1       1.869   1.398   1.074  0.00  0.00    +0.060 A 
ATOM     18  S   UNL     1       1.537  -0.294   0.611  0.00  0.00    -0.099 S 
ATOM     19  C   UNL     1      -0.234  -0.163   0.431  0.00  0.00    +0.006 A 
ATOM     20 BR   UNL     1       0.374   3.766   1.487  0.00  0.00    -0.050 Br
ENDBRANCH  14  19
BRANCH  14  21
ATOM     21  C   UNL     1      -1.218  -1.410  -1.474  0.00  0.00    -0.062 C 
BRANCH  21  22
ATOM     22  N   UNL     1       0.084  -1.948  -1.891  0.00  0.00    +0.379 N 
ATOM     23  H   UNL     1       0.060  -2.159  -2.877  0.00  0.00    -0.090 HD
ATOM     24  H   UNL     1       0.804  -1.265  -1.710  0.00  0.00    -0.090 HD
ATOM     25  H   UNL     1       0.281  -2.791  -1.372  0.00  0.00    -0.090 HD
ENDBRANCH  21  22
ENDBRANCH  14  21
ENDBRANCH   1  14
TORSDOF 5
