REMARK  Name = ZINC30514225
REMARK  9 active torsions:
REMARK  status: ('A' for Active; 'I' for Inactive)
REMARK    1  A    between atoms: C_1  and  C_2
REMARK    2  A    between atoms: C_2  and  C_4
REMARK    3  A    between atoms: C_2  and  N_15
REMARK    4  A    between atoms: N_6  and  C_7
REMARK    5  A    between atoms: C_10  and  O_13
REMARK    6  A    between atoms: O_13  and  C_14
REMARK    7  A    between atoms: N_15  and  C_16
REMARK    8  A    between atoms: C_16  and  C_17
REMARK    9  A    between atoms: C_17  and  N_22
REMARK                            x       y       z     vdW  Elec       q    Type
REMARK                         _______ _______ _______ _____ _____    ______ ____
ROOT
ATOM      1  N   UNL     1       1.364   1.597  -0.004  0.00  0.00    +0.388 N 
ATOM      2  H   UNL     1       1.381   2.611  -0.430  0.00  0.00    -0.085 HD
ATOM      3  H   UNL     1       1.751   1.625   1.025  0.00  0.00    -0.085 HD
ENDROOT
BRANCH   1   5
ATOM      4  C   UNL     1      -0.755   1.609  -1.230  0.00  0.00    -0.004 C 
ATOM      5  C   UNL     1      -0.015   1.091   0.004  0.00  0.00    +0.013 C 
BRANCH   5   6
ATOM      6  C   UNL     1      -0.718   1.570   1.249  0.00  0.00    +0.203 C 
ATOM      7  O   UNL     1      -0.127   2.264   2.050  0.00  0.00    -0.277 OA
ATOM      8  N   UNL     1      -2.002   1.228   1.472  0.00  0.00    -0.287 N 
ATOM      9  H   UNL     1      -2.560   0.663   0.711  0.00  0.00    +0.155 HD
BRANCH   8  10
ATOM     10  C   UNL     1      -2.625   1.591   2.672  0.00  0.00    +0.034 A 
ATOM     11  C   UNL     1      -3.560   0.744   3.253  0.00  0.00    +0.027 A 
ATOM     12  C   UNL     1      -4.171   1.101   4.440  0.00  0.00    +0.047 A 
ATOM     13  C   UNL     1      -3.858   2.309   5.045  0.00  0.00    +0.120 A 
ATOM     14  C   UNL     1      -2.929   3.158   4.463  0.00  0.00    +0.047 A 
ATOM     15  C   UNL     1      -2.313   2.800   3.279  0.00  0.00    +0.027 A 
BRANCH  13  16
ATOM     16  O   UNL     1      -4.464   2.662   6.210  0.00  0.00    -0.495 OA
ATOM     17  C   UNL     1      -5.411   1.740   6.754  0.00  0.00    +0.277 C 
ENDBRANCH  13  16
ENDBRANCH   8  10
ENDBRANCH   5   6
ENDBRANCH   1   5
BRANCH   1  18
ATOM     18  C   UNL     1       2.236   0.733  -0.811  0.00  0.00    -0.059 C 
BRANCH  18  19
ATOM     19  C   UNL     1       3.661   1.290  -0.796  0.00  0.00    +0.007 C 
ATOM     20  C   UNL     1       3.686   2.695  -1.432  0.00  0.00    +0.020 C 
ATOM     21  C   UNL     1       5.026   2.737  -2.209  0.00  0.00    +0.002 C 
ATOM     22  C   UNL     1       5.135   1.301  -2.779  0.00  0.00    +0.002 C 
ATOM     23  C   UNL     1       4.583   0.404  -1.653  0.00  0.00    +0.020 C 
BRANCH  19  24
ATOM     24  N   UNL     1       4.163   1.351   0.583  0.00  0.00    -0.297 NA
ATOM     25  C   UNL     1       4.332   0.008   1.141  0.00  0.00    +0.095 C 
ATOM     26  C   UNL     1       5.260   0.064   2.359  0.00  0.00    +0.084 C 
ATOM     27  S   UNL     1       4.488   1.125   3.620  0.00  0.00    -0.158 S 
ATOM     28  C   UNL     1       4.068   2.625   2.678  0.00  0.00    +0.084 C 
ATOM     29  C   UNL     1       3.309   2.204   1.414  0.00  0.00    +0.095 C 
ENDBRANCH  19  24
ENDBRANCH  18  19
ENDBRANCH   1  18
TORSDOF 7
