REMARK  Name = ZINC39638839
REMARK  8 active torsions:
REMARK  status: ('A' for Active; 'I' for Inactive)
REMARK    1  A    between atoms: C_1  and  C_2
REMARK    2  A    between atoms: C_2  and  O_3
REMARK    3  A    between atoms: O_3  and  C_4
REMARK    4  A    between atoms: C_7  and  C_10
REMARK    5  A    between atoms: C_14  and  C_23
REMARK    6  A    between atoms: N_25  and  C_26
REMARK    7  A    between atoms: C_26  and  C_27
REMARK    8  A    between atoms: C_27  and  C_28
REMARK                            x       y       z     vdW  Elec       q    Type
REMARK                         _______ _______ _______ _____ _____    ______ ____
ROOT
ATOM      1  C   UNL     1      -1.998  -6.061  -0.012  0.00  0.00    +0.247 C 
ATOM      2  O   UNL     1      -1.029  -6.787  -0.129  0.00  0.00    -0.270 OA
ATOM      3  N   UNL     1      -3.231  -6.595   0.094  0.00  0.00    -0.296 N 
ATOM      4  C   UNL     1      -4.530  -5.882   0.115  0.00  0.00    +0.121 C 
ATOM      5  C   UNL     1      -5.477  -6.772  -0.721  0.00  0.00    +0.100 C 
ATOM      6  C   UNL     1      -4.859  -8.179  -0.649  0.00  0.00    -0.004 C 
ATOM      7  C   UNL     1      -3.594  -8.028   0.209  0.00  0.00    +0.115 C 
ATOM      8  C   UNL     1      -5.832  -9.151   0.009  0.00  0.00    -0.010 C 
ATOM      9  C   UNL     1      -5.218 -10.554   0.016  0.00  0.00    -0.082 C 
ATOM     10  N   UNL     1      -4.934 -10.973  -1.362  0.00  0.00    +0.379 N 
ATOM     11  C   UNL     1      -3.926 -10.086  -1.956  0.00  0.00    -0.082 C 
ATOM     12  C   UNL     1      -4.486  -8.663  -2.047  0.00  0.00    -0.010 C 
ATOM     13  H   UNL     1      -4.586 -11.920  -1.359  0.00  0.00    -0.086 HD
ATOM     14  H   UNL     1      -5.782 -10.930  -1.907  0.00  0.00    -0.086 HD
ENDROOT
BRANCH   1  18
ATOM     15  C   UNL     1      -1.494  -1.845   0.064  0.00  0.00    +0.121 A 
ATOM     16  C   UNL     1      -2.610  -2.421   0.660  0.00  0.00    +0.046 A 
ATOM     17  C   UNL     1      -2.777  -3.788   0.638  0.00  0.00    +0.016 A 
ATOM     18  C   UNL     1      -1.823  -4.596   0.014  0.00  0.00    +0.037 A 
ATOM     19  C   UNL     1      -0.703  -4.013  -0.585  0.00  0.00    +0.016 A 
ATOM     20  C   UNL     1      -0.546  -2.645  -0.563  0.00  0.00    +0.046 A 
BRANCH  15  21
ATOM     21  O   UNL     1      -1.333  -0.498   0.088  0.00  0.00    -0.492 OA
BRANCH  21  23
ATOM     22  C   UNL     1      -1.994   1.752   0.673  0.00  0.00    +0.048 C 
ATOM     23  C   UNL     1      -2.345   0.265   0.748  0.00  0.00    +0.225 C 
ENDBRANCH  21  23
ENDBRANCH  15  21
ENDBRANCH   1  18
BRANCH   5  24
ATOM     24  C   UNL     1      -6.860  -6.774  -0.122  0.00  0.00    +0.218 C 
ATOM     25  O   UNL     1      -7.010  -6.541   1.059  0.00  0.00    -0.275 OA
ATOM     26  N   UNL     1      -7.930  -7.034  -0.899  0.00  0.00    -0.315 N 
ATOM     27  H   UNL     1      -7.810  -7.220  -1.843  0.00  0.00    +0.149 HD
BRANCH  26  28
ATOM     28  C   UNL     1      -9.275  -7.035  -0.317  0.00  0.00    +0.109 C 
BRANCH  28  29
ATOM     29  C   UNL     1     -10.301  -7.356  -1.405  0.00  0.00    +0.056 C 
BRANCH  29  30
ATOM     30  C   UNL     1     -11.684  -7.357  -0.807  0.00  0.00    -0.011 A 
ATOM     31  C   UNL     1     -12.251  -8.543  -0.378  0.00  0.00    +0.006 A 
ATOM     32  C   UNL     1     -13.519  -8.544   0.172  0.00  0.00    +0.000 A 
ATOM     33  C   UNL     1     -14.223  -7.360   0.292  0.00  0.00    +0.003 A 
ATOM     34  C   UNL     1     -13.658  -6.174  -0.136  0.00  0.00    +0.038 A 
ATOM     35  C   UNL     1     -12.386  -6.170  -0.681  0.00  0.00    +0.127 A 
ATOM     36  F   UNL     1     -11.831  -5.010  -1.095  0.00  0.00    -0.205 F 
ENDBRANCH  29  30
ENDBRANCH  28  29
ENDBRANCH  26  28
ENDBRANCH   5  24
TORSDOF 7
