REMARK  Name = ZINC06857648
REMARK  4 active torsions:
REMARK  status: ('A' for Active; 'I' for Inactive)
REMARK    1  A    between atoms: C_1  and  N_45
REMARK    2  A    between atoms: C_9  and  O_25
REMARK    3  A    between atoms: C_11  and  C_14
REMARK    4  A    between atoms: C_15  and  C_16
REMARK                            x       y       z     vdW  Elec       q    Type
REMARK                         _______ _______ _______ _____ _____    ______ ____
ROOT
ATOM      1  C   UNL     1      12.834  -1.508   4.978  0.00  0.00    -0.096 C 
ATOM      2  C   UNL     1      10.902  -2.540   6.013  0.00  0.00    -0.074 C 
ATOM      3  C   UNL     1       9.372  -2.582   5.970  0.00  0.00    +0.018 C 
ATOM      4  C   UNL     1       8.950  -3.183   4.634  0.00  0.00    -0.027 A 
ATOM      5  C   UNL     1       9.832  -3.236   3.608  0.00  0.00    -0.021 A 
ATOM      6  S   UNL     1       8.939  -3.994   2.279  0.00  0.00    -0.080 S 
ATOM      7  C   UNL     1       7.439  -4.230   3.067  0.00  0.00    +0.080 A 
ATOM      8  C   UNL     1       7.634  -3.726   4.360  0.00  0.00    +0.067 A 
ATOM      9  C   UNL     1       6.487  -3.809   5.301  0.00  0.00    +0.220 C 
ATOM     10  N   UNL     1       5.317  -4.111   4.806  0.00  0.00    -0.223 NA
ATOM     11  C   UNL     1       5.042  -4.310   3.388  0.00  0.00    +0.217 C 
ATOM     12  N   UNL     1       6.241  -4.767   2.661  0.00  0.00    -0.313 N 
ATOM     13  C   UNL     1      11.247  -2.749   3.625  0.00  0.00    -0.036 C 
ATOM     14  H   UNL     1       6.188  -5.410   1.937  0.00  0.00    +0.149 HD
ATOM     15  N   UNL     1      11.408  -1.862   4.802  0.00  0.00    +0.381 N 
ATOM     16  H   UNL     1      10.868  -1.002   4.650  0.00  0.00    -0.082 HD
ENDROOT
BRANCH  11  17
ATOM     17  C   UNL     1       4.571  -3.009   2.791  0.00  0.00    +0.019 C 
ATOM     18  C   UNL     1       3.354  -2.921   2.271  0.00  0.00    +0.007 C 
BRANCH  18  19
ATOM     19  C   UNL     1       2.892  -1.646   1.685  0.00  0.00    -0.022 A 
ATOM     20  C   UNL     1       3.734  -0.533   1.680  0.00  0.00    +0.012 A 
ATOM     21  C   UNL     1       3.300   0.657   1.134  0.00  0.00    +0.050 A 
ATOM     22  C   UNL     1       2.029   0.753   0.588  0.00  0.00    +0.166 A 
ATOM     23  C   UNL     1       1.183  -0.356   0.590  0.00  0.00    +0.167 A 
ATOM     24  C   UNL     1       1.613  -1.551   1.136  0.00  0.00    +0.057 A 
ATOM     25  O   UNL     1       0.002  -0.004   0.002  0.00  0.00    -0.453 OA
ATOM     26  C   UNL     1      -0.017   1.436   0.010  0.00  0.00    +0.466 C 
ATOM     27  O   UNL     1       1.376   1.797  -0.001  0.00  0.00    -0.453 OA
ENDBRANCH  18  19
ENDBRANCH  11  17
BRANCH   9  28
ATOM     28  O   UNL     1       6.648  -3.578   6.624  0.00  0.00    -0.492 OA
ATOM     29  H   UNL     1       5.834  -3.660   7.140  0.00  0.00    +0.294 HD
ENDBRANCH   9  28
TORSDOF 3
