REMARK  Name = ZINC12390192
REMARK  6 active torsions:
REMARK  status: ('A' for Active; 'I' for Inactive)
REMARK    1  A    between atoms: C_1  and  C_2
REMARK    2  A    between atoms: C_10  and  O_22
REMARK    3  A    between atoms: N_11  and  C_12
REMARK    4  A    between atoms: C_12  and  C_13
REMARK    5  A    between atoms: C_13  and  S_14
REMARK    6  A    between atoms: S_14  and  C_15
REMARK                            x       y       z     vdW  Elec       q    Type
REMARK                         _______ _______ _______ _____ _____    ______ ____
ROOT
ATOM      1  C   UNL     1      -1.884  -0.606  -1.184  0.00  0.00    +0.064 C 
ATOM      2  C   UNL     1      -1.625   0.763  -1.760  0.00  0.00    +0.033 A 
ATOM      3  C   UNL     1      -2.152   1.098  -2.982  0.00  0.00    +0.088 A 
ATOM      4  C   UNL     1      -2.976   0.434  -3.986  0.00  0.00    +0.285 A 
ATOM      5  O   UNL     1      -3.426  -0.699  -3.933  0.00  0.00    -0.265 OA
ATOM      6  N   UNL     1      -3.141   1.325  -4.988  0.00  0.00    -0.171 N 
ATOM      7  N   UNL     1      -2.477   2.518  -4.693  0.00  0.00    -0.161 NA
ATOM      8  C   UNL     1      -1.879   2.446  -3.531  0.00  0.00    +0.104 A 
ATOM      9  C   UNL     1      -1.060   3.349  -2.723  0.00  0.00    +0.095 A 
ATOM     10  C   UNL     1      -0.602   2.904  -1.529  0.00  0.00    +0.195 A 
ATOM     11  N   UNL     1      -0.884   1.648  -1.070  0.00  0.00    -0.315 N 
ATOM     12  C   UNL     1      -3.867   1.089  -6.145  0.00  0.00    +0.198 A 
ATOM     13  N   UNL     1      -4.078   1.892  -7.163  0.00  0.00    -0.221 NA
ATOM     14  C   UNL     1      -4.812   1.526  -8.235  0.00  0.00    +0.081 A 
ATOM     15  C   UNL     1      -5.113   2.288  -9.388  0.00  0.00    +0.029 A 
ATOM     16  C   UNL     1      -5.880   1.761 -10.394  0.00  0.00    +0.002 A 
ATOM     17  C   UNL     1      -6.386   0.471 -10.322  0.00  0.00    +0.001 A 
ATOM     18  C   UNL     1      -6.111  -0.302  -9.209  0.00  0.00    +0.017 A 
ATOM     19  C   UNL     1      -5.344   0.217  -8.195  0.00  0.00    +0.041 A 
ATOM     20  S   UNL     1      -4.747  -0.387  -6.635  0.00  0.00    -0.048 S 
ENDROOT
BRANCH  10  21
ATOM     21  O   UNL     1       0.159   3.726  -0.767  0.00  0.00    -0.493 OA
ATOM     22  H   UNL     1       1.108   3.657  -0.940  0.00  0.00    +0.294 HD
ENDBRANCH  10  21
BRANCH  11  23
ATOM     23  C   UNL     1      -0.349   1.244   0.233  0.00  0.00    +0.136 C 
BRANCH  23  24
ATOM     24  C   UNL     1       1.038   0.627   0.045  0.00  0.00    +0.096 C 
BRANCH  24  25
ATOM     25  S   UNL     1       1.701   0.127   1.658  0.00  0.00    -0.123 S 
BRANCH  25  26
ATOM     26  C   UNL     1       3.280  -0.555   1.278  0.00  0.00    +0.008 A 
ATOM     27  C   UNL     1       3.718  -0.604  -0.040  0.00  0.00    +0.016 A 
ATOM     28  C   UNL     1       4.958  -1.135  -0.335  0.00  0.00    +0.021 A 
ATOM     29  C   UNL     1       5.761  -1.627   0.680  0.00  0.00    +0.041 A 
ATOM     30  C   UNL     1       5.325  -1.584   1.993  0.00  0.00    +0.021 A 
ATOM     31  C   UNL     1       4.088  -1.050   2.294  0.00  0.00    +0.016 A 
ATOM     32 CL   UNL     1       7.317  -2.299   0.305  0.00  0.00    -0.084 Cl
ENDBRANCH  25  26
ENDBRANCH  24  25
ENDBRANCH  23  24
ENDBRANCH  11  23
TORSDOF 5
