REMARK  Name = ZINC12578875
REMARK  2 active torsions:
REMARK  status: ('A' for Active; 'I' for Inactive)
REMARK    1  A    between atoms: C_16  and  C_19
REMARK    2  A    between atoms: C_23  and  O_25
REMARK                            x       y       z     vdW  Elec       q    Type
REMARK                         _______ _______ _______ _____ _____    ______ ____
ROOT
ATOM      1  C   UNL     1      -0.017   1.378   0.010  0.00  0.00    +0.001 A 
ATOM      2  C   UNL     1       1.170   2.092   0.002  0.00  0.00    +0.002 A 
ATOM      3  C   UNL     1       2.388   1.439  -0.003  0.00  0.00    +0.024 A 
ATOM      4  C   UNL     1       2.427   0.054  -0.005  0.00  0.00    +0.040 A 
ATOM      5  C   UNL     1       1.219  -0.669  -0.015  0.00  0.00    +0.038 A 
ATOM      6  C   UNL     1       0.002  -0.004   0.002  0.00  0.00    +0.013 A 
ATOM      7  C   UNL     1       1.324  -2.141  -0.075  0.00  0.00    +0.145 A 
ATOM      8  N   UNL     1       0.405  -3.052   0.074  0.00  0.00    -0.227 NA
ATOM      9  C   UNL     1       0.965  -4.272  -0.026  0.00  0.00    +0.090 A 
ATOM     10  C   UNL     1       0.420  -5.559   0.071  0.00  0.00    +0.030 A 
ATOM     11  C   UNL     1       1.283  -6.616  -0.075  0.00  0.00    +0.002 A 
ATOM     12  C   UNL     1       2.635  -6.436  -0.311  0.00  0.00    +0.002 A 
ATOM     13  C   UNL     1       3.202  -5.176  -0.416  0.00  0.00    +0.028 A 
ATOM     14  C   UNL     1       2.350  -4.086  -0.272  0.00  0.00    +0.071 A 
ATOM     15  N   UNL     1       2.549  -2.742  -0.320  0.00  0.00    -0.300 N 
ATOM     16  C   UNL     1       3.762  -1.966  -0.592  0.00  0.00    +0.206 C 
ATOM     17  N   UNL     1       3.635  -0.638   0.022  0.00  0.00    -0.320 N 
ATOM     18  H   UNL     1       4.405  -0.236   0.454  0.00  0.00    +0.148 HD
ENDROOT
BRANCH  16  19
ATOM     19  C   UNL     1       3.942  -1.817  -2.081  0.00  0.00    -0.003 A 
ATOM     20  C   UNL     1       3.222  -0.860  -2.771  0.00  0.00    +0.007 A 
ATOM     21  C   UNL     1       3.384  -0.721  -4.137  0.00  0.00    +0.004 A 
ATOM     22  C   UNL     1       4.266  -1.540  -4.816  0.00  0.00    +0.045 A 
ATOM     23  C   UNL     1       4.989  -2.502  -4.125  0.00  0.00    +0.117 A 
ATOM     24  C   UNL     1       4.829  -2.635  -2.753  0.00  0.00    +0.052 A 
BRANCH  23  25
ATOM     25  O   UNL     1       5.857  -3.309  -4.791  0.00  0.00    -0.507 OA
ATOM     26  H   UNL     1       6.756  -2.957  -4.847  0.00  0.00    +0.292 HD
ENDBRANCH  23  25
ENDBRANCH  16  19
TORSDOF 2
