REMARK  Name = ZINC00566287
REMARK  9 active torsions:
REMARK  status: ('A' for Active; 'I' for Inactive)
REMARK    1  A    between atoms: C_1  and  C_2
REMARK    2  A    between atoms: C_4  and  O_9
REMARK    3  A    between atoms: O_9  and  C_10
REMARK    4  A    between atoms: C_10  and  C_11
REMARK    5  A    between atoms: N_13  and  N_14
REMARK    6  A    between atoms: C_15  and  C_16
REMARK    7  A    between atoms: C_19  and  C_22
REMARK    8  A    between atoms: C_22  and  C_23
REMARK    9  A    between atoms: C_22  and  C_24
REMARK                            x       y       z     vdW  Elec       q    Type
REMARK                         _______ _______ _______ _____ _____    ______ ____
ROOT
ATOM      1  C   UNL     1      -3.632   5.987   6.329  0.00  0.00    +0.270 C 
ATOM      2  O   UNL     1      -3.189   6.786   5.530  0.00  0.00    -0.270 OA
ATOM      3  N   UNL     1      -3.493   4.665   6.107  0.00  0.00    -0.204 N 
ATOM      4  H   UNL     1      -3.847   4.027   6.745  0.00  0.00    +0.177 HD
ENDROOT
BRANCH   3   5
ATOM      5  N   UNL     1      -2.837   4.213   4.954  0.00  0.00    -0.188 NA
ATOM      6  C   UNL     1      -2.704   2.941   4.740  0.00  0.00    +0.138 C 
BRANCH   6   7
ATOM      7  C   UNL     1      -2.014   2.465   3.527  0.00  0.00    -0.005 A 
ATOM      8  C   UNL     1      -1.868   1.095   3.294  0.00  0.00    +0.010 A 
ATOM      9  C   UNL     1      -1.222   0.658   2.156  0.00  0.00    +0.004 A 
ATOM     10  C   UNL     1      -0.718   1.572   1.248  0.00  0.00    -0.045 A 
ATOM     11  C   UNL     1      -0.854   2.930   1.475  0.00  0.00    +0.004 A 
ATOM     12  C   UNL     1      -1.503   3.382   2.605  0.00  0.00    +0.010 A 
BRANCH  10  13
ATOM     13  C   UNL     1      -0.013   1.086   0.008  0.00  0.00    +0.013 C 
ATOM     14  C   UNL     1       1.423   1.615  -0.003  0.00  0.00    +0.012 C 
ATOM     15  C   UNL     1      -0.753   1.593  -1.232  0.00  0.00    +0.012 C 
ENDBRANCH  10  13
ENDBRANCH   6   7
ENDBRANCH   3   5
BRANCH   1  16
ATOM     16  C   UNL     1      -4.337   6.473   7.569  0.00  0.00    +0.326 C 
BRANCH  16  17
ATOM     17  O   UNL     1      -4.356   7.902   7.577  0.00  0.00    -0.483 OA
BRANCH  17  21
ATOM     18  C   UNL     1      -5.688  12.005   9.861  0.00  0.00    +0.045 C 
ATOM     19  C   UNL     1      -5.629  10.501   9.783  0.00  0.00    -0.029 A 
ATOM     20  C   UNL     1      -5.014   9.889   8.707  0.00  0.00    +0.050 A 
ATOM     21  C   UNL     1      -4.960   8.505   8.635  0.00  0.00    +0.122 A 
ATOM     22  C   UNL     1      -5.527   7.737   9.641  0.00  0.00    +0.047 A 
ATOM     23  C   UNL     1      -6.136   8.352  10.718  0.00  0.00    +0.024 A 
ATOM     24  C   UNL     1      -6.190   9.733  10.788  0.00  0.00    +0.044 A 
ATOM     25 CL   UNL     1      -6.961  10.504  12.139  0.00  0.00    -0.083 Cl
ENDBRANCH  17  21
ENDBRANCH  16  17
ENDBRANCH   1  16
TORSDOF 6
