REMARK  Name = ZINC20149815
REMARK  4 active torsions:
REMARK  status: ('A' for Active; 'I' for Inactive)
REMARK    1  A    between atoms: C_1  and  N_2
REMARK    2  A    between atoms: C_13  and  C_16
REMARK    3  A    between atoms: C_25  and  O_26
REMARK    4  A    between atoms: O_26  and  C_27
REMARK                            x       y       z     vdW  Elec       q    Type
REMARK                         _______ _______ _______ _____ _____    ______ ____
ROOT
ATOM      1  C   UNL     1      -0.440   1.180  -2.797  0.00  0.00    -0.096 C 
ATOM      2  N   UNL     1      -1.173   1.366  -1.538  0.00  0.00    +0.381 N 
ATOM      3  C   UNL     1      -0.377   0.902  -0.392  0.00  0.00    -0.074 C 
ATOM      4  C   UNL     1      -0.976   1.436   0.912  0.00  0.00    +0.018 C 
ATOM      5  C   UNL     1      -2.459   1.093   0.933  0.00  0.00    -0.027 A 
ATOM      6  C   UNL     1      -3.090   0.756  -0.215  0.00  0.00    -0.021 A 
ATOM      7  S   UNL     1      -4.766   0.436   0.262  0.00  0.00    -0.080 S 
ATOM      8  C   UNL     1      -4.630   0.743   1.941  0.00  0.00    +0.080 A 
ATOM      9  C   UNL     1      -3.284   1.096   2.128  0.00  0.00    +0.068 A 
ATOM     10  C   UNL     1      -2.849   1.430   3.504  0.00  0.00    +0.248 C 
ATOM     11  O   UNL     1      -1.678   1.637   3.765  0.00  0.00    -0.270 OA
ATOM     12  N   UNL     1      -3.803   1.497   4.455  0.00  0.00    -0.289 N 
ATOM     13  C   UNL     1      -5.233   1.499   4.162  0.00  0.00    +0.194 C 
ATOM     14  N   UNL     1      -5.536   0.689   2.968  0.00  0.00    -0.316 N 
ATOM     15  C   UNL     1      -2.477   0.680  -1.578  0.00  0.00    -0.036 C 
ATOM     16  H   UNL     1      -3.455   1.552   5.497  0.00  0.00    +0.151 HD
ATOM     17  H   UNL     1      -6.452   0.081   2.934  0.00  0.00    +0.149 HD
ATOM     18  H   UNL     1      -1.352   2.444  -1.412  0.00  0.00    -0.082 HD
ENDROOT
BRANCH  13  19
ATOM     19  C   UNL     1      -5.686   2.916   3.924  0.00  0.00    +0.040 A 
ATOM     20  C   UNL     1      -6.970   3.171   3.414  0.00  0.00    -0.008 A 
ATOM     21  C   UNL     1      -7.861   2.122   3.126  0.00  0.00    +0.009 A 
ATOM     22  C   UNL     1      -9.099   2.406   2.637  0.00  0.00    +0.001 A 
ATOM     23  C   UNL     1      -9.501   3.723   2.423  0.00  0.00    +0.001 A 
ATOM     24  C   UNL     1      -8.667   4.763   2.695  0.00  0.00    +0.008 A 
ATOM     25  C   UNL     1      -7.381   4.510   3.200  0.00  0.00    -0.017 A 
ATOM     26  C   UNL     1      -6.493   5.560   3.493  0.00  0.00    +0.012 A 
ATOM     27  C   UNL     1      -5.255   5.280   3.982  0.00  0.00    +0.046 A 
ATOM     28  C   UNL     1      -4.849   3.960   4.198  0.00  0.00    +0.127 A 
BRANCH  28  29
ATOM     29  O   UNL     1      -3.606   3.712   4.687  0.00  0.00    -0.495 OA
ATOM     30  C   UNL     1      -2.777   4.844   4.955  0.00  0.00    +0.277 C 
ENDBRANCH  28  29
ENDBRANCH  13  19
TORSDOF 2
