REMARK  Name = ZINC39576004
REMARK  6 active torsions:
REMARK  status: ('A' for Active; 'I' for Inactive)
REMARK    1  A    between atoms: C_1  and  C_2
REMARK    2  A    between atoms: C_10  and  C_13
REMARK    3  A    between atoms: N_14  and  C_15
REMARK    4  A    between atoms: C_18  and  C_21
REMARK    5  A    between atoms: C_24  and  O_27
REMARK    6  A    between atoms: O_27  and  C_28
REMARK                            x       y       z     vdW  Elec       q    Type
REMARK                         _______ _______ _______ _____ _____    ______ ____
ROOT
ATOM      1  C   UNL     1       0.715  -5.141   3.447  0.00  0.00    +0.122 C 
ATOM      2  N   UNL     1       0.988  -6.398   3.295  0.00  0.00    -0.259 NA
ENDROOT
BRANCH   1  12
ATOM      3  C   UNL     1      -0.018   1.503   0.010  0.00  0.00    +0.044 C 
ATOM      4  C   UNL     1       0.002  -0.004   0.002  0.00  0.00    -0.050 A 
ATOM      5  C   UNL     1       0.006  -0.689  -1.204  0.00  0.00    +0.007 A 
ATOM      6  C   UNL     1       0.022  -2.067  -1.233  0.00  0.00    +0.047 A 
ATOM      7  C   UNL     1       0.037  -2.788  -0.044  0.00  0.00    +0.138 A 
ATOM      8  C   UNL     1       0.038  -2.090   1.175  0.00  0.00    +0.065 A 
ATOM      9  C   UNL     1       0.023  -0.698   1.193  0.00  0.00    +0.018 A 
ATOM     10  C   UNL     1       0.069  -2.877   2.426  0.00  0.00    +0.201 A 
ATOM     11  O   UNL     1      -0.152  -2.373   3.513  0.00  0.00    -0.286 OA
ATOM     12  C   UNL     1       0.383  -4.313   2.277  0.00  0.00    +0.075 A 
ATOM     13  C   UNL     1       0.356  -4.849   1.021  0.00  0.00    +0.208 A 
ATOM     14  O   UNL     1       0.046  -4.135  -0.059  0.00  0.00    -0.462 OA
ENDBRANCH   1  12
BRANCH   2  15
ATOM     15  C   UNL     1       1.319  -7.223   4.460  0.00  0.00    +0.268 C 
ATOM     16  C   UNL     1       0.364  -8.398   4.574  0.00  0.00    +0.055 C 
ATOM     17  C   UNL     1       1.163  -9.476   4.459  0.00  0.00    +0.093 C 
ATOM     18  N   UNL     1       2.456  -9.092   4.294  0.00  0.00    -0.152 NA
ATOM     19  N   UNL     1       2.631  -7.867   4.285  0.00  0.00    -0.156 NA
BRANCH  17  20
ATOM     20  C   UNL     1       0.698 -10.884   4.507  0.00  0.00    +0.002 A 
ATOM     21  C   UNL     1      -0.656 -11.166   4.676  0.00  0.00    +0.013 A 
ATOM     22  C   UNL     1      -1.086 -12.476   4.719  0.00  0.00    +0.046 A 
ATOM     23  C   UNL     1      -0.171 -13.512   4.596  0.00  0.00    +0.120 A 
ATOM     24  C   UNL     1       1.179 -13.234   4.428  0.00  0.00    +0.046 A 
ATOM     25  C   UNL     1       1.614 -11.927   4.378  0.00  0.00    +0.013 A 
BRANCH  23  26
ATOM     26  O   UNL     1      -0.597 -14.802   4.640  0.00  0.00    -0.495 OA
ATOM     27  C   UNL     1       0.398 -15.819   4.507  0.00  0.00    +0.277 C 
ENDBRANCH  23  26
ENDBRANCH  17  20
ENDBRANCH   2  15
TORSDOF 4
