REMARK  Name = ZINC04744644
REMARK  7 active torsions:
REMARK  status: ('A' for Active; 'I' for Inactive)
REMARK    1  A    between atoms: C_1  and  C_2
REMARK    2  A    between atoms: C_4  and  C_27
REMARK    3  A    between atoms: C_6  and  S_8
REMARK    4  A    between atoms: S_8  and  C_9
REMARK    5  A    between atoms: C_9  and  C_10
REMARK    6  A    between atoms: N_12  and  C_13
REMARK    7  A    between atoms: C_14  and  C_24
REMARK                            x       y       z     vdW  Elec       q    Type
REMARK                         _______ _______ _______ _____ _____    ______ ____
ROOT
ATOM      1  C   UNL     1       0.064  -1.909   7.655  0.00  0.00    +0.084 A 
ATOM      2  C   UNL     1       0.055  -1.256   8.871  0.00  0.00    +0.068 A 
ATOM      3  C   UNL     1       0.077  -2.071  10.091  0.00  0.00    -0.023 A 
ATOM      4  C   UNL     1       0.132  -3.391   9.836  0.00  0.00    -0.004 A 
ATOM      5  S   UNL     1       0.087  -3.534   8.070  0.00  0.00    -0.077 S 
ATOM      6  C   UNL     1       0.264  -4.524  10.814  0.00  0.00    +0.043 C 
ATOM      7  C   UNL     1       1.743  -4.590  11.237  0.00  0.00    +0.005 C 
ATOM      8  C   UNL     1       2.159  -3.205  11.744  0.00  0.00    +0.000 C 
ATOM      9  C   UNL     1       1.284  -2.932  12.950  0.00  0.00    +0.000 C 
ATOM     10  C   UNL     1      -0.087  -2.380  12.600  0.00  0.00    +0.005 C 
ATOM     11  C   UNL     1      -0.026  -1.384  11.449  0.00  0.00    +0.037 C 
ENDROOT
BRANCH   2  12
ATOM     12  C   UNL     1       0.024   0.208   8.941  0.00  0.00    +0.244 C 
ATOM     13  O   UNL     1      -1.042   0.793   8.975  0.00  0.00    -0.270 OA
ATOM     14  N   UNL     1       1.177   0.905   8.968  0.00  0.00    -0.325 N 
ATOM     15  H   UNL     1       2.027   0.439   8.941  0.00  0.00    +0.145 HD
ATOM     16  H   UNL     1       1.157   1.874   9.015  0.00  0.00    +0.145 HD
ENDBRANCH   2  12
BRANCH   1  19
ATOM     17  C   UNL     1       0.056  -2.148   5.299  0.00  0.00    +0.228 C 
ATOM     18  O   UNL     1       0.073  -3.354   5.431  0.00  0.00    -0.275 OA
ATOM     19  N   UNL     1       0.050  -1.351   6.386  0.00  0.00    -0.279 N 
ATOM     20  H   UNL     1       0.036  -0.387   6.280  0.00  0.00    +0.155 HD
BRANCH  17  21
ATOM     21  C   UNL     1       0.041  -1.542   3.919  0.00  0.00    +0.173 C 
BRANCH  21  22
ATOM     22  S   UNL     1       0.053  -2.864   2.678  0.00  0.00    -0.077 S 
BRANCH  22  28
ATOM     23  C   UNL     1      -0.018   1.503   0.010  0.00  0.00    +0.066 C 
ATOM     24  C   UNL     1       0.002  -0.004   0.002  0.00  0.00    +0.043 A 
ATOM     25  C   UNL     1       0.006  -0.699  -1.198  0.00  0.00    +0.046 A 
ATOM     26  C   UNL     1       0.025  -2.084  -1.161  0.00  0.00    +0.043 A 
ATOM     27  N   UNL     1       0.039  -2.699   0.010  0.00  0.00    -0.227 NA
ATOM     28  C   UNL     1       0.035  -2.005   1.140  0.00  0.00    +0.189 A 
ATOM     29  N   UNL     1       0.022  -0.679   1.139  0.00  0.00    -0.227 NA
ATOM     30  C   UNL     1       0.029  -2.881  -2.440  0.00  0.00    +0.066 C 
ENDBRANCH  22  28
ENDBRANCH  21  22
ENDBRANCH  17  21
ENDBRANCH   1  19
TORSDOF 5
