REMARK  Name = ZINC63428360
REMARK  4 active torsions:
REMARK  status: ('A' for Active; 'I' for Inactive)
REMARK    1  A    between atoms: C_3  and  C_6
REMARK    2  A    between atoms: C_8  and  C_11
REMARK    3  A    between atoms: C_12  and  C_13
REMARK    4  A    between atoms: C_13  and  C_15
REMARK                            x       y       z     vdW  Elec       q    Type
REMARK                         _______ _______ _______ _____ _____    ______ ____
ROOT
ATOM      1  C   UNL     1       7.057  -3.706  -0.107  0.00  0.00    +0.186 C 
ATOM      2  O   UNL     1       8.258  -3.500  -0.116  0.00  0.00    -0.287 OA
ENDROOT
BRANCH   1   3
ATOM      3  C   UNL     1       6.546  -5.092  -0.117  0.00  0.00    +0.024 A 
ATOM      4  C   UNL     1       5.169  -5.330  -0.112  0.00  0.00    +0.015 A 
ATOM      5  C   UNL     1       4.690  -6.623  -0.121  0.00  0.00    +0.048 A 
ATOM      6  C   UNL     1       5.575  -7.691  -0.134  0.00  0.00    +0.142 A 
ATOM      7  C   UNL     1       6.952  -7.460  -0.139  0.00  0.00    +0.076 A 
ATOM      8  C   UNL     1       7.438  -6.167  -0.136  0.00  0.00    +0.038 A 
ATOM      9  N   UNL     1       7.830  -8.554  -0.150  0.00  0.00    -0.280 N 
ATOM     10  C   UNL     1       7.351  -9.774  -0.473  0.00  0.00    +0.255 C 
ATOM     11  O   UNL     1       8.085 -10.740  -0.462  0.00  0.00    -0.272 OA
ATOM     12  C   UNL     1       5.899  -9.932  -0.849  0.00  0.00    +0.325 C 
ATOM     13  O   UNL     1       5.113  -8.969  -0.143  0.00  0.00    -0.481 OA
ATOM     14  H   UNL     1       8.768  -8.435   0.070  0.00  0.00    +0.155 HD
ENDBRANCH   1   3
BRANCH   1  16
ATOM     15  C   UNL     1       6.622  -1.347  -0.079  0.00  0.00    +0.032 C 
ATOM     16  C   UNL     1       6.152  -2.618  -0.087  0.00  0.00    +0.053 C 
BRANCH  15  19
ATOM     17  C   UNL     1       3.567   0.618  -0.029  0.00  0.00    +0.144 A 
ATOM     18  N   UNL     1       4.374  -0.430  -0.048  0.00  0.00    -0.237 NA
ATOM     19  C   UNL     1       5.684  -0.220  -0.058  0.00  0.00    +0.072 A 
ATOM     20  C   UNL     1       6.149   1.084  -0.049  0.00  0.00    +0.075 A 
ATOM     21  S   UNL     1       4.722   1.978  -0.034  0.00  0.00    -0.072 S 
BRANCH  17  24
ATOM     22  C   UNL     1      -0.016   1.344   0.009  0.00  0.00    +0.042 A 
ATOM     23  C   UNL     1       1.323   1.776  -0.001  0.00  0.00    +0.052 A 
ATOM     24  C   UNL     1       2.097   0.654  -0.014  0.00  0.00    +0.160 A 
ATOM     25  O   UNL     1       1.279  -0.418  -0.012  0.00  0.00    -0.461 OA
ATOM     26  C   UNL     1       0.002  -0.004   0.002  0.00  0.00    +0.196 A 
ENDBRANCH  17  24
ENDBRANCH  15  19
ENDBRANCH   1  16
TORSDOF 4
