REMARK  Name = ZINC36586276
REMARK  14 active torsions:
REMARK  status: ('A' for Active; 'I' for Inactive)
REMARK    1  A    between atoms: C_1  and  C_2
REMARK    2  A    between atoms: C_5  and  C_8
REMARK    3  A    between atoms: C_8  and  C_10
REMARK    4  A    between atoms: C_8  and  N_24
REMARK    5  A    between atoms: N_12  and  C_13
REMARK    6  A    between atoms: C_13  and  S_14
REMARK    7  A    between atoms: S_14  and  C_17
REMARK    8  A    between atoms: C_20  and  C_23
REMARK    9  A    between atoms: N_24  and  C_35
REMARK   10  A    between atoms: C_25  and  C_27
REMARK   11  A    between atoms: C_28  and  C_29
REMARK   12  A    between atoms: C_35  and  C_36
REMARK   13  A    between atoms: C_35  and  C_37
REMARK   14  A    between atoms: C_35  and  C_38
REMARK                            x       y       z     vdW  Elec       q    Type
REMARK                         _______ _______ _______ _____ _____    ______ ____
ROOT
ATOM      1  C   UNL     1       0.130  -4.038  -0.217  0.00  0.00    +0.194 C 
ENDROOT
BRANCH   1   6
ATOM      2  C   UNL     1       0.426   1.488  -1.881  0.00  0.00    +0.044 C 
ATOM      3  C   UNL     1       0.349   0.047  -1.447  0.00  0.00    -0.050 A 
ATOM      4  C   UNL     1      -0.102  -0.917  -2.329  0.00  0.00    +0.004 A 
ATOM      5  C   UNL     1      -0.173  -2.239  -1.931  0.00  0.00    +0.006 A 
ATOM      6  C   UNL     1       0.208  -2.597  -0.651  0.00  0.00    -0.018 A 
ATOM      7  C   UNL     1       0.660  -1.634   0.230  0.00  0.00    +0.006 A 
ATOM      8  C   UNL     1       0.735  -0.312  -0.169  0.00  0.00    +0.004 A 
ENDBRANCH   1   6
BRANCH   1   9
ATOM      9  C   UNL     1      -1.279  -4.358   0.213  0.00  0.00    +0.239 C 
ATOM     10  O   UNL     1      -1.479  -4.901   1.279  0.00  0.00    -0.273 OA
ATOM     11  N   UNL     1      -2.316  -4.040  -0.587  0.00  0.00    -0.294 N 
ATOM     12  H   UNL     1      -2.156  -3.606  -1.440  0.00  0.00    +0.150 HD
BRANCH  11  13
ATOM     13  C   UNL     1      -3.686  -4.351  -0.169  0.00  0.00    +0.278 C 
BRANCH  13  14
ATOM     14  S   UNL     1      -4.418  -2.897   0.631  0.00  0.00    +0.013 S 
ATOM     15  O   UNL     1      -5.768  -3.161   0.986  0.00  0.00    -0.168 OA
ATOM     16  O   UNL     1      -3.512  -2.353   1.582  0.00  0.00    -0.168 OA
BRANCH  14  17
ATOM     17  C   UNL     1      -4.518  -1.682  -0.641  0.00  0.00    +0.090 A 
ATOM     18  C   UNL     1      -3.461  -0.817  -0.856  0.00  0.00    +0.027 A 
ATOM     19  C   UNL     1      -3.539   0.136  -1.854  0.00  0.00    +0.005 A 
ATOM     20  C   UNL     1      -4.674   0.224  -2.638  0.00  0.00    -0.050 A 
ATOM     21  C   UNL     1      -5.730  -0.642  -2.424  0.00  0.00    +0.005 A 
ATOM     22  C   UNL     1      -5.650  -1.597  -1.429  0.00  0.00    +0.027 A 
ATOM     23  C   UNL     1      -4.759   1.263  -3.726  0.00  0.00    +0.044 C 
ENDBRANCH  14  17
ENDBRANCH  13  14
ENDBRANCH  11  13
ENDBRANCH   1   9
BRANCH   1  24
ATOM     24  N   UNL     1       1.045  -4.261   0.904  0.00  0.00    -0.270 N 
ATOM     25  C   UNL     1       0.734  -3.797   2.131  0.00  0.00    +0.293 C 
ATOM     26  O   UNL     1      -0.257  -3.107   2.287  0.00  0.00    -0.260 OA
BRANCH  24  27
ATOM     27  C   UNL     1       2.299  -4.988   0.693  0.00  0.00    +0.031 C 
ATOM     28  C   UNL     1       2.442  -5.340  -0.789  0.00  0.00    +0.031 C 
ATOM     29  C   UNL     1       3.476  -4.111   1.125  0.00  0.00    +0.031 C 
ATOM     30  C   UNL     1       2.290  -6.273   1.523  0.00  0.00    +0.031 C 
ENDBRANCH  24  27
BRANCH  25  31
ATOM     31  C   UNL     1       1.568  -4.115   3.250  0.00  0.00    -0.003 C 
ATOM     32  C   UNL     1       2.252  -4.376   4.168  0.00  0.00    -0.057 C 
BRANCH  32  33
ATOM     33  C   UNL     1       3.087  -4.695   5.287  0.00  0.00    +0.025 A 
ATOM     34  C   UNL     1       4.229  -5.482   5.111  0.00  0.00    +0.017 A 
ATOM     35  C   UNL     1       5.027  -5.784   6.193  0.00  0.00    +0.001 A 
ATOM     36  C   UNL     1       4.701  -5.310   7.452  0.00  0.00    +0.000 A 
ATOM     37  C   UNL     1       3.572  -4.531   7.635  0.00  0.00    +0.001 A 
ATOM     38  C   UNL     1       2.767  -4.215   6.561  0.00  0.00    +0.017 A 
ENDBRANCH  32  33
ENDBRANCH  25  31
ENDBRANCH   1  24
TORSDOF 9
