REMARK  Name = ZINC12833105
REMARK  11 active torsions:
REMARK  status: ('A' for Active; 'I' for Inactive)
REMARK    1  A    between atoms: C_1  and  C_2
REMARK    2  A    between atoms: C_5  and  C_35
REMARK    3  A    between atoms: C_9  and  C_14
REMARK    4  A    between atoms: C_14  and  N_67
REMARK    5  A    between atoms: C_15  and  C_16
REMARK    6  A    between atoms: C_15  and  N_67
REMARK    7  A    between atoms: C_21  and  O_22
REMARK    8  A    between atoms: O_22  and  C_23
REMARK    9  A    between atoms: C_24  and  C_25
REMARK   10  A    between atoms: C_24  and  N_67
REMARK   11  A    between atoms: N_29  and  C_30
REMARK                            x       y       z     vdW  Elec       q    Type
REMARK                         _______ _______ _______ _____ _____    ______ ____
ROOT
ATOM      1  N   UNL     1       3.222  -1.115  -0.282  0.00  0.00    +0.390 N 
ATOM      2  H   UNL     1       2.671  -0.557  -0.944  0.00  0.00    -0.080 HD
ENDROOT
BRANCH   1   3
ATOM      3  C   UNL     1       2.710  -2.502  -0.278  0.00  0.00    -0.036 C 
BRANCH   3  12
ATOM      4  C   UNL     1      -0.936  -2.605  -3.995  0.00  0.00    +0.044 C 
ATOM      5  C   UNL     1      -1.649  -2.510  -2.671  0.00  0.00    -0.041 A 
ATOM      6  C   UNL     1      -3.014  -2.469  -2.629  0.00  0.00    +0.004 A 
ATOM      7  C   UNL     1      -3.681  -2.382  -1.414  0.00  0.00    +0.005 A 
ATOM      8  C   UNL     1      -2.979  -2.336  -0.229  0.00  0.00    -0.026 A 
ATOM      9  C   UNL     1      -1.589  -2.376  -0.247  0.00  0.00    +0.052 A 
ATOM     10  C   UNL     1      -0.917  -2.464  -1.481  0.00  0.00    +0.002 A 
ATOM     11  C   UNL     1       0.547  -2.507  -1.490  0.00  0.00    +0.017 A 
ATOM     12  C   UNL     1       1.203  -2.460  -0.304  0.00  0.00    +0.001 A 
ATOM     13  C   UNL     1       0.481  -2.377   0.905  0.00  0.00    +0.251 A 
ATOM     14  O   UNL     1       1.091  -2.341   1.960  0.00  0.00    -0.268 OA
ATOM     15  N   UNL     1      -0.862  -2.332   0.924  0.00  0.00    -0.322 N 
ATOM     16  H   UNL     1      -1.327  -2.271   1.773  0.00  0.00    +0.169 HD
ATOM     17  C   UNL     1      -3.716  -2.242   1.083  0.00  0.00    +0.046 C 
ENDBRANCH   3  12
ENDBRANCH   1   3
BRANCH   1  18
ATOM     18  C   UNL     1       4.638  -1.101  -0.705  0.00  0.00    -0.038 C 
BRANCH  18  19
ATOM     19  C   UNL     1       4.702  -1.354  -2.189  0.00  0.00    -0.022 A 
ATOM     20  C   UNL     1       5.129  -2.579  -2.665  0.00  0.00    +0.005 A 
ATOM     21  C   UNL     1       5.183  -2.813  -4.026  0.00  0.00    +0.000 A 
ATOM     22  C   UNL     1       4.821  -1.818  -4.916  0.00  0.00    +0.004 A 
ATOM     23  C   UNL     1       4.399  -0.590  -4.446  0.00  0.00    +0.046 A 
ATOM     24  C   UNL     1       4.338  -0.354  -3.080  0.00  0.00    +0.121 A 
BRANCH  24  25
ATOM     25  O   UNL     1       3.923   0.853  -2.615  0.00  0.00    -0.495 OA
ATOM     26  C   UNL     1       3.564   1.835  -3.590  0.00  0.00    +0.277 C 
ENDBRANCH  24  25
ENDBRANCH  18  19
ENDBRANCH   1  18
BRANCH   1  27
ATOM     27  C   UNL     1       3.092  -0.525   1.067  0.00  0.00    +0.001 C 
BRANCH  27  28
ATOM     28  C   UNL     1       3.412   0.945   0.987  0.00  0.00    +0.135 A 
ATOM     29  N   UNL     1       4.589   1.500   1.148  0.00  0.00    -0.115 NA
ATOM     30  N   UNL     1       4.450   2.773   1.009  0.00  0.00    -0.023 NA
ATOM     31  N   UNL     1       3.217   3.045   0.759  0.00  0.00    -0.044 NA
ATOM     32  N   UNL     1       2.545   1.944   0.734  0.00  0.00    -0.228 N 
BRANCH  32  33
ATOM     33  C   UNL     1       1.109   1.806   0.484  0.00  0.00    +0.111 C 
ATOM     34  C   UNL     1       0.311   2.627   1.518  0.00  0.00    +0.027 C 
ATOM     35  C   UNL     1       0.031   3.971   0.799  0.00  0.00    +0.002 C 
ATOM     36  C   UNL     1      -0.242   3.530  -0.660  0.00  0.00    +0.002 C 
ATOM     37  C   UNL     1       0.758   2.379  -0.900  0.00  0.00    +0.027 C 
ENDBRANCH  32  33
ENDBRANCH  27  28
ENDBRANCH   1  27
TORSDOF 8
