REMARK  Name = ZINC05376659
REMARK  8 active torsions:
REMARK  status: ('A' for Active; 'I' for Inactive)
REMARK    1  A    between atoms: C_1  and  C_2
REMARK    2  A    between atoms: C_2  and  N_3
REMARK    3  A    between atoms: N_3  and  C_4
REMARK    4  A    between atoms: N_3  and  C_6
REMARK    5  A    between atoms: C_4  and  C_5
REMARK    6  A    between atoms: C_9  and  N_12
REMARK    7  A    between atoms: C_18  and  C_19
REMARK    8  A    between atoms: N_21  and  C_28
REMARK                            x       y       z     vdW  Elec       q    Type
REMARK                         _______ _______ _______ _____ _____    ______ ____
ROOT
ATOM      1  N   UNL     1       0.727   6.462   3.339  0.00  0.00    -0.226 NA
ATOM      2  C   UNL     1       1.997   6.774   3.473  0.00  0.00    +0.166 C 
ATOM      3  N   UNL     1       2.564   8.008   3.724  0.00  0.00    -0.260 N 
ATOM      4  C   UNL     1       3.876   8.125   3.829  0.00  0.00    +0.256 C 
ATOM      5  O   UNL     1       4.390   9.206   4.055  0.00  0.00    -0.269 OA
ATOM      6  C   UNL     1       4.676   6.955   3.667  0.00  0.00    +0.078 C 
ATOM      7  C   UNL     1       6.029   6.822   3.724  0.00  0.00    +0.030 C 
ATOM      8  S   UNL     1       3.429   5.712   3.367  0.00  0.00    -0.049 S 
ATOM      9  H   UNL     1       1.998   8.789   3.826  0.00  0.00    +0.157 HD
ENDROOT
BRANCH   7  10
ATOM     10  C   UNL     1       6.859   7.955   4.138  0.00  0.00    +0.001 A 
ATOM     11  C   UNL     1       6.584   8.850   5.132  0.00  0.00    +0.094 A 
ATOM     12  N   UNL     1       7.591   9.757   5.222  0.00  0.00    -0.349 N 
ATOM     13  C   UNL     1       8.563   9.492   4.279  0.00  0.00    +0.049 A 
ATOM     14  C   UNL     1       8.155   8.358   3.559  0.00  0.00    +0.007 A 
ATOM     15  C   UNL     1       8.951   7.859   2.532  0.00  0.00    +0.010 A 
ATOM     16  C   UNL     1      10.142   8.482   2.228  0.00  0.00    +0.001 A 
ATOM     17  C   UNL     1      10.547   9.603   2.938  0.00  0.00    +0.002 A 
ATOM     18  C   UNL     1       9.768  10.108   3.956  0.00  0.00    +0.026 A 
ATOM     19  C   UNL     1       7.637  10.864   6.181  0.00  0.00    +0.149 C 
ENDBRANCH   7  10
BRANCH   1  23
ATOM     20  C   UNL     1      -0.373   2.545   2.565  0.00  0.00    +0.030 A 
ATOM     21  C   UNL     1       0.684   3.118   1.869  0.00  0.00    +0.025 A 
ATOM     22  C   UNL     1       1.050   4.424   2.121  0.00  0.00    +0.029 A 
ATOM     23  C   UNL     1       0.363   5.166   3.083  0.00  0.00    +0.067 A 
ATOM     24  C   UNL     1      -0.696   4.585   3.784  0.00  0.00    +0.029 A 
ATOM     25  C   UNL     1      -1.059   3.281   3.523  0.00  0.00    +0.025 A 
BRANCH  20  26
ATOM     26  N   UNL     1      -0.745   1.221   2.304  0.00  0.00    -0.330 N 
BRANCH  26  28
ATOM     27  C   UNL     1      -0.693   0.631  -0.069  0.00  0.00    +0.024 C 
ATOM     28  C   UNL     1      -0.023   0.444   1.293  0.00  0.00    +0.102 C 
ENDBRANCH  26  28
BRANCH  26  29
ATOM     29  C   UNL     1      -1.856   0.613   3.040  0.00  0.00    +0.102 C 
ATOM     30  C   UNL     1      -1.321  -0.057   4.308  0.00  0.00    +0.024 C 
ENDBRANCH  26  29
ENDBRANCH  20  26
ENDBRANCH   1  23
TORSDOF 5
