REMARK  Name = ZINC16658107
REMARK  11 active torsions:
REMARK  status: ('A' for Active; 'I' for Inactive)
REMARK    1  A    between atoms: C_1  and  O_2
REMARK    2  A    between atoms: O_2  and  C_3
REMARK    3  A    between atoms: C_6  and  C_9
REMARK    4  A    between atoms: C_9  and  S_10
REMARK    5  A    between atoms: S_10  and  C_11
REMARK    6  A    between atoms: C_14  and  S_16
REMARK    7  A    between atoms: S_16  and  C_17
REMARK    8  A    between atoms: C_17  and  C_18
REMARK    9  A    between atoms: C_18  and  C_20
REMARK   10  A    between atoms: C_21  and  N_32
REMARK   11  A    between atoms: N_22  and  C_29
REMARK                            x       y       z     vdW  Elec       q    Type
REMARK                         _______ _______ _______ _____ _____    ______ ____
ROOT
ATOM      1  C   UNL     1      -3.030   1.380   1.210  0.00  0.00    +0.156 C 
ENDROOT
BRANCH   1   2
ATOM      2  C   UNL     1      -4.208   2.172   0.703  0.00  0.00    +0.182 C 
ATOM      3  O   UNL     1      -4.122   3.377   0.582  0.00  0.00    -0.291 OA
BRANCH   2   4
ATOM      4  C   UNL     1      -5.410   1.512   0.368  0.00  0.00    +0.120 A 
ATOM      5  C   UNL     1      -6.565   2.238   0.027  0.00  0.00    +0.116 A 
ATOM      6  N   UNL     1      -7.703   1.555  -0.295  0.00  0.00    -0.278 N 
ATOM      7  C   UNL     1      -7.739   0.214  -0.281  0.00  0.00    +0.331 A 
ATOM      8  O   UNL     1      -8.778  -0.347  -0.571  0.00  0.00    -0.246 OA
ATOM      9  N   UNL     1      -6.670  -0.532   0.042  0.00  0.00    -0.274 N 
ATOM     10  H   UNL     1      -6.744  -1.529   0.038  0.00  0.00    +0.173 HD
ATOM     11  C   UNL     1      -5.496   0.046   0.370  0.00  0.00    +0.266 A 
ATOM     12  O   UNL     1      -4.529  -0.632   0.661  0.00  0.00    -0.267 OA
BRANCH   6  13
ATOM     13  C   UNL     1      -8.910   2.302  -0.657  0.00  0.00    +0.094 C 
ATOM     14  C   UNL     1      -9.668   1.856  -1.909  0.00  0.00    +0.027 C 
ATOM     15  C   UNL     1      -8.858   3.155  -1.926  0.00  0.00    +0.027 C 
ENDBRANCH   6  13
BRANCH   5  16
ATOM     16  N   UNL     1      -6.547   3.598   0.013  0.00  0.00    -0.344 N 
ATOM     17  H   UNL     1      -5.716   4.071  -0.150  0.00  0.00    +0.144 HD
ATOM     18  H   UNL     1      -7.366   4.096   0.166  0.00  0.00    +0.144 HD
ENDBRANCH   5  16
ENDBRANCH   2   4
ENDBRANCH   1   2
BRANCH   1  19
ATOM     19  S   UNL     1      -1.647   2.504   1.550  0.00  0.00    -0.089 S 
BRANCH  19  23
ATOM     20  C   UNL     1       1.832   0.189   3.037  0.00  0.00    +0.160 A 
ATOM     21  N   UNL     1       0.750  -0.509   2.753  0.00  0.00    -0.134 NA
ATOM     22  N   UNL     1      -0.376   0.131   2.288  0.00  0.00    -0.134 NA
ATOM     23  C   UNL     1      -0.366   1.441   2.128  0.00  0.00    +0.160 A 
ATOM     24  S   UNL     1       1.294   1.847   2.646  0.00  0.00    -0.033 S 
BRANCH  20  25
ATOM     25  S   UNL     1       3.392  -0.365   3.640  0.00  0.00    -0.092 S 
BRANCH  25  26
ATOM     26  C   UNL     1       3.190  -2.161   3.794  0.00  0.00    +0.111 C 
BRANCH  26  30
ATOM     27  C   UNL     1       6.820  -3.883   5.251  0.00  0.00    +0.120 A 
ATOM     28  C   UNL     1       5.844  -3.463   6.142  0.00  0.00    +0.046 A 
ATOM     29  C   UNL     1       4.671  -2.906   5.669  0.00  0.00    +0.008 A 
ATOM     30  C   UNL     1       4.470  -2.769   4.308  0.00  0.00    -0.037 A 
ATOM     31  C   UNL     1       5.439  -3.192   3.417  0.00  0.00    +0.008 A 
ATOM     32  C   UNL     1       6.616  -3.744   3.886  0.00  0.00    +0.046 A 
BRANCH  27  34
ATOM     33  C   UNL     1       8.934  -4.841   4.739  0.00  0.00    +0.277 C 
ATOM     34  O   UNL     1       7.974  -4.431   5.714  0.00  0.00    -0.495 OA
ENDBRANCH  27  34
ENDBRANCH  26  30
ENDBRANCH  25  26
ENDBRANCH  20  25
ENDBRANCH  19  23
ENDBRANCH   1  19
TORSDOF 10
