REMARK  Name = ZINC36527674
REMARK  15 active torsions:
REMARK  status: ('A' for Active; 'I' for Inactive)
REMARK    1  A    between atoms: C_1  and  C_2
REMARK    2  A    between atoms: C_2  and  C_3
REMARK    3  A    between atoms: C_3  and  C_5
REMARK    4  A    between atoms: C_3  and  C_11
REMARK    5  A    between atoms: N_13  and  C_14
REMARK    6  A    between atoms: N_13  and  C_15
REMARK    7  A    between atoms: C_15  and  C_17
REMARK    8  A    between atoms: C_15  and  C_26
REMARK    9  A    between atoms: C_20  and  N_23
REMARK   10  A    between atoms: N_23  and  C_24
REMARK   11  A    between atoms: N_23  and  C_25
REMARK   12  A    between atoms: N_28  and  C_29
REMARK   13  A    between atoms: C_29  and  S_30
REMARK   14  A    between atoms: S_30  and  C_33
REMARK   15  A    between atoms: C_36  and  C_39
REMARK                            x       y       z     vdW  Elec       q    Type
REMARK                         _______ _______ _______ _____ _____    ______ ____
ROOT
ATOM      1  C   UNL     1      -0.662  -3.890   1.248  0.00  0.00    +0.192 C 
ENDROOT
BRANCH   1   2
ATOM      2  C   UNL     1      -1.477  -4.463   2.380  0.00  0.00    -0.018 A 
ATOM      3  C   UNL     1      -2.367  -5.493   2.136  0.00  0.00    +0.008 A 
ATOM      4  C   UNL     1      -3.115  -6.020   3.170  0.00  0.00    +0.023 A 
ATOM      5  C   UNL     1      -2.972  -5.515   4.456  0.00  0.00    +0.029 A 
ATOM      6  C   UNL     1      -2.077  -4.481   4.697  0.00  0.00    +0.023 A 
ATOM      7  C   UNL     1      -1.328  -3.962   3.660  0.00  0.00    +0.008 A 
BRANCH   5   8
ATOM      8  N   UNL     1      -3.727  -6.046   5.504  0.00  0.00    -0.336 N 
ATOM      9  C   UNL     1      -4.671  -7.137   5.248  0.00  0.00    +0.129 C 
ATOM     10  C   UNL     1      -3.575  -5.512   6.860  0.00  0.00    +0.129 C 
ENDBRANCH   5   8
ENDBRANCH   1   2
BRANCH   1  13
ATOM     11  C   UNL     1      -1.410  -1.828   0.187  0.00  0.00    +0.224 C 
ATOM     12  O   UNL     1      -1.457  -0.617   0.131  0.00  0.00    -0.275 OA
ATOM     13  N   UNL     1      -0.809  -2.432   1.231  0.00  0.00    -0.288 N 
ATOM     14  C   UNL     1      -0.302  -1.631   2.348  0.00  0.00    +0.133 C 
BRANCH  11  15
ATOM     15  C   UNL     1      -2.025  -2.657  -0.912  0.00  0.00    +0.105 C 
BRANCH  15  16
ATOM     16  C   UNL     1      -2.200  -1.807  -2.144  0.00  0.00    -0.036 A 
ATOM     17  C   UNL     1      -2.989  -0.673  -2.094  0.00  0.00    +0.004 A 
ATOM     18  C   UNL     1      -3.150   0.107  -3.224  0.00  0.00    +0.000 A 
ATOM     19  C   UNL     1      -2.522  -0.248  -4.404  0.00  0.00    +0.000 A 
ATOM     20  C   UNL     1      -1.733  -1.382  -4.453  0.00  0.00    +0.000 A 
ATOM     21  C   UNL     1      -1.569  -2.159  -3.322  0.00  0.00    +0.004 A 
ENDBRANCH  15  16
BRANCH  15  23
ATOM     22  C   UNL     1      -3.971  -4.095  -1.533  0.00  0.00    +0.005 C 
ATOM     23  C   UNL     1      -3.388  -3.180  -0.454  0.00  0.00    +0.014 C 
ENDBRANCH  15  23
ENDBRANCH  11  15
ENDBRANCH   1  13
BRANCH   1  24
ATOM     24  C   UNL     1       0.789  -4.246   1.444  0.00  0.00    +0.239 C 
ATOM     25  O   UNL     1       1.619  -3.369   1.557  0.00  0.00    -0.273 OA
ATOM     26  N   UNL     1       1.165  -5.539   1.492  0.00  0.00    -0.294 N 
ATOM     27  H   UNL     1       0.501  -6.241   1.402  0.00  0.00    +0.150 HD
BRANCH  26  28
ATOM     28  C   UNL     1       2.575  -5.886   1.682  0.00  0.00    +0.278 C 
BRANCH  28  29
ATOM     29  S   UNL     1       2.895  -6.176   3.444  0.00  0.00    +0.013 S 
ATOM     30  O   UNL     1       4.245  -6.575   3.637  0.00  0.00    -0.168 OA
ATOM     31  O   UNL     1       2.330  -5.130   4.223  0.00  0.00    -0.168 OA
BRANCH  29  32
ATOM     32  C   UNL     1       1.943  -7.602   3.848  0.00  0.00    +0.090 A 
ATOM     33  C   UNL     1       0.639  -7.462   4.285  0.00  0.00    +0.027 A 
ATOM     34  C   UNL     1      -0.108  -8.581   4.602  0.00  0.00    +0.005 A 
ATOM     35  C   UNL     1       0.448  -9.840   4.482  0.00  0.00    -0.050 A 
ATOM     36  C   UNL     1       1.752  -9.981   4.044  0.00  0.00    +0.005 A 
ATOM     37  C   UNL     1       2.498  -8.862   3.723  0.00  0.00    +0.027 A 
ATOM     38  C   UNL     1      -0.366 -11.060   4.828  0.00  0.00    +0.044 C 
ENDBRANCH  29  32
ENDBRANCH  28  29
ENDBRANCH  26  28
ENDBRANCH   1  24
TORSDOF 10
