REMARK  Name = ZINC67550749
REMARK  9 active torsions:
REMARK  status: ('A' for Active; 'I' for Inactive)
REMARK    1  A    between atoms: C_1  and  C_2
REMARK    2  A    between atoms: C_2  and  C_4
REMARK    3  A    between atoms: C_2  and  N_11
REMARK    4  A    between atoms: C_8  and  O_10
REMARK    5  A    between atoms: N_11  and  C_12
REMARK    6  A    between atoms: N_15  and  C_16
REMARK    7  A    between atoms: C_19  and  C_22
REMARK    8  A    between atoms: C_22  and  C_23
REMARK    9  A    between atoms: C_23  and  N_24
REMARK                            x       y       z     vdW  Elec       q    Type
REMARK                         _______ _______ _______ _____ _____    ______ ____
ROOT
ATOM      1  N   UNL     1      -3.852  -0.313  -0.204  0.00  0.00    -0.282 N 
ATOM      2  C   UNL     1      -2.406  -0.260  -0.434  0.00  0.00    +0.134 C 
ATOM      3  C   UNL     1      -4.356  -1.143   0.731  0.00  0.00    +0.307 C 
ATOM      4  O   UNL     1      -5.556  -1.187   0.921  0.00  0.00    -0.252 OA
ATOM      5  N   UNL     1      -3.529  -1.925   1.454  0.00  0.00    -0.269 N 
ATOM      6  H   UNL     1      -2.579  -1.938   1.258  0.00  0.00    +0.156 HD
ENDROOT
BRANCH   5   7
ATOM      7  C   UNL     1      -4.042  -2.718   2.487  0.00  0.00    +0.035 A 
ATOM      8  C   UNL     1      -3.299  -2.920   3.642  0.00  0.00    +0.023 A 
ATOM      9  C   UNL     1      -3.808  -3.703   4.660  0.00  0.00    +0.005 A 
ATOM     10  C   UNL     1      -5.056  -4.285   4.529  0.00  0.00    -0.049 A 
ATOM     11  C   UNL     1      -5.798  -4.085   3.380  0.00  0.00    +0.005 A 
ATOM     12  C   UNL     1      -5.297  -3.299   2.361  0.00  0.00    +0.023 A 
BRANCH  10  13
ATOM     13  C   UNL     1      -5.608  -5.138   5.642  0.00  0.00    +0.016 C 
BRANCH  13  14
ATOM     14  C   UNL     1      -6.401  -4.261   6.612  0.00  0.00    -0.074 C 
BRANCH  14  15
ATOM     15  N   UNL     1      -6.869  -5.077   7.740  0.00  0.00    +0.381 N 
ATOM     16  C   UNL     1      -7.807  -4.292   8.544  0.00  0.00    -0.068 C 
ATOM     17  C   UNL     1      -8.584  -5.216   9.489  0.00  0.00    +0.050 C 
ATOM     18  S   UNL     1      -7.396  -6.007  10.618  0.00  0.00    -0.164 S 
ATOM     19  C   UNL     1      -6.124  -6.639   9.480  0.00  0.00    +0.050 C 
ATOM     20  C   UNL     1      -5.715  -5.502   8.536  0.00  0.00    -0.068 C 
ATOM     21  H   UNL     1      -7.343  -5.893   7.383  0.00  0.00    -0.082 HD
ENDBRANCH  14  15
ENDBRANCH  13  14
ENDBRANCH  10  13
ENDBRANCH   5   7
BRANCH   1  23
ATOM     22  C   UNL     1      -4.503   0.298  -2.481  0.00  0.00    +0.033 C 
ATOM     23  C   UNL     1      -4.750   0.536  -0.990  0.00  0.00    +0.104 C 
BRANCH  23  24
ATOM     24  C   UNL     1      -4.487   1.984  -0.662  0.00  0.00    -0.024 A 
ATOM     25  C   UNL     1      -5.518   2.790  -0.216  0.00  0.00    +0.006 A 
ATOM     26  C   UNL     1      -5.280   4.118   0.086  0.00  0.00    +0.004 A 
ATOM     27  C   UNL     1      -4.011   4.643  -0.060  0.00  0.00    +0.045 A 
ATOM     28  C   UNL     1      -2.975   3.837  -0.508  0.00  0.00    +0.117 A 
ATOM     29  C   UNL     1      -3.215   2.503  -0.804  0.00  0.00    +0.050 A 
BRANCH  28  30
ATOM     30  O   UNL     1      -1.725   4.352  -0.652  0.00  0.00    -0.507 OA
ATOM     31  H   UNL     1      -1.176   4.278   0.141  0.00  0.00    +0.292 HD
ENDBRANCH  28  30
ENDBRANCH  23  24
ENDBRANCH   1  23
TORSDOF 7
