REMARK  Name = ZINC49564520
REMARK  7 active torsions:
REMARK  status: ('A' for Active; 'I' for Inactive)
REMARK    1  A    between atoms: C_1  and  C_2
REMARK    2  A    between atoms: C_3  and  N_18
REMARK    3  A    between atoms: C_4  and  N_8
REMARK    4  A    between atoms: N_5  and  C_7
REMARK    5  A    between atoms: N_8  and  C_9
REMARK    6  A    between atoms: C_14  and  O_15
REMARK    7  A    between atoms: O_15  and  C_16
REMARK                            x       y       z     vdW  Elec       q    Type
REMARK                         _______ _______ _______ _____ _____    ______ ____
ROOT
ATOM      1  N   UNL     1       0.029  -3.176  -1.615  0.00  0.00    -0.295 N 
ATOM      2  H   UNL     1       0.121  -3.038  -2.571  0.00  0.00    +0.154 HD
ENDROOT
BRANCH   1   6
ATOM      3  C   UNL     1       1.241   0.098   1.959  0.00  0.00    +0.069 C 
ATOM      4  C   UNL     1       0.512  -0.599   0.839  0.00  0.00    +0.082 A 
ATOM      5  C   UNL     1       0.924  -1.775   0.202  0.00  0.00    +0.088 A 
ATOM      6  C   UNL     1      -0.004  -2.079  -0.751  0.00  0.00    +0.142 A 
ATOM      7  N   UNL     1      -0.966  -1.118  -0.706  0.00  0.00    -0.252 N 
ATOM      8  N   UNL     1      -0.618  -0.210   0.302  0.00  0.00    -0.173 NA
ATOM      9  C   UNL     1      -2.156  -1.048  -1.557  0.00  0.00    +0.174 C 
BRANCH   5  10
ATOM     10  N   UNL     1       2.092  -2.514   0.493  0.00  0.00    -0.354 N 
ATOM     11  H   UNL     1       2.744  -2.164   1.121  0.00  0.00    +0.142 HD
ATOM     12  H   UNL     1       2.243  -3.372   0.066  0.00  0.00    +0.142 HD
ENDBRANCH   5  10
ENDBRANCH   1   6
BRANCH   1  13
ATOM     13  C   UNL     1      -0.071  -4.474  -1.102  0.00  0.00    +0.076 A 
ATOM     14  C   UNL     1      -0.079  -4.681   0.270  0.00  0.00    +0.042 A 
ATOM     15  C   UNL     1      -0.178  -5.965   0.774  0.00  0.00    +0.020 A 
ATOM     16  C   UNL     1      -0.270  -7.044  -0.086  0.00  0.00    +0.019 A 
ATOM     17  C   UNL     1      -0.263  -6.845  -1.454  0.00  0.00    +0.048 A 
ATOM     18  C   UNL     1      -0.170  -5.562  -1.968  0.00  0.00    +0.141 A 
ATOM     19 BR   UNL     1      -0.188  -6.245   2.644  0.00  0.00    -0.050 Br
BRANCH  18  20
ATOM     20  O   UNL     1      -0.170  -5.364  -3.313  0.00  0.00    -0.493 OA
ATOM     21  C   UNL     1      -0.274  -6.526  -4.139  0.00  0.00    +0.277 C 
ENDBRANCH  18  20
ENDBRANCH   1  13
TORSDOF 4
