REMARK  Name = ZINC39884081
REMARK  5 active torsions:
REMARK  status: ('A' for Active; 'I' for Inactive)
REMARK    1  A    between atoms: C_1  and  C_2
REMARK    2  A    between atoms: C_5  and  N_8
REMARK    3  A    between atoms: C_9  and  C_11
REMARK    4  A    between atoms: C_11  and  N_12
REMARK    5  A    between atoms: C_18  and  C_33
REMARK                            x       y       z     vdW  Elec       q    Type
REMARK                         _______ _______ _______ _____ _____    ______ ____
ROOT
ATOM      1  N   UNL     1       0.420  -6.845   2.495  0.00  0.00    -0.288 N 
ATOM      2  C   UNL     1       1.654  -6.967   3.086  0.00  0.00    +0.091 A 
ATOM      3  C   UNL     1       1.646  -7.419   4.354  0.00  0.00    +0.033 A 
ATOM      4  S   UNL     1      -0.083  -7.685   4.668  0.00  0.00    -0.030 S 
ATOM      5  C   UNL     1      -0.688  -7.176   3.184  0.00  0.00    +0.292 A 
ATOM      6  O   UNL     1      -1.850  -7.122   2.820  0.00  0.00    -0.259 OA
ATOM      7  C   UNL     1       2.775  -7.623   5.288  0.00  0.00    +0.078 C 
ATOM      8  C   UNL     1       4.165  -7.698   4.663  0.00  0.00    +0.111 C 
ATOM      9  C   UNL     1       4.390  -6.642   3.572  0.00  0.00    +0.152 C 
ATOM     10  S   UNL     1       3.191  -6.600   2.276  0.00  0.00    -0.093 S 
ATOM     11  C   UNL     1       4.509  -5.370   4.356  0.00  0.00    +0.244 C 
ATOM     12  O   UNL     1       4.199  -4.257   4.000  0.00  0.00    -0.273 OA
ATOM     13  N   UNL     1       5.040  -5.734   5.549  0.00  0.00    -0.162 N 
ATOM     14  C   UNL     1       5.077  -7.095   5.757  0.00  0.00    +0.235 C 
ATOM     15  O   UNL     1       5.691  -7.704   6.601  0.00  0.00    -0.274 OA
ATOM     16  C   UNL     1       5.492  -4.845   6.456  0.00  0.00    +0.313 C 
ATOM     17  O   UNL     1       5.957  -5.235   7.508  0.00  0.00    -0.252 OA
ATOM     18  N   UNL     1       5.428  -3.525   6.195  0.00  0.00    -0.313 N 
ATOM     19  H   UNL     1       5.057  -3.213   5.354  0.00  0.00    +0.147 HD
ATOM     20  H   UNL     1       5.754  -2.885   6.847  0.00  0.00    +0.147 HD
ENDROOT
BRANCH   7  21
ATOM     21  C   UNL     1       2.531  -8.906   6.041  0.00  0.00    -0.001 A 
ATOM     22  C   UNL     1       2.389  -9.098   7.375  0.00  0.00    +0.012 A 
ATOM     23  C   UNL     1       2.170 -10.378   7.848  0.00  0.00    +0.008 A 
ATOM     24  C   UNL     1       2.104 -11.403   6.964  0.00  0.00    +0.045 A 
ATOM     25  S   UNL     1       2.348 -10.565   5.407  0.00  0.00    -0.101 S 
ENDBRANCH   7  21
BRANCH   1  26
ATOM     26  C   UNL     1       0.309  -6.349   1.121  0.00  0.00    +0.222 C 
BRANCH  26  28
ATOM     27  N   UNL     1       0.059  -4.170  -0.021  0.00  0.00    -0.284 N 
ATOM     28  C   UNL     1       0.175  -4.848   1.138  0.00  0.00    +0.237 C 
ATOM     29  O   UNL     1       0.173  -4.251   2.193  0.00  0.00    -0.274 OA
ATOM     30  H   UNL     1      -0.017  -4.651  -0.860  0.00  0.00    +0.155 HD
BRANCH  27  35
ATOM     31  C   UNL     1       0.008   1.503   0.007  0.00  0.00    +0.044 C 
ATOM     32  C   UNL     1       0.022  -0.004  -0.001  0.00  0.00    -0.050 A 
ATOM     33  C   UNL     1       0.777  -0.692   0.931  0.00  0.00    +0.005 A 
ATOM     34  C   UNL     1       0.791  -2.073   0.927  0.00  0.00    +0.023 A 
ATOM     35  C   UNL     1       0.046  -2.771  -0.014  0.00  0.00    +0.033 A 
ATOM     36  C   UNL     1      -0.712  -2.077  -0.948  0.00  0.00    +0.023 A 
ATOM     37  C   UNL     1      -0.726  -0.696  -0.936  0.00  0.00    +0.005 A 
ENDBRANCH  27  35
ENDBRANCH  26  28
ENDBRANCH   1  26
TORSDOF 4
