REMARK  Name = ZINC06537555
REMARK  7 active torsions:
REMARK  status: ('A' for Active; 'I' for Inactive)
REMARK    1  A    between atoms: C_5  and  C_7
REMARK    2  A    between atoms: C_10  and  S_13
REMARK    3  A    between atoms: N_11  and  N_12
REMARK    4  A    between atoms: S_13  and  C_14
REMARK    5  A    between atoms: C_14  and  C_15
REMARK    6  A    between atoms: C_15  and  C_17
REMARK    7  A    between atoms: C_17  and  C_27
REMARK                            x       y       z     vdW  Elec       q    Type
REMARK                         _______ _______ _______ _____ _____    ______ ____
ROOT
ATOM      1  C   UNL     1       1.583  -6.960  -0.074  0.00  0.00    +0.157 C 
ENDROOT
BRANCH   1   2
ATOM      2  C   UNL     1       2.203  -8.333  -0.139  0.00  0.00    +0.187 C 
ATOM      3  O   UNL     1       3.407  -8.451  -0.255  0.00  0.00    -0.290 OA
BRANCH   2   4
ATOM      4  C   UNL     1       1.389  -9.475  -0.065  0.00  0.00    +0.131 C 
ATOM      5  C   UNL     1       1.967 -10.756  -0.125  0.00  0.00    +0.114 C 
ATOM      6  N   UNL     1       3.293 -11.015  -0.260  0.00  0.00    -0.300 N 
ATOM      7  C   UNL     1       3.469 -12.393  -0.278  0.00  0.00    +0.054 A 
ATOM      8  C   UNL     1       4.590 -13.205  -0.390  0.00  0.00    +0.025 A 
ATOM      9  C   UNL     1       4.448 -14.578  -0.382  0.00  0.00    +0.002 A 
ATOM     10  C   UNL     1       3.193 -15.150  -0.263  0.00  0.00    +0.002 A 
ATOM     11  C   UNL     1       2.072 -14.353  -0.151  0.00  0.00    +0.025 A 
ATOM     12  C   UNL     1       2.203 -12.971  -0.158  0.00  0.00    +0.054 A 
ATOM     13  N   UNL     1       1.286 -11.930  -0.064  0.00  0.00    -0.300 N 
ATOM     14  H   UNL     1       4.011 -10.184  -0.333  0.00  0.00    +0.153 HD
ATOM     15  H   UNL     1       0.191 -11.926   0.042  0.00  0.00    +0.153 HD
BRANCH   4  16
ATOM     16  C   UNL     1      -0.030  -9.336   0.072  0.00  0.00    +0.106 C 
ATOM     17  N   UNL     1      -1.155  -9.225   0.181  0.00  0.00    -0.191 NA
ENDBRANCH   4  16
ENDBRANCH   2   4
ENDBRANCH   1   2
BRANCH   1  18
ATOM     18  S   UNL     1       2.882  -5.706  -0.194  0.00  0.00    -0.076 S 
BRANCH  18  22
ATOM     19  C   UNL     1       1.249  -2.161  -0.022  0.00  0.00    +0.184 A 
ATOM     20  N   UNL     1       0.213  -2.961   0.081  0.00  0.00    -0.127 NA
ATOM     21  N   UNL     1       0.599  -4.186   0.033  0.00  0.00    -0.121 NA
ATOM     22  C   UNL     1       1.905  -4.243  -0.094  0.00  0.00    +0.209 A 
ATOM     23  N   UNL     1       2.365  -2.957  -0.133  0.00  0.00    -0.224 N 
BRANCH  19  28
ATOM     24  C   UNL     1       1.923   1.417  -0.946  0.00  0.00    +0.001 A 
ATOM     25  C   UNL     1       1.172   2.087   0.003  0.00  0.00    +0.003 A 
ATOM     26  C   UNL     1       0.445   1.382   0.944  0.00  0.00    +0.039 A 
ATOM     27  C   UNL     1       0.464  -0.000   0.943  0.00  0.00    +0.134 A 
ATOM     28  C   UNL     1       1.222  -0.683  -0.013  0.00  0.00    +0.056 A 
ATOM     29  C   UNL     1       1.952   0.037  -0.959  0.00  0.00    +0.014 A 
ATOM     30  F   UNL     1      -0.246  -0.689   1.862  0.00  0.00    -0.205 F 
ENDBRANCH  19  28
BRANCH  23  31
ATOM     31  N   UNL     1       3.662  -2.548  -0.257  0.00  0.00    -0.295 N 
ATOM     32  H   UNL     1       4.468  -3.292  -0.338  0.00  0.00    +0.163 HD
ATOM     33  H   UNL     1       3.901  -1.474  -0.275  0.00  0.00    +0.163 HD
ENDBRANCH  23  31
ENDBRANCH  18  22
ENDBRANCH   1  18
TORSDOF 7
