REMARK  Name = ZINC05283600
REMARK  4 active torsions:
REMARK  status: ('A' for Active; 'I' for Inactive)
REMARK    1  A    between atoms: C_1  and  C_2
REMARK    2  A    between atoms: N_4  and  C_5
REMARK    3  A    between atoms: C_18  and  C_21
REMARK    4  A    between atoms: C_25  and  N_27
REMARK                            x       y       z     vdW  Elec       q    Type
REMARK                         _______ _______ _______ _____ _____    ______ ____
ROOT
ATOM      1  C   UNL     1      -1.600   3.296   2.588  0.00  0.00    +0.034 A 
ATOM      2  C   UNL     1      -2.083   2.344   3.477  0.00  0.00    +0.025 A 
ATOM      3  C   UNL     1      -2.814   2.747   4.576  0.00  0.00    +0.025 A 
ATOM      4  C   UNL     1      -3.064   4.096   4.791  0.00  0.00    +0.031 A 
ATOM      5  C   UNL     1      -2.584   5.052   3.909  0.00  0.00    -0.018 A 
ATOM      6  C   UNL     1      -1.845   4.641   2.808  0.00  0.00    +0.029 A 
ATOM      7  C   UNL     1      -2.826   6.515   4.104  0.00  0.00    +0.049 C 
ATOM      8  C   UNL     1      -3.875   7.034   3.150  0.00  0.00    -0.023 C 
ATOM      9  C   UNL     1      -4.608   7.949   3.736  0.00  0.00    -0.030 C 
ATOM     10  C   UNL     1      -4.143   8.168   5.163  0.00  0.00    +0.033 C 
ATOM     11  C   UNL     1      -3.383   6.852   5.501  0.00  0.00    +0.029 C 
ATOM     12  C   UNL     1      -4.432   5.813   5.909  0.00  0.00    +0.105 C 
ATOM     13  N   UNL     1      -3.810   4.485   5.912  0.00  0.00    -0.336 N 
ATOM     14  H   UNL     1      -3.913   3.890   6.671  0.00  0.00    +0.147 HD
ENDROOT
BRANCH  12  15
ATOM     15  C   UNL     1      -4.948   6.132   7.288  0.00  0.00    -0.025 A 
ATOM     16  C   UNL     1      -4.212   5.773   8.402  0.00  0.00    +0.005 A 
ATOM     17  C   UNL     1      -4.685   6.065   9.667  0.00  0.00    +0.003 A 
ATOM     18  C   UNL     1      -5.895   6.717   9.819  0.00  0.00    +0.033 A 
ATOM     19  C   UNL     1      -6.631   7.077   8.706  0.00  0.00    +0.127 A 
ATOM     20  C   UNL     1      -6.155   6.789   7.440  0.00  0.00    +0.038 A 
BRANCH  19  21
ATOM     21  N   UNL     1      -7.926   7.775   8.869  0.00  0.00    +0.056 N 
ATOM     22  O   UNL     1      -8.343   8.031   9.984  0.00  0.00    -0.126 OA
ATOM     23  O   UNL     1      -8.574   8.092   7.888  0.00  0.00    -0.126 OA
ENDBRANCH  19  21
ENDBRANCH  12  15
BRANCH   1  27
ATOM     24  C   UNL     1       0.652   1.312   0.313  0.00  0.00    +0.109 C 
ATOM     25  C   UNL     1      -0.054   1.814   1.546  0.00  0.00    +0.214 C 
ATOM     26  O   UNL     1       0.101   1.248   2.607  0.00  0.00    -0.276 OA
ATOM     27  N   UNL     1      -0.857   2.894   1.470  0.00  0.00    -0.286 N 
ATOM     28  H   UNL     1      -0.921   3.393   0.640  0.00  0.00    +0.155 HD
ENDBRANCH   1  27
TORSDOF 3
