REMARK  Name = ZINC09943103
REMARK  12 active torsions:
REMARK  status: ('A' for Active; 'I' for Inactive)
REMARK    1  A    between atoms: C_1  and  C_2
REMARK    2  A    between atoms: N_4  and  C_5
REMARK    3  A    between atoms: C_6  and  C_21
REMARK    4  A    between atoms: C_10  and  C_15
REMARK    5  A    between atoms: C_15  and  N_45
REMARK    6  A    between atoms: C_16  and  C_17
REMARK    7  A    between atoms: C_16  and  N_45
REMARK    8  A    between atoms: C_17  and  C_18
REMARK    9  A    between atoms: C_18  and  C_19
REMARK   10  A    between atoms: C_19  and  O_20
REMARK   11  A    between atoms: C_21  and  O_23
REMARK   12  A    between atoms: O_23  and  C_24
REMARK                            x       y       z     vdW  Elec       q    Type
REMARK                         _______ _______ _______ _____ _____    ______ ____
ROOT
ATOM      1  C   UNL     1       1.764  -0.269  -0.016  0.00  0.00    +0.087 A 
ATOM      2  C   UNL     1       2.280   1.016  -0.014  0.00  0.00    +0.095 A 
ATOM      3  C   UNL     1       1.335   2.138   0.001  0.00  0.00    +0.006 A 
ATOM      4  C   UNL     1       1.620   3.521   0.006  0.00  0.00    +0.010 A 
ATOM      5  C   UNL     1       0.607   4.445   0.021  0.00  0.00    +0.004 A 
ATOM      6  C   UNL     1      -0.724   4.053   0.031  0.00  0.00    -0.045 A 
ATOM      7  C   UNL     1      -1.035   2.706   0.031  0.00  0.00    +0.057 A 
ATOM      8  C   UNL     1      -0.022   1.770   0.012  0.00  0.00    +0.040 A 
ATOM      9  S   UNL     1       0.002  -0.004   0.002  0.00  0.00    -0.071 S 
ATOM     10 CL   UNL     1      -2.694   2.195   0.051  0.00  0.00    -0.082 Cl
ENDROOT
BRANCH   1  14
ATOM     11  C   UNL     1       2.520  -3.941  -0.044  0.00  0.00    +0.109 C 
ATOM     12  C   UNL     1       1.772  -2.633  -0.029  0.00  0.00    +0.214 C 
ATOM     13  O   UNL     1       0.559  -2.628  -0.017  0.00  0.00    -0.276 OA
ATOM     14  N   UNL     1       2.450  -1.468  -0.030  0.00  0.00    -0.280 N 
ATOM     15  H   UNL     1       3.420  -1.472  -0.039  0.00  0.00    +0.155 HD
ENDBRANCH   1  14
BRANCH   2  16
ATOM     16  C   UNL     1       3.680   1.241  -0.026  0.00  0.00    +0.342 C 
ATOM     17  O   UNL     1       4.270   1.343  -1.085  0.00  0.00    -0.245 OA
BRANCH  16  18
ATOM     18  O   UNL     1       4.357   1.342   1.136  0.00  0.00    -0.464 OA
ATOM     19  C   UNL     1       5.765   1.569   1.049  0.00  0.00    +0.280 C 
ENDBRANCH  16  18
ENDBRANCH   2  16
BRANCH   6  20
ATOM     20  C   UNL     1      -1.820   5.087   0.046  0.00  0.00    -0.045 C 
BRANCH  20  21
ATOM     21  N   UNL     1      -2.325   5.236   1.425  0.00  0.00    +0.382 N 
ATOM     22  H   UNL     1      -1.556   5.534   2.037  0.00  0.00    -0.085 HD
ATOM     23  H   UNL     1      -2.692   4.333   1.750  0.00  0.00    -0.085 HD
BRANCH  21  24
ATOM     24  C   UNL     1      -3.401   6.243   1.470  0.00  0.00    -0.082 C 
BRANCH  24  25
ATOM     25  C   UNL     1      -3.904   6.375   2.909  0.00  0.00    -0.017 C 
BRANCH  25  26
ATOM     26  C   UNL     1      -5.021   7.419   2.965  0.00  0.00    +0.026 C 
BRANCH  26  27
ATOM     27  C   UNL     1      -5.524   7.552   4.404  0.00  0.00    +0.156 C 
BRANCH  27  28
ATOM     28  O   UNL     1      -6.568   8.527   4.456  0.00  0.00    -0.395 OA
ATOM     29  H   UNL     1      -6.935   8.663   5.340  0.00  0.00    +0.209 HD
ENDBRANCH  27  28
ENDBRANCH  26  27
ENDBRANCH  25  26
ENDBRANCH  24  25
ENDBRANCH  21  24
ENDBRANCH  20  21
ENDBRANCH   6  20
TORSDOF 10
