REMARK  Name = ZINC38985019
REMARK  9 active torsions:
REMARK  status: ('A' for Active; 'I' for Inactive)
REMARK    1  A    between atoms: C_1  and  C_2
REMARK    2  A    between atoms: C_2  and  C_3
REMARK    3  A    between atoms: C_7  and  C_30
REMARK    4  A    between atoms: C_8  and  N_9
REMARK    5  A    between atoms: C_10  and  C_12
REMARK    6  A    between atoms: C_12  and  S_13
REMARK    7  A    between atoms: S_13  and  C_14
REMARK    8  A    between atoms: C_17  and  C_21
REMARK    9  A    between atoms: N_19  and  N_20
REMARK                            x       y       z     vdW  Elec       q    Type
REMARK                         _______ _______ _______ _____ _____    ______ ____
ROOT
ATOM      1  C   UNL     1      -5.879  -0.242   5.089  0.00  0.00    +0.189 C 
ATOM      2  N   UNL     1      -6.426   0.268   4.037  0.00  0.00    -0.161 NA
ATOM      3  N   UNL     1      -7.796   0.486   4.226  0.00  0.00    -0.243 N 
ATOM      4  C   UNL     1      -8.098   0.035   5.596  0.00  0.00    +0.222 C 
ATOM      5  N   UNL     1      -6.800  -0.436   6.108  0.00  0.00    -0.223 N 
ATOM      6  H   UNL     1      -8.420   0.858   3.584  0.00  0.00    +0.170 HD
ENDROOT
BRANCH   4   7
ATOM      7  C   UNL     1      -9.112  -1.110   5.573  0.00  0.00    +0.197 C 
ATOM      8  C   UNL     1     -10.398  -0.675   4.900  0.00  0.00    -0.017 C 
ATOM      9  C   UNL     1     -11.331  -0.792   5.843  0.00  0.00    +0.065 C 
ATOM     10  C   UNL     1     -12.681  -0.382   5.283  0.00  0.00    +0.057 C 
ATOM     11  C   UNL     1     -12.361   0.408   3.995  0.00  0.00    +0.011 C 
ATOM     12  C   UNL     1     -10.984  -0.177   3.605  0.00  0.00    +0.035 C 
ATOM     13  N   UNL     1     -10.769  -1.241   6.998  0.00  0.00    -0.158 NA
ATOM     14  N   UNL     1      -9.552  -1.445   6.939  0.00  0.00    -0.176 NA
ENDBRANCH   4   7
BRANCH   5  15
ATOM     15  N   UNL     1      -6.551  -0.959   7.345  0.00  0.00    -0.250 NA
ATOM     16  H   UNL     1      -5.577  -1.202   7.445  0.00  0.00    +0.141 HD
ATOM     17  H   UNL     1      -6.842  -0.323   8.072  0.00  0.00    +0.141 HD
ENDBRANCH   5  15
BRANCH   1  18
ATOM     18  S   UNL     1      -4.169  -0.649   5.214  0.00  0.00    -0.078 S 
BRANCH  18  19
ATOM     19  C   UNL     1      -3.487  -0.178   3.600  0.00  0.00    +0.173 C 
BRANCH  19  21
ATOM     20  N   UNL     1      -1.289  -0.209   2.466  0.00  0.00    -0.284 N 
ATOM     21  C   UNL     1      -2.011  -0.479   3.572  0.00  0.00    +0.227 C 
ATOM     22  O   UNL     1      -1.472  -0.963   4.544  0.00  0.00    -0.275 OA
ATOM     23  H   UNL     1      -1.705   0.239   1.712  0.00  0.00    +0.155 HD
BRANCH  20  29
ATOM     24  C   UNL     1       1.050   0.390   2.521  0.00  0.00    -0.026 A 
ATOM     25  C   UNL     1       2.380   0.024   2.465  0.00  0.00    +0.005 A 
ATOM     26  C   UNL     1       2.727  -1.302   2.286  0.00  0.00    +0.001 A 
ATOM     27  C   UNL     1       1.743  -2.267   2.163  0.00  0.00    +0.005 A 
ATOM     28  C   UNL     1       0.411  -1.907   2.219  0.00  0.00    -0.029 A 
ATOM     29  C   UNL     1       0.060  -0.576   2.403  0.00  0.00    +0.040 A 
ATOM     30  C   UNL     1      -0.660  -2.959   2.085  0.00  0.00    +0.045 C 
BRANCH  24  32
ATOM     31  C   UNL     1       0.438   2.106   4.203  0.00  0.00    +0.009 C 
ATOM     32  C   UNL     1       0.673   1.836   2.716  0.00  0.00    +0.033 C 
ENDBRANCH  24  32
ENDBRANCH  20  29
ENDBRANCH  19  21
ENDBRANCH  18  19
ENDBRANCH   1  18
TORSDOF 7
