REMARK  Name = ZINC09235124
REMARK  2 active torsions:
REMARK  status: ('A' for Active; 'I' for Inactive)
REMARK    1  A    between atoms: C_4  and  C_7
REMARK    2  A    between atoms: C_7  and  C_9
REMARK                            x       y       z     vdW  Elec       q    Type
REMARK                         _______ _______ _______ _____ _____    ______ ____
ROOT
ATOM      1  C   UNL     1       3.381  -0.781   1.171  0.00  0.00    +0.156 C 
ATOM      2  C   UNL     1       2.618  -2.066   0.728  0.00  0.00    +0.096 C 
ATOM      3  C   UNL     1       1.170  -1.580   0.507  0.00  0.00    +0.092 C 
ATOM      4  C   UNL     1       1.362  -0.098   0.176  0.00  0.00    +0.108 C 
ATOM      5  N   UNL     1       2.392   0.291   1.179  0.00  0.00    -0.311 N 
ATOM      6  C   UNL     1       2.788   1.587   0.970  0.00  0.00    +0.038 A 
ATOM      7  C   UNL     1       4.104   2.004   1.015  0.00  0.00    +0.024 A 
ATOM      8  C   UNL     1       4.415   3.332   0.785  0.00  0.00    +0.002 A 
ATOM      9  C   UNL     1       3.417   4.251   0.509  0.00  0.00    +0.001 A 
ATOM     10  C   UNL     1       2.095   3.853   0.464  0.00  0.00    +0.010 A 
ATOM     11  C   UNL     1       1.767   2.525   0.695  0.00  0.00    -0.004 A 
ATOM     12  C   UNL     1       0.363   2.052   0.665  0.00  0.00    +0.007 C 
ATOM     13  C   UNL     1       0.147   0.750   0.408  0.00  0.00    -0.003 C 
ATOM     14  C   UNL     1       0.474  -2.361  -0.551  0.00  0.00    +0.144 C 
ATOM     15  O   UNL     1      -0.724  -2.462  -0.435  0.00  0.00    -0.297 OA
ATOM     16  C   UNL     1       1.070  -3.011  -1.729  0.00  0.00    +0.073 C 
ATOM     17  C   UNL     1       0.872  -2.182  -3.032  0.00  0.00    +0.023 C 
ATOM     18  C   UNL     1       2.217  -1.367  -3.067  0.00  0.00    +0.016 C 
ATOM     19  C   UNL     1       3.124  -2.674  -2.993  0.00  0.00    +0.023 C 
ATOM     20  C   UNL     1       2.575  -3.274  -1.650  0.00  0.00    +0.073 C 
ATOM     21  C   UNL     1       3.243  -2.535  -0.544  0.00  0.00    +0.144 C 
ATOM     22  O   UNL     1       4.416  -2.289  -0.691  0.00  0.00    -0.297 OA
ATOM     23  C   UNL     1       2.467  -3.504  -4.098  0.00  0.00    -0.027 C 
ATOM     24  C   UNL     1       1.167  -3.210  -4.137  0.00  0.00    -0.027 C 
ENDROOT
BRANCH   1  25
ATOM     25  C   UNL     1       4.482  -0.465   0.192  0.00  0.00    +0.184 C 
ATOM     26  O   UNL     1       4.226   0.120  -0.839  0.00  0.00    -0.290 OA
BRANCH  25  30
ATOM     27  C   UNL     1       8.473  -1.624   1.039  0.00  0.00    +0.000 A 
ATOM     28  C   UNL     1       8.186  -0.955  -0.138  0.00  0.00    +0.001 A 
ATOM     29  C   UNL     1       6.891  -0.575  -0.421  0.00  0.00    +0.011 A 
ATOM     30  C   UNL     1       5.867  -0.867   0.486  0.00  0.00    +0.019 A 
ATOM     31  C   UNL     1       6.166  -1.537   1.676  0.00  0.00    +0.011 A 
ATOM     32  C   UNL     1       7.465  -1.916   1.941  0.00  0.00    +0.001 A 
ENDBRANCH  25  30
ENDBRANCH   1  25
TORSDOF 2
