REMARK  Name = ZINC32229864
REMARK  3 active torsions:
REMARK  status: ('A' for Active; 'I' for Inactive)
REMARK    1  A    between atoms: C_1  and  C_2
REMARK    2  A    between atoms: C_7  and  C_9
REMARK    3  A    between atoms: C_7  and  O_10
REMARK                            x       y       z     vdW  Elec       q    Type
REMARK                         _______ _______ _______ _____ _____    ______ ____
ROOT
ATOM      1  C   UNL     1      -4.340   1.027   0.049  0.00  0.00    +0.007 C 
ATOM      2  C   UNL     1      -2.904   1.556   0.038  0.00  0.00    -0.011 C 
ATOM      3  C   UNL     1      -2.164   1.050   1.278  0.00  0.00    +0.003 C 
ATOM      4  C   UNL     1      -0.729   1.579   1.267  0.00  0.00    +0.003 C 
ATOM      5  C   UNL     1      -0.013   1.086   0.008  0.00  0.00    +0.034 C 
ATOM      6  C   UNL     1      -0.753   1.593  -1.232  0.00  0.00    +0.064 C 
ATOM      7  C   UNL     1      -2.188   1.063  -1.221  0.00  0.00    +0.037 C 
ATOM      8  C   UNL     1      -0.773   3.123  -1.223  0.00  0.00    +0.041 C 
ENDROOT
BRANCH   6   9
ATOM      9  O   UNL     1      -0.084   1.132  -2.407  0.00  0.00    -0.389 OA
ATOM     10  H   UNL     1      -0.473   1.398  -3.401  0.00  0.00    +0.210 HD
ENDBRANCH   6   9
TORSDOF 1
