REMARK  Name = ZINC12568187
REMARK  10 active torsions:
REMARK  status: ('A' for Active; 'I' for Inactive)
REMARK    1  A    between atoms: C_1  and  C_2
REMARK    2  A    between atoms: C_3  and  C_30
REMARK    3  A    between atoms: N_4  and  C_24
REMARK    4  A    between atoms: C_5  and  N_9
REMARK    5  A    between atoms: C_6  and  C_7
REMARK    6  A    between atoms: C_10  and  C_12
REMARK    7  A    between atoms: C_12  and  N_57
REMARK    8  A    between atoms: C_16  and  C_18
REMARK    9  A    between atoms: N_22  and  C_23
REMARK   10  A    between atoms: C_24  and  C_25
REMARK                            x       y       z     vdW  Elec       q    Type
REMARK                         _______ _______ _______ _____ _____    ______ ____
ROOT
ATOM      1  N   UNL     1      -3.779   1.056  -3.030  0.00  0.00    -0.272 N 
ATOM      2  C   UNL     1      -2.908   1.763  -2.284  0.00  0.00    +0.202 C 
ATOM      3  O   UNL     1      -2.729   2.941  -2.513  0.00  0.00    -0.278 OA
ATOM      4  H   UNL     1      -3.942   0.121  -2.830  0.00  0.00    +0.156 HD
ENDROOT
BRANCH   1   9
ATOM      5  C   UNL     1      -4.880   3.860  -7.088  0.00  0.00    +0.047 C 
ATOM      6  C   UNL     1      -4.974   2.920  -5.915  0.00  0.00    -0.011 A 
ATOM      7  C   UNL     1      -6.068   2.258  -5.503  0.00  0.00    +0.022 A 
ATOM      8  N   UNL     1      -5.753   1.500  -4.407  0.00  0.00    -0.327 N 
ATOM      9  C   UNL     1      -4.444   1.666  -4.084  0.00  0.00    +0.124 A 
ATOM     10  C   UNL     1      -3.888   2.550  -4.999  0.00  0.00    +0.095 A 
ATOM     11  C   UNL     1      -7.427   2.333  -6.149  0.00  0.00    +0.064 C 
BRANCH  10  12
ATOM     12  C   UNL     1      -2.532   3.007  -5.040  0.00  0.00    +0.103 C 
ATOM     13  N   UNL     1      -1.456   3.371  -5.074  0.00  0.00    -0.191 NA
ENDBRANCH  10  12
BRANCH   8  14
ATOM     14  C   UNL     1      -6.691   0.637  -3.686  0.00  0.00    +0.165 C 
BRANCH  14  15
ATOM     15  C   UNL     1      -7.415   1.445  -2.640  0.00  0.00    +0.009 A 
ATOM     16  C   UNL     1      -8.627   2.047  -2.714  0.00  0.00    +0.013 A 
ATOM     17  C   UNL     1      -9.098   2.744  -1.617  0.00  0.00    +0.008 A 
ATOM     18  C   UNL     1      -8.333   2.805  -0.499  0.00  0.00    +0.045 A 
ATOM     19  S   UNL     1      -6.901   1.852  -0.979  0.00  0.00    -0.100 S 
ENDBRANCH  14  15
ENDBRANCH   8  14
ENDBRANCH   1   9
BRANCH   2  20
ATOM     20  C   UNL     1      -2.155   1.091  -1.165  0.00  0.00    +0.020 C 
BRANCH  20  25
ATOM     21  C   UNL     1      -0.089   2.381  -1.159  0.00  0.00    -0.077 C 
ATOM     22  C   UNL     1       0.840   2.978  -0.080  0.00  0.00    -0.020 C 
ATOM     23  C   UNL     1       0.294   2.443   1.260  0.00  0.00    -0.011 C 
ATOM     24  C   UNL     1      -0.919   1.567   0.878  0.00  0.00    -0.020 C 
ATOM     25  N   UNL     1      -1.323   2.095  -0.430  0.00  0.00    +0.391 N 
ATOM     26  H   UNL     1      -1.866   2.958  -0.308  0.00  0.00    -0.080 HD
BRANCH  24  27
ATOM     27  C   UNL     1      -2.019   1.718   1.898  0.00  0.00    +0.005 A 
ATOM     28  C   UNL     1      -3.278   2.130   1.647  0.00  0.00    +0.021 A 
ATOM     29  C   UNL     1      -3.974   2.128   2.872  0.00  0.00    +0.019 A 
ATOM     30  C   UNL     1      -3.113   1.715   3.825  0.00  0.00    +0.085 A 
ATOM     31  N   UNL     1      -1.913   1.457   3.232  0.00  0.00    -0.355 N 
ATOM     32  C   UNL     1      -0.708   0.980   3.915  0.00  0.00    +0.148 C 
ENDBRANCH  24  27
ENDBRANCH  20  25
ENDBRANCH   2  20
TORSDOF 7
