REMARK  Name = ZINC36340115
REMARK  12 active torsions:
REMARK  status: ('A' for Active; 'I' for Inactive)
REMARK    1  A    between atoms: C_1  and  C_2
REMARK    2  A    between atoms: C_7  and  C_8
REMARK    3  A    between atoms: C_8  and  C_9
REMARK    4  A    between atoms: C_10  and  C_29
REMARK    5  A    between atoms: C_12  and  C_28
REMARK    6  A    between atoms: C_14  and  N_15
REMARK    7  A    between atoms: N_18  and  C_21
REMARK    8  A    between atoms: C_21  and  C_22
REMARK    9  A    between atoms: C_22  and  C_24
REMARK   10  A    between atoms: C_22  and  O_27
REMARK   11  A    between atoms: C_24  and  C_25
REMARK   12  A    between atoms: C_24  and  C_26
REMARK                            x       y       z     vdW  Elec       q    Type
REMARK                         _______ _______ _______ _____ _____    ______ ____
ROOT
ATOM      1  C   UNL     1      -2.939  -0.639   2.548  0.00  0.00    +0.018 A 
ATOM      2  C   UNL     1      -3.200   0.677   2.221  0.00  0.00    +0.047 A 
ATOM      3  N   UNL     1      -2.556   1.642   2.862  0.00  0.00    -0.237 NA
ATOM      4  C   UNL     1      -1.675   1.363   3.802  0.00  0.00    +0.128 A 
ATOM      5  N   UNL     1      -1.395   0.123   4.145  0.00  0.00    -0.217 NA
ATOM      6  C   UNL     1      -2.005  -0.900   3.552  0.00  0.00    +0.129 A 
ATOM      7  C   UNL     1      -0.968   2.495   4.503  0.00  0.00    +0.088 C 
ATOM      8  C   UNL     1      -4.204   1.012   1.148  0.00  0.00    +0.066 C 
ENDROOT
BRANCH   6   9
ATOM      9  N   UNL     1      -1.712  -2.203   3.921  0.00  0.00    -0.312 N 
ATOM     10  C   UNL     1      -0.510  -2.880   3.411  0.00  0.00    +0.122 C 
ATOM     11  C   UNL     1       0.257  -3.469   4.599  0.00  0.00    +0.103 C 
ATOM     12  N   UNL     1      -0.645  -4.317   5.390  0.00  0.00    -0.297 NA
ATOM     13  C   UNL     1      -1.746  -3.532   5.964  0.00  0.00    +0.103 C 
ATOM     14  C   UNL     1      -2.593  -2.944   4.836  0.00  0.00    +0.122 C 
BRANCH  12  15
ATOM     15  C   UNL     1       0.091  -5.036   6.438  0.00  0.00    +0.116 C 
BRANCH  15  16
ATOM     16  C   UNL     1      -0.821  -6.087   7.073  0.00  0.00    +0.131 C 
BRANCH  16  17
ATOM     17  C   UNL     1      -0.096  -6.750   8.246  0.00  0.00    +0.013 C 
ATOM     18  C   UNL     1       0.263  -5.689   9.289  0.00  0.00    +0.010 C 
ATOM     19  C   UNL     1      -1.009  -7.801   8.881  0.00  0.00    +0.010 C 
ENDBRANCH  16  17
BRANCH  16  20
ATOM     20  O   UNL     1      -1.157  -7.077   6.099  0.00  0.00    -0.390 OA
ATOM     21  H   UNL     1      -0.393  -7.545   5.735  0.00  0.00    +0.210 HD
ENDBRANCH  16  20
ENDBRANCH  15  16
ENDBRANCH  12  15
ENDBRANCH   6   9
BRANCH   1  22
ATOM     22  C   UNL     1      -3.650  -1.766   1.843  0.00  0.00    +0.075 C 
BRANCH  22  29
ATOM     23  C   UNL     1      -5.950  -1.113   0.222  0.00  0.00    +0.044 C 
ATOM     24  C   UNL     1      -6.138  -1.605   1.634  0.00  0.00    -0.047 A 
ATOM     25  C   UNL     1      -7.412  -1.749   2.152  0.00  0.00    +0.003 A 
ATOM     26  C   UNL     1      -7.585  -2.199   3.447  0.00  0.00    +0.000 A 
ATOM     27  C   UNL     1      -6.484  -2.506   4.224  0.00  0.00    +0.000 A 
ATOM     28  C   UNL     1      -5.210  -2.363   3.706  0.00  0.00    +0.004 A 
ATOM     29  C   UNL     1      -5.038  -1.917   2.409  0.00  0.00    -0.040 A 
ENDBRANCH  22  29
ENDBRANCH   1  22
TORSDOF 7
