REMARK  Name = ZINC37937227
REMARK  4 active torsions:
REMARK  status: ('A' for Active; 'I' for Inactive)
REMARK    1  A    between atoms: C_3  and  N_8
REMARK    2  A    between atoms: N_8  and  C_9
REMARK    3  A    between atoms: C_9  and  C_11
REMARK    4  A    between atoms: C_9  and  C_13
REMARK                            x       y       z     vdW  Elec       q    Type
REMARK                         _______ _______ _______ _____ _____    ______ ____
ROOT
ATOM      1  C   UNL     1       4.860   1.408  -0.037  0.00  0.00    +0.205 C 
ENDROOT
BRANCH   1   2
ATOM      2  C   UNL     1       5.933   2.283   0.557  0.00  0.00    -0.012 A 
ATOM      3  C   UNL     1       5.956   3.636   0.275  0.00  0.00    +0.009 A 
ATOM      4  C   UNL     1       6.939   4.440   0.820  0.00  0.00    +0.040 A 
ATOM      5  C   UNL     1       7.902   3.890   1.649  0.00  0.00    +0.137 A 
ATOM      6  C   UNL     1       7.879   2.534   1.931  0.00  0.00    +0.053 A 
ATOM      7  C   UNL     1       6.891   1.733   1.389  0.00  0.00    +0.024 A 
ATOM      8 BR   UNL     1       9.193   1.781   3.063  0.00  0.00    -0.047 Br
ATOM      9  F   UNL     1       8.864   4.675   2.181  0.00  0.00    -0.204 F 
ENDBRANCH   1   2
BRANCH   1  10
ATOM     10  N   UNL     1       3.582   2.124  -0.021  0.00  0.00    -0.325 N 
ATOM     11  H   UNL     1       3.569   3.094  -0.016  0.00  0.00    +0.148 HD
BRANCH  10  14
ATOM     12  C   UNL     1      -0.017   1.378   0.010  0.00  0.00    +0.003 A 
ATOM     13  C   UNL     1       1.169   2.087   0.002  0.00  0.00    +0.023 A 
ATOM     14  C   UNL     1       2.382   1.410  -0.013  0.00  0.00    +0.030 A 
ATOM     15  C   UNL     1       2.398   0.021  -0.021  0.00  0.00    +0.043 A 
ATOM     16  C   UNL     1       1.208  -0.683  -0.013  0.00  0.00    +0.043 A 
ATOM     17  C   UNL     1       0.002  -0.004   0.002  0.00  0.00    +0.020 A 
ATOM     18 CL   UNL     1       1.227  -2.419  -0.023  0.00  0.00    -0.083 Cl
ENDBRANCH  10  14
ENDBRANCH   1  10
BRANCH   1  19
ATOM     19  C   UNL     1       5.216   1.070  -1.425  0.00  0.00    +0.090 C 
ATOM     20  N   UNL     1       5.490   0.808  -2.496  0.00  0.00    -0.194 NA
ENDBRANCH   1  19
TORSDOF 4
