REMARK  Name = ZINC10382052
REMARK  3 active torsions:
REMARK  status: ('A' for Active; 'I' for Inactive)
REMARK    1  A    between atoms: C_4  and  C_7
REMARK    2  A    between atoms: C_7  and  C_8
REMARK    3  A    between atoms: C_18  and  C_26
REMARK                            x       y       z     vdW  Elec       q    Type
REMARK                         _______ _______ _______ _____ _____    ______ ____
ROOT
ATOM      1  C   UNL     1      -0.019   1.526   0.010  0.00  0.00    -0.004 C 
ATOM      2  C   UNL     1       1.417   2.058  -0.000  0.00  0.00    +0.023 C 
ATOM      3  C   UNL     1       2.144   1.577   1.259  0.00  0.00    +0.108 C 
ATOM      4  N   UNL     1       2.043   0.113   1.334  0.00  0.00    -0.305 N 
ATOM      5  C   UNL     1       0.714  -0.508   1.262  0.00  0.00    +0.108 C 
ATOM      6  C   UNL     1       0.002  -0.004   0.002  0.00  0.00    +0.023 C 
ATOM      7  C   UNL     1       3.161  -0.654   1.468  0.00  0.00    +0.175 C 
ATOM      8  N   UNL     1       3.054  -1.970   1.540  0.00  0.00    -0.150 NA
ATOM      9  C   UNL     1       4.103  -2.773   1.649  0.00  0.00    +0.258 C 
ATOM     10  O   UNL     1       3.929  -3.973   1.734  0.00  0.00    -0.272 OA
ATOM     11  C   UNL     1       5.509  -2.225   1.677  0.00  0.00    +0.202 C 
ATOM     12  C   UNL     1       5.470  -0.793   2.202  0.00  0.00    +0.058 C 
ATOM     13  N   UNL     1       4.393  -0.060   1.534  0.00  0.00    -0.312 N 
ATOM     14  C   UNL     1       5.257  -0.785   3.728  0.00  0.00    +0.027 C 
ATOM     15  C   UNL     1       5.838   0.589   4.146  0.00  0.00    +0.002 C 
ATOM     16  C   UNL     1       7.062   0.781   3.226  0.00  0.00    +0.002 C 
ATOM     17  C   UNL     1       6.819  -0.095   1.983  0.00  0.00    +0.027 C 
ATOM     18  H   UNL     1       4.547   0.817   1.151  0.00  0.00    +0.149 HD
ENDROOT
BRANCH  11  19
ATOM     19  C   UNL     1       6.069  -2.237   0.316  0.00  0.00    +0.077 C 
ATOM     20  N   UNL     1       6.502  -2.246  -0.734  0.00  0.00    -0.196 NA
ENDBRANCH  11  19
BRANCH   1  21
ATOM     21  C   UNL     1      -0.759   2.033  -1.229  0.00  0.00    +0.038 C 
BRANCH  21  25
ATOM     22  C   UNL     1      -1.123   6.284  -1.033  0.00  0.00    +0.000 A 
ATOM     23  C   UNL     1      -0.020   5.712  -1.640  0.00  0.00    +0.000 A 
ATOM     24  C   UNL     1       0.097   4.336  -1.704  0.00  0.00    +0.003 A 
ATOM     25  C   UNL     1      -0.887   3.533  -1.159  0.00  0.00    -0.047 A 
ATOM     26  C   UNL     1      -1.992   4.105  -0.557  0.00  0.00    +0.003 A 
ATOM     27  C   UNL     1      -2.107   5.481  -0.489  0.00  0.00    +0.000 A 
ENDBRANCH  21  25
ENDBRANCH   1  21
TORSDOF 3
