REMARK  Name = ZINC22323335
REMARK  12 active torsions:
REMARK  status: ('A' for Active; 'I' for Inactive)
REMARK    1  A    between atoms: C_1  and  C_2
REMARK    2  A    between atoms: C_2  and  C_3
REMARK    3  A    between atoms: N_9  and  C_10
REMARK    4  A    between atoms: C_10  and  C_11
REMARK    5  A    between atoms: C_11  and  C_12
REMARK    6  A    between atoms: C_12  and  N_13
REMARK    7  A    between atoms: C_14  and  C_16
REMARK    8  A    between atoms: C_16  and  N_17
REMARK    9  A    between atoms: N_17  and  C_18
REMARK   10  A    between atoms: N_17  and  S_26
REMARK   11  A    between atoms: S_26  and  C_29
REMARK   12  A    between atoms: C_32  and  C_35
REMARK                            x       y       z     vdW  Elec       q    Type
REMARK                         _______ _______ _______ _____ _____    ______ ____
ROOT
ATOM      1  N   UNL     1      -8.870   1.597   5.626  0.00  0.00    -0.194 N 
ENDROOT
BRANCH   1   2
ATOM      2  C   UNL     1      -9.362   0.320   5.907  0.00  0.00    +0.055 A 
ATOM      3  C   UNL     1     -10.563  -0.101   5.349  0.00  0.00    +0.044 A 
ATOM      4  C   UNL     1     -11.045  -1.367   5.625  0.00  0.00    +0.044 A 
ATOM      5  C   UNL     1     -10.339  -2.210   6.464  0.00  0.00    +0.040 A 
ATOM      6  C   UNL     1      -9.145  -1.791   7.026  0.00  0.00    +0.044 A 
ATOM      7  C   UNL     1      -8.655  -0.528   6.749  0.00  0.00    +0.044 A 
ATOM      8 CL   UNL     1      -8.263  -2.852   8.079  0.00  0.00    -0.083 Cl
ATOM      9 CL   UNL     1     -12.541  -1.897   4.922  0.00  0.00    -0.083 Cl
ENDBRANCH   1   2
BRANCH   1  10
ATOM     10  S   UNL     1      -9.881   2.906   5.688  0.00  0.00    +0.075 S 
ATOM     11  O   UNL     1     -11.020   2.505   6.437  0.00  0.00    -0.150 OA
ATOM     12  O   UNL     1      -9.081   4.021   6.057  0.00  0.00    -0.150 OA
BRANCH  10  13
ATOM     13  C   UNL     1     -10.441   3.211   4.045  0.00  0.00    +0.109 A 
ATOM     14  C   UNL     1      -9.673   3.972   3.183  0.00  0.00    +0.029 A 
ATOM     15  C   UNL     1     -10.110   4.207   1.893  0.00  0.00    +0.005 A 
ATOM     16  C   UNL     1     -11.319   3.689   1.467  0.00  0.00    -0.050 A 
ATOM     17  C   UNL     1     -12.088   2.931   2.330  0.00  0.00    +0.005 A 
ATOM     18  C   UNL     1     -11.649   2.693   3.619  0.00  0.00    +0.029 A 
ATOM     19  C   UNL     1     -11.797   3.949   0.062  0.00  0.00    +0.044 C 
ENDBRANCH  10  13
ENDBRANCH   1  10
BRANCH   1  20
ATOM     20  C   UNL     1      -7.459   1.777   5.277  0.00  0.00    +0.227 C 
BRANCH  20  22
ATOM     21  N   UNL     1      -6.047   1.648   3.249  0.00  0.00    -0.314 N 
ATOM     22  C   UNL     1      -7.272   1.537   3.800  0.00  0.00    +0.232 C 
ATOM     23  O   UNL     1      -8.224   1.245   3.108  0.00  0.00    -0.274 OA
ATOM     24  H   UNL     1      -5.184   1.913   3.877  0.00  0.00    +0.149 HD
BRANCH  21  25
ATOM     25  C   UNL     1      -5.866   1.415   1.814  0.00  0.00    +0.102 C 
BRANCH  25  26
ATOM     26  C   UNL     1      -4.392   1.603   1.449  0.00  0.00    +0.000 C 
BRANCH  26  27
ATOM     27  C   UNL     1      -4.203   1.360  -0.049  0.00  0.00    -0.077 C 
BRANCH  27  33
ATOM     28  C   UNL     1      -2.550   1.220  -1.813  0.00  0.00    -0.069 C 
ATOM     29  C   UNL     1      -1.103   1.557  -2.178  0.00  0.00    -0.015 C 
ATOM     30  C   UNL     1      -0.155   0.750  -1.286  0.00  0.00    -0.003 C 
ATOM     31  C   UNL     1      -0.456   1.067   0.182  0.00  0.00    -0.019 C 
ATOM     32  C   UNL     1      -1.922   0.744   0.479  0.00  0.00    -0.078 C 
ATOM     33  N   UNL     1      -2.788   1.541  -0.400  0.00  0.00    +0.382 N 
ATOM     34  H   UNL     1      -2.533   2.600  -0.249  0.00  0.00    -0.081 HD
BRANCH  28  36
ATOM     35  C   UNL     1      -3.260   1.698  -4.160  0.00  0.00    +0.002 C 
ATOM     36  C   UNL     1      -3.501   2.039  -2.688  0.00  0.00    -0.019 C 
ENDBRANCH  28  36
ENDBRANCH  27  33
ENDBRANCH  26  27
ENDBRANCH  25  26
ENDBRANCH  21  25
ENDBRANCH  20  22
ENDBRANCH   1  20
TORSDOF 10
