REMARK  Name = ZINC54846985
REMARK  8 active torsions:
REMARK  status: ('A' for Active; 'I' for Inactive)
REMARK    1  A    between atoms: C_1  and  C_2
REMARK    2  A    between atoms: C_4  and  C_10
REMARK    3  A    between atoms: C_5  and  O_9
REMARK    4  A    between atoms: C_7  and  C_8
REMARK    5  A    between atoms: C_10  and  N_11
REMARK    6  A    between atoms: C_14  and  N_17
REMARK    7  A    between atoms: N_17  and  S_18
REMARK    8  A    between atoms: S_18  and  C_21
REMARK                            x       y       z     vdW  Elec       q    Type
REMARK                         _______ _______ _______ _____ _____    ______ ____
ROOT
ATOM      1  N   UNL     1       1.396  -3.247  -2.834  0.00  0.00    +0.383 N 
ATOM      2  C   UNL     1       1.801  -4.302  -1.897  0.00  0.00    -0.077 C 
ATOM      3  C   UNL     1       3.254  -4.699  -2.168  0.00  0.00    +0.002 C 
ATOM      4  C   UNL     1       3.377  -5.215  -3.605  0.00  0.00    +0.073 C 
ATOM      5  C   UNL     1       2.882  -4.133  -4.569  0.00  0.00    +0.002 C 
ATOM      6  C   UNL     1       1.443  -3.757  -4.210  0.00  0.00    -0.077 C 
ATOM      7  H   UNL     1       2.024  -2.462  -2.746  0.00  0.00    -0.081 HD
ENDROOT
BRANCH   4   8
ATOM      8  N   UNL     1       4.779  -5.526  -3.895  0.00  0.00    -0.187 NA
ATOM      9  H   UNL     1       5.485  -4.984  -3.511  0.00  0.00    +0.148 HD
BRANCH   8  10
ATOM     10  S   UNL     1       5.157  -6.803  -4.880  0.00  0.00    +0.059 S 
ATOM     11  O   UNL     1       6.574  -6.827  -4.987  0.00  0.00    -0.153 OA
ATOM     12  O   UNL     1       4.410  -7.915  -4.407  0.00  0.00    -0.153 OA
BRANCH  10  13
ATOM     13  C   UNL     1       4.537  -6.424  -6.485  0.00  0.00    +0.105 A 
ATOM     14  C   UNL     1       3.251  -6.794  -6.834  0.00  0.00    +0.028 A 
ATOM     15  C   UNL     1       2.765  -6.497  -8.093  0.00  0.00    +0.002 A 
ATOM     16  C   UNL     1       3.564  -5.830  -9.003  0.00  0.00    +0.000 A 
ATOM     17  C   UNL     1       4.849  -5.460  -8.654  0.00  0.00    +0.002 A 
ATOM     18  C   UNL     1       5.334  -5.753  -7.393  0.00  0.00    +0.028 A 
ENDBRANCH  10  13
ENDBRANCH   8  10
ENDBRANCH   4   8
BRANCH   1  19
ATOM     19  C   UNL     1       0.028  -2.814  -2.520  0.00  0.00    -0.039 C 
BRANCH  19  23
ATOM     20  C   UNL     1      -1.119  -2.966   2.348  0.00  0.00    +0.044 C 
ATOM     21  C   UNL     1      -0.541  -2.230   1.167  0.00  0.00    -0.047 A 
ATOM     22  C   UNL     1      -0.523  -2.831  -0.079  0.00  0.00    +0.009 A 
ATOM     23  C   UNL     1       0.007  -2.159  -1.163  0.00  0.00    -0.022 A 
ATOM     24  C   UNL     1       0.520  -0.880  -1.002  0.00  0.00    +0.118 A 
ATOM     25  C   UNL     1       0.500  -0.279   0.248  0.00  0.00    +0.049 A 
ATOM     26  C   UNL     1      -0.036  -0.954   1.329  0.00  0.00    -0.044 A 
ATOM     27  C   UNL     1      -0.063  -0.300   2.686  0.00  0.00    +0.044 C 
BRANCH  24  28
ATOM     28  O   UNL     1       1.042  -0.216  -2.067  0.00  0.00    -0.507 OA
ATOM     29  H   UNL     1       0.417   0.376  -2.506  0.00  0.00    +0.292 HD
ENDBRANCH  24  28
ENDBRANCH  19  23
ENDBRANCH   1  19
TORSDOF 6
