REMARK  Name = ZINC03180042
REMARK  6 active torsions:
REMARK  status: ('A' for Active; 'I' for Inactive)
REMARK    1  A    between atoms: C_1  and  C_2
REMARK    2  A    between atoms: C_2  and  O_3
REMARK    3  A    between atoms: O_3  and  C_4
REMARK    4  A    between atoms: C_11  and  C_15
REMARK    5  A    between atoms: C_11  and  C_22
REMARK    6  A    between atoms: C_18  and  C_21
REMARK                            x       y       z     vdW  Elec       q    Type
REMARK                         _______ _______ _______ _____ _____    ______ ____
ROOT
ATOM      1  C   UNL     1      -1.565  -1.778  -0.116  0.00  0.00    +0.124 A 
ATOM      2  C   UNL     1      -0.435  -2.589  -0.061  0.00  0.00    +0.046 A 
ATOM      3  C   UNL     1      -0.566  -3.959  -0.011  0.00  0.00    +0.020 A 
ATOM      4  C   UNL     1      -1.836  -4.531  -0.018  0.00  0.00    +0.079 A 
ATOM      5  C   UNL     1      -2.978  -3.712  -0.057  0.00  0.00    +0.140 A 
ATOM      6  C   UNL     1      -2.834  -2.339  -0.107  0.00  0.00    +0.092 A 
ATOM      7  O   UNL     1      -4.203  -4.292  -0.019  0.00  0.00    -0.454 OA
ATOM      8  C   UNL     1      -4.343  -5.578  -0.623  0.00  0.00    +0.300 C 
ATOM      9  N   UNL     1      -3.270  -6.476  -0.194  0.00  0.00    -0.263 N 
ATOM     10  C   UNL     1      -2.027  -5.992   0.027  0.00  0.00    +0.251 C 
ATOM     11  O   UNL     1      -1.095  -6.739   0.257  0.00  0.00    -0.270 OA
ATOM     12  H   UNL     1      -3.451  -7.421  -0.069  0.00  0.00    +0.153 HD
ENDROOT
BRANCH   8  13
ATOM     13  C   UNL     1      -5.671  -6.168  -0.226  0.00  0.00    +0.023 A 
ATOM     14  C   UNL     1      -5.832  -7.541  -0.183  0.00  0.00    +0.010 A 
ATOM     15  C   UNL     1      -7.051  -8.083   0.181  0.00  0.00    +0.004 A 
ATOM     16  C   UNL     1      -8.109  -7.252   0.501  0.00  0.00    -0.050 A 
ATOM     17  C   UNL     1      -7.948  -5.880   0.458  0.00  0.00    +0.004 A 
ATOM     18  C   UNL     1      -6.728  -5.338   0.099  0.00  0.00    +0.010 A 
ATOM     19  C   UNL     1      -9.438  -7.843   0.896  0.00  0.00    +0.044 C 
ENDBRANCH   8  13
BRANCH   8  20
ATOM     20  C   UNL     1      -4.295  -5.427  -2.144  0.00  0.00    +0.452 C 
ATOM     21  F   UNL     1      -3.070  -4.864  -2.518  0.00  0.00    -0.165 F 
ATOM     22  F   UNL     1      -4.432  -6.684  -2.742  0.00  0.00    -0.165 F 
ATOM     23  F   UNL     1      -5.338  -4.595  -2.564  0.00  0.00    -0.165 F 
ENDBRANCH   8  20
BRANCH   1  24
ATOM     24  O   UNL     1      -1.424  -0.430  -0.172  0.00  0.00    -0.492 OA
BRANCH  24  26
ATOM     25  C   UNL     1      -0.133   1.612  -0.244  0.00  0.00    +0.048 C 
ATOM     26  C   UNL     1      -0.091   0.084  -0.178  0.00  0.00    +0.225 C 
ENDBRANCH  24  26
ENDBRANCH   1  24
TORSDOF 4
