REMARK  Name = ZINC35472131
REMARK  6 active torsions:
REMARK  status: ('A' for Active; 'I' for Inactive)
REMARK    1  A    between atoms: C_1  and  C_2
REMARK    2  A    between atoms: C_2  and  C_3
REMARK    3  A    between atoms: C_2  and  C_4
REMARK    4  A    between atoms: C_7  and  C_10
REMARK    5  A    between atoms: N_15  and  C_18
REMARK    6  A    between atoms: N_21  and  C_25
REMARK                            x       y       z     vdW  Elec       q    Type
REMARK                         _______ _______ _______ _____ _____    ______ ____
ROOT
ATOM      1  C   UNL     1      -5.419  -2.005   0.043  0.00  0.00    +0.142 C 
ATOM      2  C   UNL     1      -5.395  -3.406   0.618  0.00  0.00    +0.058 C 
ATOM      3  C   UNL     1      -5.877  -4.407  -0.147  0.00  0.00    +0.042 C 
ATOM      4  C   UNL     1      -5.729  -5.673   0.666  0.00  0.00    +0.159 C 
ATOM      5  N   UNL     1      -5.123  -5.241   1.933  0.00  0.00    -0.289 N 
ATOM      6  C   UNL     1      -4.947  -3.909   1.857  0.00  0.00    +0.247 C 
ATOM      7  O   UNL     1      -4.463  -3.227   2.742  0.00  0.00    -0.270 OA
ATOM      8  N   UNL     1      -6.370  -4.166  -1.397  0.00  0.00    -0.260 N 
ATOM      9  C   UNL     1      -6.417  -2.949  -1.954  0.00  0.00    +0.307 C 
ATOM     10  O   UNL     1      -6.875  -2.831  -3.074  0.00  0.00    -0.252 OA
ATOM     11  N   UNL     1      -5.971  -1.851  -1.313  0.00  0.00    -0.288 N 
ATOM     12  C   UNL     1      -6.878  -5.301  -2.172  0.00  0.00    +0.139 C 
ATOM     13  H   UNL     1      -6.013  -0.979  -1.736  0.00  0.00    +0.151 HD
ENDROOT
BRANCH   1  17
ATOM     14  C   UNL     1      -1.412  -0.526   0.013  0.00  0.00    -0.045 A 
ATOM     15  C   UNL     1      -2.259  -0.204   1.056  0.00  0.00    +0.004 A 
ATOM     16  C   UNL     1      -3.556  -0.683   1.066  0.00  0.00    +0.006 A 
ATOM     17  C   UNL     1      -4.006  -1.482   0.032  0.00  0.00    -0.023 A 
ATOM     18  C   UNL     1      -3.159  -1.803  -1.012  0.00  0.00    +0.006 A 
ATOM     19  C   UNL     1      -1.863  -1.321  -1.024  0.00  0.00    +0.004 A 
BRANCH  14  21
ATOM     20  C   UNL     1      -0.019   1.526   0.010  0.00  0.00    +0.012 C 
ATOM     21  C   UNL     1       0.002  -0.004   0.002  0.00  0.00    +0.013 C 
ATOM     22  C   UNL     1       0.742  -0.511   1.242  0.00  0.00    +0.012 C 
ENDBRANCH  14  21
ENDBRANCH   1  17
BRANCH   5  23
ATOM     23  C   UNL     1      -4.775  -6.100   3.068  0.00  0.00    +0.077 C 
ATOM     24  C   UNL     1      -4.340  -5.415   4.365  0.00  0.00    +0.024 C 
ATOM     25  C   UNL     1      -3.308  -6.140   3.499  0.00  0.00    +0.024 C 
ENDBRANCH   5  23
TORSDOF 3
