REMARK  Name = ZINC26505082
REMARK  12 active torsions:
REMARK  status: ('A' for Active; 'I' for Inactive)
REMARK    1  A    between atoms: C_1  and  C_2
REMARK    2  A    between atoms: C_2  and  C_3
REMARK    3  A    between atoms: C_2  and  C_4
REMARK    4  A    between atoms: C_4  and  C_6
REMARK    5  A    between atoms: C_4  and  N_20
REMARK    6  A    between atoms: N_8  and  N_9
REMARK    7  A    between atoms: C_10  and  C_12
REMARK    8  A    between atoms: C_21  and  C_23
REMARK    9  A    between atoms: C_25  and  O_31
REMARK   10  A    between atoms: C_27  and  O_29
REMARK   11  A    between atoms: O_29  and  C_30
REMARK   12  A    between atoms: O_31  and  C_32
REMARK                            x       y       z     vdW  Elec       q    Type
REMARK                         _______ _______ _______ _____ _____    ______ ____
ROOT
ATOM      1  C   UNL     1      -2.791   4.058   0.120  0.00  0.00    +0.163 C 
ENDROOT
BRANCH   1   2
ATOM      2  C   UNL     1      -2.575   5.219   1.056  0.00  0.00    +0.250 C 
ATOM      3  O   UNL     1      -1.449   5.583   1.322  0.00  0.00    -0.272 OA
ATOM      4  N   UNL     1      -3.633   5.853   1.598  0.00  0.00    -0.233 N 
ATOM      5  H   UNL     1      -4.651   5.476   1.419  0.00  0.00    +0.173 HD
BRANCH   4   6
ATOM      6  N   UNL     1      -3.437   6.993   2.390  0.00  0.00    -0.230 N 
ATOM      7  C   UNL     1      -4.496   7.627   2.932  0.00  0.00    +0.262 C 
ATOM      8  O   UNL     1      -5.620   7.210   2.734  0.00  0.00    -0.269 OA
ATOM      9  H   UNL     1      -2.419   7.370   2.568  0.00  0.00    +0.173 HD
BRANCH   7  10
ATOM     10  C   UNL     1      -4.289   8.829   3.767  0.00  0.00    +0.058 A 
ATOM     11  C   UNL     1      -2.998   9.306   4.000  0.00  0.00    +0.034 A 
ATOM     12  C   UNL     1      -2.812  10.432   4.777  0.00  0.00    +0.042 A 
ATOM     13  C   UNL     1      -3.902  11.082   5.333  0.00  0.00    +0.021 A 
ATOM     14  C   UNL     1      -5.183  10.611   5.110  0.00  0.00    +0.022 A 
ATOM     15  C   UNL     1      -5.384   9.488   4.330  0.00  0.00    +0.053 A 
ATOM     16 CL   UNL     1      -6.993   8.899   4.051  0.00  0.00    -0.083 Cl
ATOM     17 CL   UNL     1      -1.208  11.031   5.063  0.00  0.00    -0.084 Cl
ENDBRANCH   7  10
ENDBRANCH   4   6
ENDBRANCH   1   2
BRANCH   1  18
ATOM     18  N   UNL     1      -1.613   3.187   0.143  0.00  0.00    -0.300 N 
ATOM     19  C   UNL     1      -1.732   1.884  -0.181  0.00  0.00    +0.245 C 
ATOM     20  O   UNL     1      -2.817   1.432  -0.492  0.00  0.00    -0.270 OA
ATOM     21  H   UNL     1      -0.631   3.596   0.424  0.00  0.00    +0.150 HD
BRANCH  19  22
ATOM     22  C   UNL     1      -0.543   1.005  -0.158  0.00  0.00    +0.044 A 
ATOM     23  C   UNL     1       0.703   1.523   0.193  0.00  0.00    +0.059 A 
ATOM     24  C   UNL     1       1.815   0.697   0.208  0.00  0.00    +0.124 A 
ATOM     25  C   UNL     1       1.690  -0.643  -0.126  0.00  0.00    +0.091 A 
ATOM     26  C   UNL     1       0.453  -1.163  -0.476  0.00  0.00    +0.124 A 
ATOM     27  C   UNL     1      -0.664  -0.344  -0.493  0.00  0.00    +0.059 A 
BRANCH  26  28
ATOM     28  O   UNL     1       0.336  -2.477  -0.802  0.00  0.00    -0.495 OA
ATOM     29  C   UNL     1       1.528  -3.264  -0.763  0.00  0.00    +0.277 C 
ENDBRANCH  26  28
BRANCH  24  30
ATOM     30  O   UNL     1       3.030   1.201   0.551  0.00  0.00    -0.495 OA
ATOM     31  C   UNL     1       4.133   0.293   0.546  0.00  0.00    +0.277 C 
ENDBRANCH  24  30
ENDBRANCH  19  22
ENDBRANCH   1  18
BRANCH   1  33
ATOM     32  C   UNL     1      -4.292   5.416  -1.344  0.00  0.00    +0.009 C 
ATOM     33  C   UNL     1      -3.010   4.582  -1.301  0.00  0.00    +0.012 C 
ATOM     34  C   UNL     1      -1.821   5.453  -1.712  0.00  0.00    +0.009 C 
ENDBRANCH   1  33
TORSDOF 8
