REMARK  Name = ZINC02795341
REMARK  10 active torsions:
REMARK  status: ('A' for Active; 'I' for Inactive)
REMARK    1  A    between atoms: C_1  and  C_2
REMARK    2  A    between atoms: C_5  and  N_9
REMARK    3  A    between atoms: C_6  and  C_8
REMARK    4  A    between atoms: N_9  and  C_10
REMARK    5  A    between atoms: C_10  and  N_12
REMARK    6  A    between atoms: N_12  and  N_13
REMARK    7  A    between atoms: C_14  and  C_16
REMARK    8  A    between atoms: C_16  and  C_18
REMARK    9  A    between atoms: C_16  and  C_19
REMARK   10  A    between atoms: C_19  and  N_20
REMARK                            x       y       z     vdW  Elec       q    Type
REMARK                         _______ _______ _______ _____ _____    ______ ____
ROOT
ATOM      1  N   UNL     1       4.635   7.087   2.540  0.00  0.00    -0.246 N 
ATOM      2  H   UNL     1       4.287   7.874   2.091  0.00  0.00    +0.172 HD
ENDROOT
BRANCH   1   3
ATOM      3  N   UNL     1       4.181   5.813   2.173  0.00  0.00    -0.235 N 
ATOM      4  C   UNL     1       3.261   5.681   1.197  0.00  0.00    +0.234 C 
ATOM      5  O   UNL     1       2.826   6.665   0.636  0.00  0.00    -0.274 OA
ATOM      6  H   UNL     1       4.528   5.027   2.622  0.00  0.00    +0.173 HD
BRANCH   4   7
ATOM      7  C   UNL     1       2.772   4.312   0.802  0.00  0.00    +0.095 C 
ATOM      8  C   UNL     1       3.953   3.470   0.314  0.00  0.00    +0.019 C 
BRANCH   7   9
ATOM      9  C   UNL     1       1.740   4.442  -0.320  0.00  0.00    +0.156 C 
BRANCH   9  10
ATOM     10  N   UNL     1       1.177   3.123  -0.621  0.00  0.00    -0.270 N 
ATOM     11  C   UNL     1      -0.134   2.800  -0.619  0.00  0.00    +0.123 A 
ATOM     12  C   UNL     1      -0.236   1.492  -0.955  0.00  0.00    +0.055 A 
ATOM     13  C   UNL     1       1.057   0.998  -1.160  0.00  0.00    +0.149 A 
ATOM     14  N   UNL     1       1.904   1.976  -0.964  0.00  0.00    -0.179 NA
ATOM     15 BR   UNL     1      -1.842   0.506  -1.114  0.00  0.00    -0.047 Br
ENDBRANCH   9  10
ENDBRANCH   7   9
ENDBRANCH   4   7
ENDBRANCH   1   3
BRANCH   1  16
ATOM     16  C   UNL     1       5.555   7.219   3.516  0.00  0.00    +0.151 C 
ATOM     17  S   UNL     1       6.110   8.775   3.964  0.00  0.00    -0.017 S 
BRANCH  16  18
ATOM     18  N   UNL     1       6.037   6.126   4.139  0.00  0.00    -0.296 N 
ATOM     19  H   UNL     1       5.667   5.251   3.942  0.00  0.00    +0.154 HD
BRANCH  18  24
ATOM     20  C   UNL     1      10.239   6.638   7.916  0.00  0.00    +0.044 C 
ATOM     21  C   UNL     1       9.123   6.502   6.913  0.00  0.00    -0.050 A 
ATOM     22  C   UNL     1       9.187   7.185   5.712  0.00  0.00    +0.005 A 
ATOM     23  C   UNL     1       8.166   7.063   4.791  0.00  0.00    +0.024 A 
ATOM     24  C   UNL     1       7.074   6.252   5.071  0.00  0.00    +0.036 A 
ATOM     25  C   UNL     1       7.009   5.572   6.279  0.00  0.00    -0.029 A 
ATOM     26  C   UNL     1       8.037   5.694   7.195  0.00  0.00    +0.008 A 
ATOM     27  C   UNL     1       5.823   4.696   6.590  0.00  0.00    +0.045 C 
ENDBRANCH  18  24
ENDBRANCH  16  18
ENDBRANCH   1  16
TORSDOF 7
