REMARK  Name = ZINC03271737
REMARK  8 active torsions:
REMARK  status: ('A' for Active; 'I' for Inactive)
REMARK    1  A    between atoms: C_8  and  C_10
REMARK    2  A    between atoms: C_13  and  C_15
REMARK    3  A    between atoms: C_15  and  O_17
REMARK    4  A    between atoms: O_17  and  C_18
REMARK    5  A    between atoms: C_18  and  C_19
REMARK    6  A    between atoms: N_21  and  C_22
REMARK    7  A    between atoms: C_25  and  S_28
REMARK    8  A    between atoms: S_28  and  N_31
REMARK                            x       y       z     vdW  Elec       q    Type
REMARK                         _______ _______ _______ _____ _____    ______ ____
ROOT
ATOM      1  O   UNL     1       2.243   5.754   0.009  0.00  0.00    -0.451 OA
ENDROOT
BRANCH   1   2
ATOM      2  C   UNL     1       0.916   5.511   0.013  0.00  0.00    +0.346 C 
ATOM      3  O   UNL     1       0.128   6.438   0.016  0.00  0.00    -0.244 OA
BRANCH   2   7
ATOM      4  C   UNL     1      -0.019   1.468   0.013  0.00  0.00    +0.045 A 
ATOM      5  C   UNL     1      -1.110   2.325   0.012  0.00  0.00    +0.019 A 
ATOM      6  C   UNL     1      -0.887   3.672   0.018  0.00  0.00    +0.023 A 
ATOM      7  C   UNL     1       0.424   4.131   0.014  0.00  0.00    +0.097 A 
ATOM      8  S   UNL     1       1.355   2.608   0.009  0.00  0.00    -0.080 S 
BRANCH   4  16
ATOM      9  C   UNL     1       1.634  -4.454   0.004  0.00  0.00    +0.002 A 
ATOM     10  C   UNL     1       0.321  -4.904   0.008  0.00  0.00    +0.001 A 
ATOM     11  C   UNL     1      -0.711  -3.984   0.012  0.00  0.00    +0.017 A 
ATOM     12  C   UNL     1      -0.419  -2.642   0.012  0.00  0.00    +0.040 A 
ATOM     13  C   UNL     1       0.909  -2.151   0.007  0.00  0.00    +0.079 A 
ATOM     14  C   UNL     1       1.935  -3.128   0.004  0.00  0.00    +0.029 A 
ATOM     15  N   UNL     1       1.038  -0.817   0.008  0.00  0.00    -0.239 NA
ATOM     16  C   UNL     1       0.001  -0.004   0.012  0.00  0.00    +0.116 A 
ATOM     17  S   UNL     1      -1.375  -1.145   0.023  0.00  0.00    -0.067 S 
ENDBRANCH   4  16
ENDBRANCH   2   7
ENDBRANCH   1   2
BRANCH   1  18
ATOM     18  C   UNL     1       2.658   7.145   0.009  0.00  0.00    +0.328 C 
BRANCH  18  19
ATOM     19  C   UNL     1       4.163   7.220   0.004  0.00  0.00    +0.255 C 
ATOM     20  O   UNL     1       4.821   6.201   0.001  0.00  0.00    -0.272 OA
ATOM     21  N   UNL     1       4.778   8.419   0.003  0.00  0.00    -0.283 N 
ATOM     22  H   UNL     1       4.254   9.233  -0.063  0.00  0.00    +0.155 HD
BRANCH  21  23
ATOM     23  C   UNL     1       6.173   8.491   0.096  0.00  0.00    +0.034 A 
ATOM     24  C   UNL     1       6.771   9.536   0.788  0.00  0.00    +0.025 A 
ATOM     25  C   UNL     1       8.148   9.599   0.883  0.00  0.00    +0.030 A 
ATOM     26  C   UNL     1       8.930   8.631   0.281  0.00  0.00    +0.105 A 
ATOM     27  C   UNL     1       8.337   7.593  -0.414  0.00  0.00    +0.030 A 
ATOM     28  C   UNL     1       6.961   7.520  -0.508  0.00  0.00    +0.025 A 
BRANCH  26  29
ATOM     29  S   UNL     1      10.685   8.720   0.399  0.00  0.00    +0.056 S 
ATOM     30  O   UNL     1      10.976   9.484   1.562  0.00  0.00    -0.153 OA
ATOM     31  O   UNL     1      11.173   7.399   0.214  0.00  0.00    -0.153 OA
BRANCH  29  32
ATOM     32  N   UNL     1      11.219   9.607  -0.895  0.00  0.00    -0.204 NA
ATOM     33  H   UNL     1      10.582   9.960  -1.535  0.00  0.00    +0.144 HD
ATOM     34  H   UNL     1      12.167   9.771  -1.012  0.00  0.00    +0.144 HD
ENDBRANCH  29  32
ENDBRANCH  26  29
ENDBRANCH  21  23
ENDBRANCH  18  19
ENDBRANCH   1  18
TORSDOF 8
