REMARK  Name = ZINC00238259
REMARK  6 active torsions:
REMARK  status: ('A' for Active; 'I' for Inactive)
REMARK    1  A    between atoms: C_1  and  C_2
REMARK    2  A    between atoms: C_2  and  O_3
REMARK    3  A    between atoms: O_3  and  C_4
REMARK    4  A    between atoms: N_6  and  C_7
REMARK    5  A    between atoms: N_6  and  P_13
REMARK    6  A    between atoms: C_18  and  C_21
REMARK                            x       y       z     vdW  Elec       q    Type
REMARK                         _______ _______ _______ _____ _____    ______ ____
ROOT
ATOM      1  C   UNL     1       0.976   5.927  -0.477  0.00  0.00    +0.414 C 
ATOM      2  O   UNL     1       1.931   5.330  -0.932  0.00  0.00    -0.225 OA
ATOM      3  N   UNL     1      -0.069   5.242   0.028  0.00  0.00    -0.168 N 
ENDROOT
BRANCH   3   4
ATOM      4  P   UNL     1      -1.411   6.042   0.528  0.00  0.00    +0.272 P 
ATOM      5  S   UNL     1      -2.373   6.664  -0.942  0.00  0.00    +0.013 S 
ATOM      6  O   UNL     1      -0.997   7.280   1.496  0.00  0.00    -0.317 OA
ATOM      7  C   UNL     1      -0.692   7.013   2.878  0.00  0.00    +0.171 C 
ATOM      8  C   UNL     1      -1.844   6.223   3.499  0.00  0.00    +0.060 C 
ATOM      9  C   UNL     1      -1.997   4.863   2.818  0.00  0.00    +0.126 C 
ATOM     10  O   UNL     1      -2.341   5.066   1.435  0.00  0.00    -0.314 OA
ATOM     11  C   UNL     1      -3.105   4.064   3.509  0.00  0.00    +0.038 C 
ENDBRANCH   3   4
BRANCH   3  12
ATOM     12  C   UNL     1      -0.009   3.847   0.126  0.00  0.00    +0.048 A 
ATOM     13  C   UNL     1       0.592   3.252   1.226  0.00  0.00    +0.024 A 
ATOM     14  C   UNL     1       0.650   1.875   1.319  0.00  0.00    +0.002 A 
ATOM     15  C   UNL     1       0.110   1.089   0.318  0.00  0.00    +0.000 A 
ATOM     16  C   UNL     1      -0.485   1.679  -0.782  0.00  0.00    +0.002 A 
ATOM     17  C   UNL     1      -0.551   3.055  -0.878  0.00  0.00    +0.024 A 
ENDBRANCH   3  12
BRANCH   1  18
ATOM     18  O   UNL     1       0.961   7.274  -0.476  0.00  0.00    -0.450 OA
BRANCH  18  20
ATOM     19  C   UNL     1       1.923   9.461  -0.948  0.00  0.00    +0.048 C 
ATOM     20  C   UNL     1       2.120   7.946  -1.036  0.00  0.00    +0.230 C 
ENDBRANCH  18  20
ENDBRANCH   1  18
TORSDOF 4
