REMARK  Name = ZINC37193417
REMARK  7 active torsions:
REMARK  status: ('A' for Active; 'I' for Inactive)
REMARK    1  A    between atoms: C_1  and  C_2
REMARK    2  A    between atoms: C_4  and  N_22
REMARK    3  A    between atoms: C_7  and  S_8
REMARK    4  A    between atoms: S_8  and  C_9
REMARK    5  A    between atoms: C_9  and  C_10
REMARK    6  A    between atoms: C_14  and  C_21
REMARK    7  A    between atoms: C_17  and  C_20
REMARK                            x       y       z     vdW  Elec       q    Type
REMARK                         _______ _______ _______ _____ _____    ______ ____
ROOT
ATOM      1  S   UNL     1       0.026   0.168   2.732  0.00  0.00    -0.116 S 
ENDROOT
BRANCH   1   8
ATOM      2  C   UNL     1      -0.018   1.503   0.010  0.00  0.00    +0.045 C 
ATOM      3  C   UNL     1       0.002  -0.004   0.002  0.00  0.00    -0.035 A 
ATOM      4  C   UNL     1       0.006  -0.688  -1.198  0.00  0.00    +0.027 A 
ATOM      5  C   UNL     1       0.024  -2.076  -1.205  0.00  0.00    +0.025 A 
ATOM      6  C   UNL     1       0.039  -2.778  -0.006  0.00  0.00    +0.024 A 
ATOM      7  C   UNL     1       0.035  -2.094   1.193  0.00  0.00    +0.017 A 
ATOM      8  C   UNL     1       0.023  -0.705   1.201  0.00  0.00    +0.011 A 
BRANCH   5   9
ATOM      9  N   UNL     1       0.027  -2.770  -2.422  0.00  0.00    -0.358 N 
ATOM     10  H   UNL     1       0.017  -2.280  -3.259  0.00  0.00    +0.142 HD
ATOM     11  H   UNL     1       0.040  -3.740  -2.427  0.00  0.00    +0.142 HD
ENDBRANCH   5   9
ENDBRANCH   1   8
BRANCH   1  12
ATOM     12  C   UNL     1       0.056  -1.144   3.985  0.00  0.00    +0.170 C 
BRANCH  12  13
ATOM     13  C   UNL     1       0.061  -0.526   5.359  0.00  0.00    +0.226 C 
ATOM     14  O   UNL     1       0.046   0.680   5.481  0.00  0.00    -0.275 OA
ATOM     15  N   UNL     1       0.082  -1.314   6.452  0.00  0.00    -0.296 N 
ATOM     16  C   UNL     1       0.106  -2.780   6.329  0.00  0.00    +0.139 C 
ATOM     17  C   UNL     1       1.245  -3.320   7.201  0.00  0.00    +0.133 C 
ATOM     18  O   UNL     1       1.113  -2.797   8.525  0.00  0.00    -0.371 OA
ATOM     19  C   UNL     1       1.222  -1.373   8.605  0.00  0.00    +0.133 C 
ATOM     20  C   UNL     1       0.087  -0.734   7.804  0.00  0.00    +0.139 C 
ATOM     21  C   UNL     1       1.129  -0.935  10.068  0.00  0.00    +0.039 C 
ATOM     22  C   UNL     1       2.590  -2.888   6.612  0.00  0.00    +0.039 C 
ENDBRANCH  12  13
ENDBRANCH   1  12
TORSDOF 4
