REMARK  Name = ZINC02206119
REMARK  8 active torsions:
REMARK  status: ('A' for Active; 'I' for Inactive)
REMARK    1  A    between atoms: C_3  and  C_8
REMARK    2  A    between atoms: C_5  and  O_7
REMARK    3  A    between atoms: N_9  and  N_10
REMARK    4  A    between atoms: C_11  and  C_13
REMARK    5  A    between atoms: C_13  and  S_14
REMARK    6  A    between atoms: S_14  and  C_15
REMARK    7  A    between atoms: C_18  and  C_27
REMARK    8  A    between atoms: N_19  and  C_20
REMARK                            x       y       z     vdW  Elec       q    Type
REMARK                         _______ _______ _______ _____ _____    ______ ____
ROOT
ATOM      1  C   UNL     1      -3.891  11.833   0.097  0.00  0.00    +0.197 A 
ATOM      2  N   UNL     1      -2.729  12.447   0.088  0.00  0.00    -0.122 NA
ATOM      3  N   UNL     1      -2.902  13.721   0.095  0.00  0.00    -0.128 NA
ATOM      4  C   UNL     1      -4.185  14.000   0.108  0.00  0.00    +0.169 A 
ATOM      5  N   UNL     1      -4.860  12.799   0.105  0.00  0.00    -0.270 N 
ENDROOT
BRANCH   5   6
ATOM      6  C   UNL     1      -6.249  12.607   0.111  0.00  0.00    +0.051 A 
ATOM      7  C   UNL     1      -7.013  13.023  -0.970  0.00  0.00    +0.028 A 
ATOM      8  C   UNL     1      -8.381  12.828  -0.964  0.00  0.00    +0.022 A 
ATOM      9  C   UNL     1      -8.990  12.228   0.124  0.00  0.00    +0.041 A 
ATOM     10  C   UNL     1      -8.231  11.817   1.205  0.00  0.00    +0.022 A 
ATOM     11  C   UNL     1      -6.863  12.005   1.201  0.00  0.00    +0.028 A 
ATOM     12 CL   UNL     1     -10.710  11.990   0.132  0.00  0.00    -0.084 Cl
ENDBRANCH   5   6
BRANCH   4  13
ATOM     13  C   UNL     1      -4.791  15.348   0.120  0.00  0.00    +0.020 A 
ATOM     14  C   UNL     1      -6.140  15.508   0.442  0.00  0.00    +0.013 A 
ATOM     15  C   UNL     1      -6.698  16.769   0.456  0.00  0.00    +0.021 A 
ATOM     16  C   UNL     1      -5.926  17.875   0.142  0.00  0.00    +0.041 A 
ATOM     17  C   UNL     1      -4.588  17.722  -0.182  0.00  0.00    +0.021 A 
ATOM     18  C   UNL     1      -4.017  16.467  -0.195  0.00  0.00    +0.013 A 
ATOM     19 CL   UNL     1      -6.637  19.458   0.156  0.00  0.00    -0.084 Cl
ENDBRANCH   4  13
BRANCH   1  20
ATOM     20  S   UNL     1      -4.152  10.090   0.091  0.00  0.00    -0.076 S 
BRANCH  20  21
ATOM     21  C   UNL     1      -2.436   9.515   0.072  0.00  0.00    +0.174 C 
BRANCH  21  23
ATOM     22  N   UNL     1      -1.233   7.354   0.050  0.00  0.00    -0.206 N 
ATOM     23  C   UNL     1      -2.411   8.009   0.064  0.00  0.00    +0.242 C 
ATOM     24  O   UNL     1      -3.452   7.385   0.071  0.00  0.00    -0.273 OA
ATOM     25  H   UNL     1      -0.401   7.853   0.044  0.00  0.00    +0.177 HD
BRANCH  22  27
ATOM     26  C   UNL     1      -0.076   5.323   0.029  0.00  0.00    +0.138 C 
ATOM     27  N   UNL     1      -1.210   5.953   0.043  0.00  0.00    -0.188 NA
BRANCH  26  30
ATOM     28  C   UNL     1      -1.221   1.748   0.017  0.00  0.00    +0.004 A 
ATOM     29  C   UNL     1      -1.248   3.127   0.030  0.00  0.00    +0.010 A 
ATOM     30  C   UNL     1      -0.051   3.849   0.022  0.00  0.00    -0.002 A 
ATOM     31  C   UNL     1       1.168   3.168   0.007  0.00  0.00    +0.054 A 
ATOM     32  C   UNL     1       1.182   1.784   0.000  0.00  0.00    +0.117 A 
ATOM     33  C   UNL     1      -0.013   1.076   0.008  0.00  0.00    +0.045 A 
BRANCH  32  34
ATOM     34  O   UNL     1       2.366   1.117  -0.015  0.00  0.00    -0.507 OA
ATOM     35  H   UNL     1       2.701   0.929  -0.902  0.00  0.00    +0.292 HD
ENDBRANCH  32  34
ENDBRANCH  26  30
ENDBRANCH  22  27
ENDBRANCH  21  23
ENDBRANCH  20  21
ENDBRANCH   1  20
TORSDOF 8
