REMARK  Name = ZINC16046832
REMARK  11 active torsions:
REMARK  status: ('A' for Active; 'I' for Inactive)
REMARK    1  A    between atoms: C_1  and  C_2
REMARK    2  A    between atoms: C_2  and  O_3
REMARK    3  A    between atoms: O_3  and  C_4
REMARK    4  A    between atoms: C_4  and  C_6
REMARK    5  A    between atoms: C_10  and  N_11
REMARK    6  A    between atoms: C_12  and  C_14
REMARK    7  A    between atoms: N_23  and  C_25
REMARK    8  A    between atoms: C_26  and  C_31
REMARK    9  A    between atoms: C_26  and  C_32
REMARK   10  A    between atoms: C_27  and  C_29
REMARK   11  A    between atoms: C_27  and  C_30
REMARK                            x       y       z     vdW  Elec       q    Type
REMARK                         _______ _______ _______ _____ _____    ______ ____
ROOT
ATOM      1  C   UNL     1       1.316  -0.611  -0.021  0.00  0.00    +0.091 A 
ATOM      2  C   UNL     1       0.002  -0.004   0.002  0.00  0.00    -0.024 A 
ATOM      3  C   UNL     1      -0.016   1.349   0.009  0.00  0.00    -0.016 A 
ATOM      4  S   UNL     1       1.690   1.818  -0.004  0.00  0.00    -0.079 S 
ATOM      5  C   UNL     1       2.414   0.244  -0.028  0.00  0.00    +0.087 A 
ATOM      6  C   UNL     1      -1.229   2.221   0.016  0.00  0.00    -0.041 C 
ATOM      7  C   UNL     1      -2.326   0.118   0.801  0.00  0.00    -0.069 C 
ATOM      8  C   UNL     1      -1.327  -0.747   0.024  0.00  0.00    +0.024 C 
ATOM      9  C   UNL     1      -3.701  -0.572   0.732  0.00  0.00    -0.010 C 
ATOM     10  C   UNL     1      -1.903   0.179   2.272  0.00  0.00    -0.010 C 
ATOM     11  C   UNL     1      -1.074   3.298   1.099  0.00  0.00    -0.005 C 
ATOM     12  C   UNL     1      -1.324   2.930  -1.348  0.00  0.00    -0.005 C 
ATOM     13  N   UNL     1      -2.504   1.476   0.224  0.00  0.00    +0.389 N 
ATOM     14  H   UNL     1      -2.973   1.381  -0.685  0.00  0.00    -0.084 HD
ATOM     15  H   UNL     1      -3.097   2.022   0.860  0.00  0.00    -0.084 HD
ENDROOT
BRANCH   5  16
ATOM     16  N   UNL     1       3.758  -0.085  -0.049  0.00  0.00    -0.274 N 
ATOM     17  C   UNL     1       4.690   0.888  -0.052  0.00  0.00    +0.269 C 
ATOM     18  O   UNL     1       4.351   2.056  -0.036  0.00  0.00    -0.268 OA
ATOM     19  H   UNL     1       4.029  -1.016  -0.062  0.00  0.00    +0.156 HD
BRANCH  17  20
ATOM     20  C   UNL     1       6.124   0.538  -0.075  0.00  0.00    +0.154 A 
ATOM     21  C   UNL     1       7.149   1.594  -0.085  0.00  0.00    +0.020 A 
ATOM     22  C   UNL     1       6.835   2.948  -0.062  0.00  0.00    +0.011 A 
ATOM     23  C   UNL     1       7.853   3.879  -0.068  0.00  0.00    +0.001 A 
ATOM     24  C   UNL     1       9.182   3.478  -0.090  0.00  0.00    +0.001 A 
ATOM     25  C   UNL     1       9.515   2.140  -0.108  0.00  0.00    +0.014 A 
ATOM     26  C   UNL     1       8.503   1.186  -0.102  0.00  0.00    +0.050 A 
ATOM     27  C   UNL     1       8.768  -0.259  -0.121  0.00  0.00    +0.275 A 
ATOM     28  O   UNL     1       9.909  -0.683  -0.140  0.00  0.00    -0.266 OA
ATOM     29  N   UNL     1       7.718  -1.106  -0.114  0.00  0.00    -0.231 N 
ATOM     30  N   UNL     1       6.499  -0.719  -0.093  0.00  0.00    -0.163 NA
ATOM     31  C   UNL     1       7.988  -2.546  -0.133  0.00  0.00    +0.176 C 
ENDBRANCH  17  20
ENDBRANCH   5  16
BRANCH   1  32
ATOM     32  C   UNL     1       1.496  -2.064  -0.039  0.00  0.00    +0.342 C 
ATOM     33  O   UNL     1       1.558  -2.657  -1.099  0.00  0.00    -0.245 OA
BRANCH  32  34
ATOM     34  O   UNL     1       1.595  -2.746   1.121  0.00  0.00    -0.461 OA
BRANCH  34  36
ATOM     35  C   UNL     1       1.863  -4.779   2.434  0.00  0.00    +0.048 C 
ATOM     36  C   UNL     1       1.772  -4.184   1.027  0.00  0.00    +0.229 C 
ENDBRANCH  34  36
ENDBRANCH  32  34
ENDBRANCH   1  32
TORSDOF 5
