REMARK  Name = ZINC10043149
REMARK  8 active torsions:
REMARK  status: ('A' for Active; 'I' for Inactive)
REMARK    1  A    between atoms: C_1  and  C_2
REMARK    2  A    between atoms: C_4  and  C_24
REMARK    3  A    between atoms: C_5  and  N_9
REMARK    4  A    between atoms: C_10  and  C_12
REMARK    5  A    between atoms: C_12  and  N_13
REMARK    6  A    between atoms: C_16  and  N_19
REMARK    7  A    between atoms: N_19  and  S_20
REMARK    8  A    between atoms: S_20  and  C_23
REMARK                            x       y       z     vdW  Elec       q    Type
REMARK                         _______ _______ _______ _____ _____    ______ ____
ROOT
ATOM      1  C   UNL     1       0.598  -6.347   1.021  0.00  0.00    +0.019 C 
ENDROOT
BRANCH   1   2
ATOM      2  N   UNL     1       1.062  -6.840   2.325  0.00  0.00    +0.385 N 
ATOM      3  C   UNL     1       0.043  -6.559   3.344  0.00  0.00    -0.077 C 
ATOM      4  C   UNL     1       0.556  -6.997   4.717  0.00  0.00    +0.002 C 
ATOM      5  C   UNL     1       0.853  -8.499   4.690  0.00  0.00    +0.073 C 
ATOM      6  C   UNL     1       1.861  -8.790   3.575  0.00  0.00    +0.002 C 
ATOM      7  C   UNL     1       1.300  -8.286   2.243  0.00  0.00    -0.077 C 
ATOM      8  H   UNL     1       1.921  -6.372   2.573  0.00  0.00    -0.081 HD
BRANCH   5   9
ATOM      9  N   UNL     1       1.416  -8.911   5.979  0.00  0.00    -0.192 NA
ATOM     10  H   UNL     1       1.998  -8.308   6.468  0.00  0.00    +0.148 HD
BRANCH   9  11
ATOM     11  S   UNL     1       1.058 -10.403   6.600  0.00  0.00    +0.027 S 
ATOM     12  O   UNL     1       1.741 -10.451   7.845  0.00  0.00    -0.158 OA
ATOM     13  O   UNL     1      -0.359 -10.488   6.547  0.00  0.00    -0.158 OA
ATOM     14  C   UNL     1       1.798 -11.582   5.436  0.00  0.00    +0.214 C 
ENDBRANCH   9  11
ENDBRANCH   5   9
ENDBRANCH   1   2
BRANCH   1  16
ATOM     15  N   UNL     1       0.057  -4.171  -0.023  0.00  0.00    -0.286 N 
ATOM     16  C   UNL     1       0.471  -4.846   1.067  0.00  0.00    +0.201 C 
ATOM     17  O   UNL     1       0.741  -4.246   2.086  0.00  0.00    -0.278 OA
ATOM     18  H   UNL     1      -0.228  -4.655  -0.814  0.00  0.00    +0.155 HD
BRANCH  15  23
ATOM     19  C   UNL     1      -0.016   1.503   0.014  0.00  0.00    +0.044 C 
ATOM     20  C   UNL     1       0.004  -0.004   0.004  0.00  0.00    -0.049 A 
ATOM     21  C   UNL     1      -1.136  -0.711   0.340  0.00  0.00    +0.008 A 
ATOM     22  C   UNL     1      -1.121  -2.092   0.332  0.00  0.00    -0.028 A 
ATOM     23  C   UNL     1       0.039  -2.771  -0.015  0.00  0.00    +0.055 A 
ATOM     24  C   UNL     1       1.183  -2.058  -0.353  0.00  0.00    +0.063 A 
ATOM     25  C   UNL     1       1.160  -0.676  -0.348  0.00  0.00    +0.025 A 
ATOM     26 CL   UNL     1       2.636  -2.902  -0.788  0.00  0.00    -0.082 Cl
ATOM     27  C   UNL     1      -2.364  -2.862   0.701  0.00  0.00    +0.046 C 
ENDBRANCH  15  23
ENDBRANCH   1  16
TORSDOF 5
