REMARK  Name = ZINC12383173
REMARK  6 active torsions:
REMARK  status: ('A' for Active; 'I' for Inactive)
REMARK    1  A    between atoms: C_1  and  C_2
REMARK    2  A    between atoms: C_2  and  C_4
REMARK    3  A    between atoms: C_2  and  N_69
REMARK    4  A    between atoms: C_13  and  C_16
REMARK    5  A    between atoms: C_23  and  N_69
REMARK    6  A    between atoms: C_26  and  C_29
REMARK                            x       y       z     vdW  Elec       q    Type
REMARK                         _______ _______ _______ _____ _____    ______ ____
ROOT
ATOM      1  C   UNL     1       3.571   3.608   1.237  0.00  0.00    -0.013 C 
ATOM      2  C   UNL     1       3.592   2.078   1.228  0.00  0.00    -0.068 C 
ENDROOT
BRANCH   2   3
ATOM      3  C   UNL     1       2.157   1.548   1.239  0.00  0.00    -0.041 C 
ATOM      4  C   UNL     1       1.441   2.042   2.498  0.00  0.00    +0.009 C 
ATOM      5  C   UNL     1       0.005   1.512   2.509  0.00  0.00    -0.009 C 
ATOM      6  C   UNL     1      -0.735   2.019   1.269  0.00  0.00    +0.007 C 
ATOM      7  C   UNL     1      -0.019   1.526   0.010  0.00  0.00    -0.009 C 
ATOM      8  C   UNL     1       1.417   2.055  -0.000  0.00  0.00    +0.009 C 
ATOM      9  C   UNL     1       0.002  -0.004   0.002  0.00  0.00    +0.015 C 
ATOM     10  C   UNL     1       0.742  -0.511   1.242  0.00  0.00    -0.003 C 
ATOM     11  C   UNL     1       0.026  -0.018   2.500  0.00  0.00    +0.015 C 
ATOM     12  C   UNL     1       2.178   0.019   1.231  0.00  0.00    +0.017 C 
BRANCH  10  13
ATOM     13  C   UNL     1       0.762  -2.018   1.233  0.00  0.00    -0.041 A 
ATOM     14  C   UNL     1       0.188  -2.722   2.275  0.00  0.00    +0.005 A 
ATOM     15  C   UNL     1       0.202  -4.104   2.265  0.00  0.00    +0.020 A 
ATOM     16  C   UNL     1       0.800  -4.783   1.218  0.00  0.00    +0.041 A 
ATOM     17  C   UNL     1       1.380  -4.077   0.179  0.00  0.00    +0.020 A 
ATOM     18  C   UNL     1       1.361  -2.695   0.187  0.00  0.00    +0.005 A 
ATOM     19 CL   UNL     1       0.823  -6.518   1.208  0.00  0.00    -0.084 Cl
ENDBRANCH  10  13
ENDBRANCH   2   3
BRANCH   2  20
ATOM     20  N   UNL     1       4.298   1.589   2.428  0.00  0.00    +0.383 N 
ATOM     21  H   UNL     1       3.967   0.643   2.653  0.00  0.00    -0.085 HD
ATOM     22  H   UNL     1       4.102   2.217   3.216  0.00  0.00    -0.085 HD
BRANCH  20  23
ATOM     23  C   UNL     1       5.752   1.550   2.186  0.00  0.00    -0.071 C 
ATOM     24  C   UNL     1       6.122   0.230   1.506  0.00  0.00    -0.015 C 
ATOM     25  C   UNL     1       7.632   0.186   1.263  0.00  0.00    +0.006 C 
ATOM     26  C   UNL     1       8.367   0.294   2.601  0.00  0.00    +0.019 C 
ATOM     27  C   UNL     1       7.997   1.614   3.281  0.00  0.00    +0.006 C 
ATOM     28  C   UNL     1       6.487   1.658   3.523  0.00  0.00    -0.015 C 
BRANCH  26  29
ATOM     29  C   UNL     1       9.854   0.251   2.362  0.00  0.00    -0.044 A 
ATOM     30  C   UNL     1      10.454   1.210   1.568  0.00  0.00    +0.004 A 
ATOM     31  C   UNL     1      11.819   1.173   1.352  0.00  0.00    +0.000 A 
ATOM     32  C   UNL     1      12.582   0.172   1.924  0.00  0.00    +0.000 A 
ATOM     33  C   UNL     1      11.981  -0.790   2.714  0.00  0.00    +0.000 A 
ATOM     34  C   UNL     1      10.617  -0.750   2.933  0.00  0.00    +0.004 A 
ENDBRANCH  26  29
ENDBRANCH  20  23
ENDBRANCH   2  20
TORSDOF 5
