REMARK  Name = ZINC66514601
REMARK  7 active torsions:
REMARK  status: ('A' for Active; 'I' for Inactive)
REMARK    1  A    between atoms: C_1  and  C_2
REMARK    2  A    between atoms: C_2  and  C_3
REMARK    3  A    between atoms: C_3  and  N_4
REMARK    4  A    between atoms: C_10  and  N_13
REMARK    5  A    between atoms: C_14  and  C_16
REMARK    6  A    between atoms: C_16  and  N_17
REMARK    7  A    between atoms: C_25  and  C_29
REMARK                            x       y       z     vdW  Elec       q    Type
REMARK                         _______ _______ _______ _____ _____    ______ ____
ROOT
ATOM      1  N   UNL     1       2.317  -4.794  -4.319  0.00  0.00    -0.284 N 
ATOM      2  C   UNL     1       2.851  -5.770  -5.079  0.00  0.00    +0.235 C 
ATOM      3  O   UNL     1       3.429  -6.699  -4.555  0.00  0.00    -0.274 OA
ATOM      4  H   UNL     1       1.786  -4.094  -4.731  0.00  0.00    +0.155 HD
ENDROOT
BRANCH   1  11
ATOM      5  N   UNL     1      -0.380  -3.338  -1.090  0.00  0.00    +0.385 N 
ATOM      6  C   UNL     1       0.698  -3.397  -0.077  0.00  0.00    -0.042 C 
ATOM      7  C   UNL     1       1.832  -4.154  -0.730  0.00  0.00    -0.061 A 
ATOM      8  C   UNL     1       2.943  -4.783  -0.200  0.00  0.00    +0.002 A 
ATOM      9  C   UNL     1       3.846  -5.416  -1.034  0.00  0.00    +0.002 A 
ATOM     10  C   UNL     1       3.642  -5.422  -2.400  0.00  0.00    +0.023 A 
ATOM     11  C   UNL     1       2.527  -4.790  -2.936  0.00  0.00    +0.035 A 
ATOM     12  C   UNL     1       1.621  -4.156  -2.096  0.00  0.00    -0.041 A 
ATOM     13  C   UNL     1       0.343  -3.401  -2.381  0.00  0.00    -0.040 C 
ATOM     14  H   UNL     1      -1.002  -4.127  -0.994  0.00  0.00    -0.081 HD
BRANCH   5  15
ATOM     15  C   UNL     1      -1.126  -2.078  -0.978  0.00  0.00    -0.078 C 
BRANCH  15  17
ATOM     16  C   UNL     1      -2.738  -0.779   0.421  0.00  0.00    +0.002 C 
ATOM     17  C   UNL     1      -1.961  -2.092   0.304  0.00  0.00    -0.022 C 
ENDBRANCH  15  17
ENDBRANCH   5  15
ENDBRANCH   1  11
BRANCH   2  18
ATOM     18  C   UNL     1       2.731  -5.707  -6.580  0.00  0.00    +0.209 C 
BRANCH  18  19
ATOM     19  N   UNL     1       3.388  -6.875  -7.172  0.00  0.00    -0.256 N 
ATOM     20  C   UNL     1       4.747  -6.831  -7.511  0.00  0.00    +0.079 A 
ATOM     21  C   UNL     1       5.568  -5.831  -7.018  0.00  0.00    +0.027 A 
ATOM     22  C   UNL     1       6.906  -5.805  -7.366  0.00  0.00    +0.002 A 
ATOM     23  C   UNL     1       7.426  -6.774  -8.204  0.00  0.00    +0.004 A 
ATOM     24  C   UNL     1       6.612  -7.777  -8.700  0.00  0.00    +0.047 A 
ATOM     25  C   UNL     1       5.272  -7.809  -8.355  0.00  0.00    +0.143 A 
ATOM     26  O   UNL     1       4.457  -8.789  -8.830  0.00  0.00    -0.478 OA
ATOM     27  C   UNL     1       3.396  -9.216  -7.972  0.00  0.00    +0.256 C 
ATOM     28  C   UNL     1       2.695  -8.014  -7.394  0.00  0.00    +0.261 C 
ATOM     29  O   UNL     1       1.511  -8.066  -7.132  0.00  0.00    -0.271 OA
ATOM     30  C   UNL     1       3.971 -10.060  -6.833  0.00  0.00    +0.062 C 
ENDBRANCH  18  19
ENDBRANCH   2  18
TORSDOF 5
