REMARK  Name = ZINC35926622
REMARK  5 active torsions:
REMARK  status: ('A' for Active; 'I' for Inactive)
REMARK    1  A    between atoms: C_3  and  C_6
REMARK    2  A    between atoms: C_21  and  C_23
REMARK    3  A    between atoms: C_23  and  N_24
REMARK    4  A    between atoms: N_27  and  C_30
REMARK    5  A    between atoms: C_30  and  C_31
REMARK                            x       y       z     vdW  Elec       q    Type
REMARK                         _______ _______ _______ _____ _____    ______ ____
ROOT
ATOM      1  C   UNL     1       3.725   1.670  -0.025  0.00  0.00    +0.253 C 
ATOM      2  O   UNL     1       2.561   1.323   0.060  0.00  0.00    -0.269 OA
ATOM      3  N   UNL     1       4.697   0.744  -0.141  0.00  0.00    -0.296 N 
ATOM      4  C   UNL     1       6.084   1.210  -0.141  0.00  0.00    +0.109 C 
ATOM      5  C   UNL     1       6.633   1.048   1.263  0.00  0.00    +0.038 C 
ATOM      6  C   UNL     1       7.195  -0.363   1.456  0.00  0.00    +0.109 C 
ATOM      7  N   UNL     1       6.345  -1.397   0.846  0.00  0.00    -0.300 N 
ATOM      8  C   UNL     1       4.896  -1.401   0.950  0.00  0.00    +0.127 C 
ATOM      9  C   UNL     1       4.306  -0.618  -0.249  0.00  0.00    +0.127 C 
ATOM     10  C   UNL     1       6.950  -2.405   0.144  0.00  0.00    +0.198 A 
ATOM     11  N   UNL     1       6.184  -3.370  -0.434  0.00  0.00    -0.295 N 
ATOM     12  H   UNL     1       5.219  -3.341  -0.348  0.00  0.00    +0.172 HD
ATOM     13  C   UNL     1       6.774  -4.367  -1.128  0.00  0.00    +0.253 A 
ATOM     14  O   UNL     1       6.103  -5.240  -1.653  0.00  0.00    -0.268 OA
ATOM     15  C   UNL     1       8.176  -4.380  -1.234  0.00  0.00    +0.091 A 
ATOM     16  C   UNL     1       8.892  -3.385  -0.633  0.00  0.00    +0.034 A 
ATOM     17  N   UNL     1       8.264  -2.421   0.036  0.00  0.00    -0.223 NA
ENDROOT
BRANCH   1  20
ATOM     18  C   UNL     1       3.877   5.419  -0.174  0.00  0.00    +0.008 A 
ATOM     19  C   UNL     1       3.268   4.191  -0.283  0.00  0.00    +0.021 A 
ATOM     20  C   UNL     1       4.068   3.095  -0.000  0.00  0.00    +0.074 A 
ATOM     21  S   UNL     1       5.623   3.870   0.401  0.00  0.00    -0.092 S 
ATOM     22  C   UNL     1       5.181   5.477   0.193  0.00  0.00    +0.046 A 
ENDBRANCH   1  20
BRANCH  16  23
ATOM     23  C   UNL     1      10.396  -3.376  -0.732  0.00  0.00    -0.022 C 
BRANCH  23  24
ATOM     24  N   UNL     1      10.829  -2.197  -1.493  0.00  0.00    +0.385 N 
ATOM     25  C   UNL     1      10.479  -0.979  -0.750  0.00  0.00    -0.063 C 
ATOM     26  C   UNL     1      10.913   0.250  -1.551  0.00  0.00    +0.066 C 
ATOM     27  N   UNL     1      12.364   0.195  -1.780  0.00  0.00    -0.302 NA
ATOM     28  C   UNL     1      12.732  -1.031  -2.501  0.00  0.00    +0.066 C 
ATOM     29  C   UNL     1      12.283  -2.250  -1.692  0.00  0.00    -0.063 C 
ATOM     30  H   UNL     1      10.367  -2.187  -2.390  0.00  0.00    -0.081 HD
BRANCH  27  31
ATOM     31  C   UNL     1      12.829   1.389  -2.498  0.00  0.00    +0.119 C 
BRANCH  31  32
ATOM     32  C   UNL     1      14.336   1.419  -2.499  0.00  0.00    -0.033 A 
ATOM     33  C   UNL     1      15.015   2.049  -1.473  0.00  0.00    +0.006 A 
ATOM     34  C   UNL     1      16.397   2.077  -1.473  0.00  0.00    +0.020 A 
ATOM     35  C   UNL     1      17.101   1.474  -2.501  0.00  0.00    +0.041 A 
ATOM     36  C   UNL     1      16.420   0.844  -3.528  0.00  0.00    +0.020 A 
ATOM     37  C   UNL     1      15.039   0.812  -3.523  0.00  0.00    +0.006 A 
ATOM     38 CL   UNL     1      18.836   1.509  -2.502  0.00  0.00    -0.084 Cl
ENDBRANCH  31  32
ENDBRANCH  27  31
ENDBRANCH  23  24
ENDBRANCH  16  23
TORSDOF 5
