REMARK  Name = ZINC09265936
REMARK  4 active torsions:
REMARK  status: ('A' for Active; 'I' for Inactive)
REMARK    1  A    between atoms: C_1  and  C_2
REMARK    2  A    between atoms: C_9  and  S_14
REMARK    3  A    between atoms: S_14  and  N_17
REMARK    4  A    between atoms: C_20  and  C_23
REMARK                            x       y       z     vdW  Elec       q    Type
REMARK                         _______ _______ _______ _____ _____    ______ ____
ROOT
ATOM      1  N   UNL     1       5.450   5.304   0.360  0.00  0.00    -0.177 NA
ATOM      2  C   UNL     1       5.454   6.761   0.549  0.00  0.00    +0.110 C 
ATOM      3  C   UNL     1       6.900   7.246   0.643  0.00  0.00    +0.030 C 
ATOM      4  C   UNL     1       7.627   6.467   1.741  0.00  0.00    +0.078 C 
ATOM      5  C   UNL     1       7.638   4.977   1.391  0.00  0.00    +0.030 C 
ATOM      6  C   UNL     1       6.196   4.466   1.309  0.00  0.00    +0.110 C 
ENDROOT
BRANCH   4   7
ATOM      7  C   UNL     1       9.045   6.965   1.855  0.00  0.00    +0.219 C 
ATOM      8  O   UNL     1       9.942   6.377   1.289  0.00  0.00    -0.275 OA
ATOM      9  N   UNL     1       9.316   8.065   2.586  0.00  0.00    -0.297 N 
ATOM     10  C   UNL     1       8.263   8.753   3.352  0.00  0.00    +0.113 C 
ATOM     11  C   UNL     1       8.621   8.638   4.839  0.00  0.00    +0.054 C 
ATOM     12  C   UNL     1      10.064   9.001   5.072  0.00  0.00    -0.041 A 
ATOM     13  C   UNL     1      10.440   9.353   6.362  0.00  0.00    +0.004 A 
ATOM     14  C   UNL     1      11.750   9.674   6.649  0.00  0.00    +0.000 A 
ATOM     15  C   UNL     1      12.700   9.646   5.645  0.00  0.00    +0.000 A 
ATOM     16  C   UNL     1      12.329   9.302   4.362  0.00  0.00    +0.005 A 
ATOM     17  C   UNL     1      11.009   8.983   4.071  0.00  0.00    -0.027 A 
ATOM     18  C   UNL     1      10.669   8.627   2.646  0.00  0.00    +0.143 C 
ENDBRANCH   4   7
BRANCH   1  19
ATOM     19  S   UNL     1       4.625   4.620  -0.902  0.00  0.00    +0.061 S 
ATOM     20  O   UNL     1       5.240   3.364  -1.156  0.00  0.00    -0.153 OA
ATOM     21  O   UNL     1       4.505   5.624  -1.901  0.00  0.00    -0.153 OA
BRANCH  19  29
ATOM     22  C   UNL     1      -1.497   1.250  -0.578  0.00  0.00    +0.029 C 
ATOM     23  C   UNL     1      -1.308   1.581   0.903  0.00  0.00    +0.134 C 
ATOM     24  C   UNL     1      -0.030   0.961   1.399  0.00  0.00    +0.230 C 
ATOM     25  O   UNL     1      -0.090  -0.128   1.930  0.00  0.00    -0.274 OA
ATOM     26  N   UNL     1       1.163   1.538   1.283  0.00  0.00    -0.284 N 
ATOM     27  C   UNL     1       1.428   2.773   0.699  0.00  0.00    +0.049 A 
ATOM     28  C   UNL     1       2.712   3.055   0.246  0.00  0.00    +0.053 A 
ATOM     29  C   UNL     1       2.993   4.276  -0.334  0.00  0.00    +0.107 A 
ATOM     30  C   UNL     1       2.003   5.231  -0.471  0.00  0.00    +0.030 A 
ATOM     31  C   UNL     1       0.721   4.965  -0.027  0.00  0.00    +0.018 A 
ATOM     32  C   UNL     1       0.433   3.741   0.554  0.00  0.00    +0.030 A 
ATOM     33  S   UNL     1      -1.200   3.386   1.121  0.00  0.00    -0.111 S 
ATOM     34  H   UNL     1       1.922   1.050   1.640  0.00  0.00    +0.155 HD
ENDBRANCH  19  29
ENDBRANCH   1  19
TORSDOF 3
