REMARK  Name = ZINC05373311
REMARK  6 active torsions:
REMARK  status: ('A' for Active; 'I' for Inactive)
REMARK    1  A    between atoms: C_1  and  C_2
REMARK    2  A    between atoms: C_2  and  C_3
REMARK    3  A    between atoms: C_3  and  C_4
REMARK    4  A    between atoms: C_4  and  C_5
REMARK    5  A    between atoms: C_8  and  N_11
REMARK    6  A    between atoms: N_24  and  C_27
REMARK                            x       y       z     vdW  Elec       q    Type
REMARK                         _______ _______ _______ _____ _____    ______ ____
ROOT
ATOM      1  N   UNL     1       2.044  -0.323   5.838  0.00  0.00    -0.296 N 
ATOM      2  C   UNL     1       1.623  -1.462   6.465  0.00  0.00    +0.156 C 
ATOM      3  N   UNL     1       0.634  -2.272   6.118  0.00  0.00    -0.154 NA
ATOM      4  C   UNL     1       0.327  -3.347   6.807  0.00  0.00    +0.277 C 
ATOM      5  O   UNL     1      -0.582  -4.088   6.476  0.00  0.00    -0.267 OA
ATOM      6  C   UNL     1       1.154  -3.605   8.023  0.00  0.00    +0.092 C 
ATOM      7  C   UNL     1       1.079  -4.629   8.942  0.00  0.00    +0.065 C 
ATOM      8  C   UNL     1       0.236  -5.840   8.871  0.00  0.00    +0.010 A 
ATOM      9  C   UNL     1      -0.672  -6.316   7.929  0.00  0.00    +0.010 A 
ATOM     10  C   UNL     1      -1.316  -7.518   8.145  0.00  0.00    +0.001 A 
ATOM     11  C   UNL     1      -1.054  -8.249   9.291  0.00  0.00    +0.002 A 
ATOM     12  C   UNL     1      -0.151  -7.790  10.229  0.00  0.00    +0.024 A 
ATOM     13  C   UNL     1       0.508  -6.582  10.030  0.00  0.00    +0.044 A 
ATOM     14  N   UNL     1       1.445  -5.904  10.802  0.00  0.00    -0.270 N 
ATOM     15  C   UNL     1       1.819  -4.752  10.218  0.00  0.00    +0.252 C 
ATOM     16  O   UNL     1       2.623  -3.953  10.659  0.00  0.00    -0.270 OA
ATOM     17  C   UNL     1       1.960  -6.383  12.087  0.00  0.00    +0.138 C 
ATOM     18  S   UNL     1       2.270  -2.209   7.952  0.00  0.00    -0.051 S 
ATOM     19  H   UNL     1       2.837   0.139   6.151  0.00  0.00    +0.154 HD
ENDROOT
BRANCH   1  23
ATOM     20  C   UNL     1      -0.080   1.164   2.579  0.00  0.00    -0.047 A 
ATOM     21  C   UNL     1      -0.723   0.386   3.524  0.00  0.00    +0.005 A 
ATOM     22  C   UNL     1      -0.020  -0.113   4.603  0.00  0.00    +0.023 A 
ATOM     23  C   UNL     1       1.331   0.176   4.744  0.00  0.00    +0.033 A 
ATOM     24  C   UNL     1       1.972   0.964   3.796  0.00  0.00    +0.023 A 
ATOM     25  C   UNL     1       1.265   1.455   2.717  0.00  0.00    +0.005 A 
BRANCH  20  26
ATOM     26  C   UNL     1      -0.848   1.702   1.399  0.00  0.00    +0.035 C 
BRANCH  26  27
ATOM     27  C   UNL     1      -0.775   0.702   0.244  0.00  0.00    +0.004 C 
BRANCH  27  29
ATOM     28  C   UNL     1      -1.482   0.248  -2.109  0.00  0.00    +0.004 C 
ATOM     29  C   UNL     1      -1.555   1.248  -0.954  0.00  0.00    -0.003 C 
ENDBRANCH  27  29
ENDBRANCH  26  27
ENDBRANCH  20  26
ENDBRANCH   1  23
TORSDOF 4
