REMARK  Name = ZINC08814624
REMARK  6 active torsions:
REMARK  status: ('A' for Active; 'I' for Inactive)
REMARK    1  A    between atoms: C_4  and  N_27
REMARK    2  A    between atoms: C_5  and  C_7
REMARK    3  A    between atoms: N_9  and  N_10
REMARK    4  A    between atoms: C_11  and  C_12
REMARK    5  A    between atoms: C_15  and  C_17
REMARK    6  A    between atoms: C_21  and  C_23
REMARK                            x       y       z     vdW  Elec       q    Type
REMARK                         _______ _______ _______ _____ _____    ______ ____
ROOT
ATOM      1  N   UNL     1       2.979   8.414  -1.166  0.00  0.00    -0.184 NA
ATOM      2  C   UNL     1       1.759   8.569  -1.594  0.00  0.00    +0.176 C 
ENDROOT
BRANCH   2   3
ATOM      3  C   UNL     1       0.917   7.398  -1.846  0.00  0.00    +0.148 A 
ATOM      4  C   UNL     1      -0.384   7.419  -2.297  0.00  0.00    +0.051 A 
ATOM      5  C   UNL     1      -0.800   6.085  -2.396  0.00  0.00    +0.050 A 
ATOM      6  C   UNL     1       0.251   5.308  -2.006  0.00  0.00    +0.136 A 
ATOM      7  O   UNL     1       1.279   6.110  -1.672  0.00  0.00    -0.454 OA
BRANCH   6   8
ATOM      8  C   UNL     1       0.258   3.833  -1.953  0.00  0.00    +0.018 A 
ATOM      9  C   UNL     1      -0.881   3.112  -2.322  0.00  0.00    +0.011 A 
ATOM     10  C   UNL     1      -0.866   1.734  -2.274  0.00  0.00    +0.001 A 
ATOM     11  C   UNL     1       0.270   1.065  -1.853  0.00  0.00    +0.012 A 
ATOM     12  C   UNL     1       1.401   1.772  -1.486  0.00  0.00    +0.055 A 
ATOM     13  C   UNL     1       1.402   3.151  -1.534  0.00  0.00    +0.024 A 
BRANCH  12  14
ATOM     14  C   UNL     1       2.635   1.035  -1.034  0.00  0.00    +0.417 C 
ATOM     15  F   UNL     1       2.394  -0.343  -1.069  0.00  0.00    -0.166 F 
ATOM     16  F   UNL     1       3.701   1.343  -1.886  0.00  0.00    -0.166 F 
ATOM     17  F   UNL     1       2.955   1.419   0.272  0.00  0.00    -0.166 F 
ENDBRANCH  12  14
ENDBRANCH   6   8
ENDBRANCH   2   3
BRANCH   1  20
ATOM     18  C   UNL     1       5.047   9.374  -0.482  0.00  0.00    +0.265 C 
ATOM     19  O   UNL     1       5.488   8.256  -0.291  0.00  0.00    -0.268 OA
ATOM     20  N   UNL     1       3.784   9.534  -0.924  0.00  0.00    -0.203 N 
ATOM     21  H   UNL     1       3.433  10.426  -1.076  0.00  0.00    +0.178 HD
BRANCH  18  26
ATOM     22  C   UNL     1       6.153  12.937  -0.080  0.00  0.00    +0.001 A 
ATOM     23  C   UNL     1       7.489  12.773   0.249  0.00  0.00    +0.002 A 
ATOM     24  C   UNL     1       8.037  11.510   0.342  0.00  0.00    +0.023 A 
ATOM     25  C   UNL     1       7.248  10.391   0.106  0.00  0.00    +0.037 A 
ATOM     26  C   UNL     1       5.894  10.553  -0.228  0.00  0.00    +0.059 A 
ATOM     27  C   UNL     1       5.356  11.839  -0.323  0.00  0.00    +0.015 A 
BRANCH  25  28
ATOM     28  N   UNL     1       7.797   9.118   0.198  0.00  0.00    -0.357 N 
ATOM     29  H   UNL     1       7.388   8.378  -0.276  0.00  0.00    +0.142 HD
ATOM     30  H   UNL     1       8.590   8.970   0.737  0.00  0.00    +0.142 HD
ENDBRANCH  25  28
ENDBRANCH  18  26
ENDBRANCH   1  20
TORSDOF 6
