REMARK  Name = ZINC57789434
REMARK  8 active torsions:
REMARK  status: ('A' for Active; 'I' for Inactive)
REMARK    1  A    between atoms: C_1  and  C_2
REMARK    2  A    between atoms: C_2  and  C_4
REMARK    3  A    between atoms: C_2  and  N_6
REMARK    4  A    between atoms: C_4  and  N_5
REMARK    5  A    between atoms: C_9  and  C_24
REMARK    6  A    between atoms: C_14  and  C_18
REMARK    7  A    between atoms: C_24  and  C_25
REMARK    8  A    between atoms: C_24  and  C_26
REMARK                            x       y       z     vdW  Elec       q    Type
REMARK                         _______ _______ _______ _____ _____    ______ ____
ROOT
ATOM      1  N   UNL     1       0.688  -0.476  -1.203  0.00  0.00    -0.264 N 
ATOM      2  C   UNL     1       1.837  -1.273  -1.102  0.00  0.00    +0.079 A 
ATOM      3  C   UNL     1       2.530  -1.368   0.093  0.00  0.00    +0.031 A 
ATOM      4  C   UNL     1       3.661  -2.160   0.172  0.00  0.00    -0.043 A 
ATOM      5  C   UNL     1       4.101  -2.856  -0.939  0.00  0.00    +0.007 A 
ATOM      6  C   UNL     1       3.414  -2.765  -2.136  0.00  0.00    +0.048 A 
ATOM      7  C   UNL     1       2.281  -1.974  -2.222  0.00  0.00    +0.143 A 
ATOM      8  O   UNL     1       1.595  -1.871  -3.392  0.00  0.00    -0.473 OA
ATOM      9  C   UNL     1       0.963  -0.616  -3.657  0.00  0.00    +0.289 C 
ATOM     10  C   UNL     1       0.219  -0.156  -2.429  0.00  0.00    +0.265 C 
ATOM     11  O   UNL     1      -0.794   0.502  -2.541  0.00  0.00    -0.271 OA
ENDROOT
BRANCH   9  12
ATOM     12  C   UNL     1       2.009   0.405  -4.027  0.00  0.00    +0.002 A 
ATOM     13  C   UNL     1       3.255   0.364  -3.431  0.00  0.00    +0.008 A 
ATOM     14  C   UNL     1       4.214   1.300  -3.770  0.00  0.00    +0.000 A 
ATOM     15  C   UNL     1       3.927   2.276  -4.706  0.00  0.00    +0.000 A 
ATOM     16  C   UNL     1       2.680   2.316  -5.302  0.00  0.00    +0.000 A 
ATOM     17  C   UNL     1       1.723   1.378  -4.966  0.00  0.00    +0.008 A 
ENDBRANCH   9  12
BRANCH   4  18
ATOM     18  C   UNL     1       4.416  -2.264   1.472  0.00  0.00    +0.013 C 
ATOM     19  C   UNL     1       4.438  -3.722   1.934  0.00  0.00    +0.012 C 
ATOM     20  C   UNL     1       5.851  -1.771   1.269  0.00  0.00    +0.012 C 
ENDBRANCH   4  18
BRANCH   1  22
ATOM     21  C   UNL     1      -0.019   1.526   0.010  0.00  0.00    +0.026 C 
ATOM     22  C   UNL     1       0.002  -0.004   0.002  0.00  0.00    +0.061 C 
BRANCH  22  23
ATOM     23  C   UNL     1      -1.433  -0.534   0.013  0.00  0.00    -0.064 C 
BRANCH  23  24
ATOM     24  N   UNL     1      -1.416  -1.997  -0.116  0.00  0.00    +0.379 N 
ATOM     25  H   UNL     1      -0.970  -2.253  -0.984  0.00  0.00    -0.090 HD
ATOM     26  H   UNL     1      -0.905  -2.397   0.656  0.00  0.00    -0.090 HD
ATOM     27  H   UNL     1      -2.363  -2.346  -0.109  0.00  0.00    -0.090 HD
ENDBRANCH  23  24
ENDBRANCH  22  23
ENDBRANCH   1  22
TORSDOF 5
