REMARK  Name = ZINC00671033
REMARK  11 active torsions:
REMARK  status: ('A' for Active; 'I' for Inactive)
REMARK    1  A    between atoms: C_1  and  C_2
REMARK    2  A    between atoms: C_2  and  O_3
REMARK    3  A    between atoms: O_3  and  C_4
REMARK    4  A    between atoms: C_4  and  C_6
REMARK    5  A    between atoms: C_6  and  O_7
REMARK    6  A    between atoms: O_7  and  C_8
REMARK    7  A    between atoms: C_11  and  C_16
REMARK    8  A    between atoms: C_13  and  O_14
REMARK    9  A    between atoms: O_14  and  C_15
REMARK   10  A    between atoms: N_23  and  C_26
REMARK   11  A    between atoms: C_29  and  C_32
REMARK                            x       y       z     vdW  Elec       q    Type
REMARK                         _______ _______ _______ _____ _____    ______ ____
ROOT
ATOM      1  C   UNL     1      -1.339  -0.684  -0.043  0.00  0.00    +0.027 C 
ATOM      2  C   UNL     1      -0.303  -0.290   0.784  0.00  0.00    +0.100 C 
ATOM      3  C   UNL     1       1.078  -0.765   0.570  0.00  0.00    +0.257 C 
ATOM      4  O   UNL     1       1.345  -1.520  -0.345  0.00  0.00    -0.270 OA
ATOM      5  N   UNL     1       2.037  -0.338   1.418  0.00  0.00    -0.235 N 
ATOM      6  C   UNL     1       1.757   0.494   2.430  0.00  0.00    +0.320 C 
ATOM      7  O   UNL     1       2.667   0.841   3.158  0.00  0.00    -0.251 OA
ATOM      8  N   UNL     1       0.528   0.965   2.684  0.00  0.00    -0.190 N 
ATOM      9  C   UNL     1      -0.530   0.624   1.920  0.00  0.00    +0.263 C 
ATOM     10  O   UNL     1      -1.640   1.062   2.158  0.00  0.00    -0.269 OA
ATOM     11  H   UNL     1       2.950  -0.640   1.291  0.00  0.00    +0.159 HD
ENDROOT
BRANCH   1  15
ATOM     12  C   UNL     1      -5.131   1.181   0.268  0.00  0.00    +0.164 A 
ATOM     13  C   UNL     1      -5.040  -0.206   0.264  0.00  0.00    +0.065 A 
ATOM     14  C   UNL     1      -3.810  -0.818   0.163  0.00  0.00    +0.029 A 
ATOM     15  C   UNL     1      -2.646  -0.039   0.064  0.00  0.00    -0.007 A 
ATOM     16  C   UNL     1      -2.742   1.361   0.074  0.00  0.00    +0.058 A 
ATOM     17  C   UNL     1      -3.979   1.963   0.170  0.00  0.00    +0.162 A 
ATOM     18 BR   UNL     1      -3.690  -2.705   0.156  0.00  0.00    -0.050 Br
BRANCH  17  19
ATOM     19  O   UNL     1      -4.076   3.319   0.175  0.00  0.00    -0.491 OA
ATOM     20  C   UNL     1      -2.871   4.057  -0.039  0.00  0.00    +0.277 C 
ENDBRANCH  17  19
BRANCH  12  21
ATOM     21  O   UNL     1      -6.346   1.777   0.367  0.00  0.00    -0.477 OA
BRANCH  21  22
ATOM     22  C   UNL     1      -7.485   0.919   0.463  0.00  0.00    +0.349 C 
BRANCH  22  23
ATOM     23  C   UNL     1      -8.736   1.753   0.564  0.00  0.00    +0.345 C 
ATOM     24  O   UNL     1      -8.660   2.959   0.555  0.00  0.00    -0.247 OA
BRANCH  23  25
ATOM     25  O   UNL     1      -9.934   1.156   0.665  0.00  0.00    -0.463 OA
BRANCH  25  27
ATOM     26  C   UNL     1     -12.361   1.168   0.866  0.00  0.00    +0.048 C 
ATOM     27  C   UNL     1     -11.096   2.022   0.759  0.00  0.00    +0.229 C 
ENDBRANCH  25  27
ENDBRANCH  23  25
ENDBRANCH  22  23
ENDBRANCH  21  22
ENDBRANCH  12  21
ENDBRANCH   1  15
BRANCH   8  28
ATOM     28  C   UNL     1       0.337   1.832   3.769  0.00  0.00    +0.046 A 
ATOM     29  C   UNL     1      -0.438   1.434   4.850  0.00  0.00    +0.024 A 
ATOM     30  C   UNL     1      -0.619   2.289   5.919  0.00  0.00    +0.005 A 
ATOM     31  C   UNL     1      -0.039   3.544   5.910  0.00  0.00    -0.050 A 
ATOM     32  C   UNL     1       0.729   3.945   4.832  0.00  0.00    +0.005 A 
ATOM     33  C   UNL     1       0.918   3.093   3.762  0.00  0.00    +0.024 A 
ATOM     34  C   UNL     1      -0.244   4.476   7.076  0.00  0.00    +0.044 C 
ENDBRANCH   8  28
TORSDOF 8
