REMARK  Name = ZINC33305336
REMARK  3 active torsions:
REMARK  status: ('A' for Active; 'I' for Inactive)
REMARK    1  A    between atoms: C_10  and  N_11
REMARK    2  A    between atoms: N_11  and  C_12
REMARK    3  A    between atoms: C_19  and  C_21
REMARK                            x       y       z     vdW  Elec       q    Type
REMARK                         _______ _______ _______ _____ _____    ______ ____
ROOT
ATOM      1  N   UNL     1      -5.473  -0.108   0.616  0.00  0.00    -0.239 N 
ATOM      2  C   UNL     1      -4.868  -0.527  -0.513  0.00  0.00    +0.290 C 
ATOM      3  O   UNL     1      -3.671  -0.360  -0.659  0.00  0.00    -0.266 OA
ENDROOT
BRANCH   1  13
ATOM      4  C   UNL     1      -5.508   6.625   0.577  0.00  0.00    +0.001 A 
ATOM      5  C   UNL     1      -4.525   6.913   1.513  0.00  0.00    +0.001 A 
ATOM      6  C   UNL     1      -3.890   5.880   2.172  0.00  0.00    +0.016 A 
ATOM      7  C   UNL     1      -4.238   4.573   1.894  0.00  0.00    +0.024 A 
ATOM      8  C   UNL     1      -5.235   4.250   0.954  0.00  0.00    +0.037 A 
ATOM      9  C   UNL     1      -5.862   5.332   0.293  0.00  0.00    +0.013 A 
ATOM     10  C   UNL     1      -5.481   2.819   0.771  0.00  0.00    +0.202 C 
ATOM     11  O   UNL     1      -6.318   2.415  -0.019  0.00  0.00    -0.286 OA
ATOM     12  C   UNL     1      -4.711   1.923   1.553  0.00  0.00    +0.074 C 
ATOM     13  C   UNL     1      -4.755   0.566   1.570  0.00  0.00    +0.102 C 
ATOM     14  S   UNL     1      -3.671   3.008   2.509  0.00  0.00    -0.084 S 
ENDBRANCH   1  13
BRANCH   1  15
ATOM     15  C   UNL     1      -6.836  -0.362   0.815  0.00  0.00    +0.041 A 
ATOM     16  C   UNL     1      -7.680   0.659   1.231  0.00  0.00    +0.025 A 
ATOM     17  C   UNL     1      -9.025   0.406   1.421  0.00  0.00    +0.017 A 
ATOM     18  C   UNL     1      -9.528  -0.865   1.208  0.00  0.00    +0.018 A 
ATOM     19  C   UNL     1      -8.688  -1.885   0.798  0.00  0.00    +0.017 A 
ATOM     20  C   UNL     1      -7.344  -1.637   0.602  0.00  0.00    +0.025 A 
ATOM     21 BR   UNL     1     -11.368  -1.208   1.477  0.00  0.00    -0.050 Br
ENDBRANCH   1  15
BRANCH   2  22
ATOM     22  C   UNL     1      -5.650  -1.182  -1.564  0.00  0.00    +0.190 A 
ATOM     23  C   UNL     1      -5.333  -2.356  -2.188  0.00  0.00    +0.054 A 
ATOM     24  C   UNL     1      -6.354  -2.608  -3.117  0.00  0.00    +0.042 A 
ATOM     25  C   UNL     1      -7.235  -1.587  -3.027  0.00  0.00    +0.196 A 
ATOM     26  O   UNL     1      -6.807  -0.730  -2.091  0.00  0.00    -0.458 OA
ENDBRANCH   2  22
TORSDOF 3
