REMARK  Name = ZINC41124246
REMARK  7 active torsions:
REMARK  status: ('A' for Active; 'I' for Inactive)
REMARK    1  A    between atoms: C_1  and  C_2
REMARK    2  A    between atoms: C_2  and  C_3
REMARK    3  A    between atoms: C_2  and  C_4
REMARK    4  A    between atoms: C_2  and  C_5
REMARK    5  A    between atoms: C_5  and  C_7
REMARK    6  A    between atoms: C_5  and  N_22
REMARK    7  A    between atoms: C_9  and  C_12
REMARK                            x       y       z     vdW  Elec       q    Type
REMARK                         _______ _______ _______ _____ _____    ______ ____
ROOT
ATOM      1  C   UNL     1       2.132   0.024  -1.268  0.00  0.00    +0.158 A 
ATOM      2  N   UNL     1       3.229  -0.696  -1.005  0.00  0.00    -0.197 NA
ATOM      3  C   UNL     1       4.290   0.056  -1.100  0.00  0.00    +0.234 A 
ATOM      4  O   UNL     1       3.900   1.293  -1.429  0.00  0.00    -0.338 OA
ATOM      5  N   UNL     1       2.486   1.248  -1.539  0.00  0.00    -0.063 NA
ENDROOT
BRANCH   3   6
ATOM      6  C   UNL     1       5.712  -0.393  -0.877  0.00  0.00    +0.050 C 
ATOM      7  C   UNL     1       5.862  -0.921   0.551  0.00  0.00    +0.020 C 
ATOM      8  C   UNL     1       7.305  -1.375   0.778  0.00  0.00    -0.009 C 
ATOM      9  C   UNL     1       8.252  -0.191   0.570  0.00  0.00    +0.007 C 
ATOM     10  C   UNL     1       8.102   0.337  -0.858  0.00  0.00    -0.009 C 
ATOM     11  C   UNL     1       6.658   0.791  -1.085  0.00  0.00    +0.020 C 
ATOM     12  C   UNL     1       8.448  -0.774  -1.851  0.00  0.00    +0.007 C 
ATOM     13  C   UNL     1       7.502  -1.958  -1.643  0.00  0.00    -0.009 C 
ATOM     14  C   UNL     1       7.652  -2.486  -0.215  0.00  0.00    +0.007 C 
ATOM     15  C   UNL     1       6.059  -1.503  -1.870  0.00  0.00    +0.020 C 
ENDBRANCH   3   6
BRANCH   1  16
ATOM     16  C   UNL     1       0.718  -0.497  -1.257  0.00  0.00    +0.003 C 
BRANCH  16  18
ATOM     17  C   UNL     1      -0.019   1.526   0.010  0.00  0.00    +0.009 C 
ATOM     18  C   UNL     1       0.002  -0.004   0.002  0.00  0.00    -0.044 C 
ATOM     19  C   UNL     1       0.742  -0.511   1.242  0.00  0.00    +0.009 C 
ATOM     20  C   UNL     1      -1.433  -0.534   0.013  0.00  0.00    +0.009 C 
ENDBRANCH  16  18
BRANCH  16  21
ATOM     21  N   UNL     1       0.008  -0.011  -2.447  0.00  0.00    +0.385 N 
ATOM     22  H   UNL     1      -0.006   0.998  -2.441  0.00  0.00    -0.089 HD
ATOM     23  H   UNL     1       0.480  -0.336  -3.277  0.00  0.00    -0.089 HD
ATOM     24  H   UNL     1      -0.939  -0.360  -2.440  0.00  0.00    -0.089 HD
ENDBRANCH  16  21
ENDBRANCH   1  16
TORSDOF 4
