REMARK  Name = ZINC59382595
REMARK  7 active torsions:
REMARK  status: ('A' for Active; 'I' for Inactive)
REMARK    1  A    between atoms: C_1  and  C_2
REMARK    2  A    between atoms: C_2  and  C_3
REMARK    3  A    between atoms: C_2  and  C_4
REMARK    4  A    between atoms: C_2  and  O_5
REMARK    5  A    between atoms: O_5  and  C_6
REMARK    6  A    between atoms: N_8  and  N_9
REMARK    7  A    between atoms: C_10  and  C_11
REMARK                            x       y       z     vdW  Elec       q    Type
REMARK                         _______ _______ _______ _____ _____    ______ ____
ROOT
ATOM      1  N   UNL     1       2.024  -1.296  -3.385  0.00  0.00    -0.185 NA
ATOM      2  C   UNL     1       2.687  -1.682  -4.433  0.00  0.00    +0.140 C 
ENDROOT
BRANCH   2   3
ATOM      3  C   UNL     1       2.039  -2.534  -5.442  0.00  0.00    +0.023 A 
ATOM      4  C   UNL     1       2.775  -2.982  -6.626  0.00  0.00    -0.001 A 
ATOM      5  C   UNL     1       4.113  -2.707  -6.987  0.00  0.00    +0.010 A 
ATOM      6  C   UNL     1       4.643  -3.214  -8.144  0.00  0.00    +0.001 A 
ATOM      7  C   UNL     1       3.888  -4.009  -8.996  0.00  0.00    +0.001 A 
ATOM      8  C   UNL     1       2.577  -4.296  -8.672  0.00  0.00    +0.016 A 
ATOM      9  C   UNL     1       2.034  -3.791  -7.509  0.00  0.00    +0.021 A 
ATOM     10  S   UNL     1       0.439  -3.914  -6.742  0.00  0.00    -0.081 S 
ATOM     11  C   UNL     1       0.746  -2.926  -5.291  0.00  0.00    +0.065 A 
ATOM     12 BR   UNL     1      -0.444  -2.519  -3.878  0.00  0.00    -0.042 Br
ENDBRANCH   2   3
BRANCH   1  15
ATOM     13  C   UNL     1       1.953  -0.085  -1.337  0.00  0.00    +0.420 C 
ATOM     14  O   UNL     1       2.489   0.619  -0.503  0.00  0.00    -0.225 OA
ATOM     15  N   UNL     1       2.641  -0.485  -2.424  0.00  0.00    -0.172 N 
ATOM     16  H   UNL     1       3.564  -0.211  -2.542  0.00  0.00    +0.181 HD
BRANCH  13  17
ATOM     17  O   UNL     1       0.671  -0.465  -1.174  0.00  0.00    -0.444 OA
BRANCH  17  19
ATOM     18  C   UNL     1      -0.019   1.526   0.010  0.00  0.00    +0.055 C 
ATOM     19  C   UNL     1       0.002  -0.004   0.002  0.00  0.00    +0.107 C 
ATOM     20  C   UNL     1       0.742  -0.511   1.242  0.00  0.00    +0.055 C 
ATOM     21  C   UNL     1      -1.433  -0.534   0.013  0.00  0.00    +0.055 C 
ENDBRANCH  17  19
ENDBRANCH  13  17
ENDBRANCH   1  15
TORSDOF 4
