REMARK  Name = ZINC36595473
REMARK  15 active torsions:
REMARK  status: ('A' for Active; 'I' for Inactive)
REMARK    1  A    between atoms: C_1  and  C_2
REMARK    2  A    between atoms: C_5  and  C_7
REMARK    3  A    between atoms: C_7  and  N_8
REMARK    4  A    between atoms: N_8  and  C_9
REMARK    5  A    between atoms: C_9  and  C_11
REMARK    6  A    between atoms: C_9  and  C_20
REMARK    7  A    between atoms: C_14  and  O_19
REMARK    8  A    between atoms: C_15  and  O_17
REMARK    9  A    between atoms: O_17  and  C_18
REMARK   10  A    between atoms: N_22  and  C_23
REMARK   11  A    between atoms: C_23  and  C_24
REMARK   12  A    between atoms: C_23  and  C_25
REMARK   13  A    between atoms: C_23  and  C_26
REMARK   14  A    between atoms: C_27  and  C_29
REMARK   15  A    between atoms: C_34  and  O_35
REMARK                            x       y       z     vdW  Elec       q    Type
REMARK                         _______ _______ _______ _____ _____    ______ ____
ROOT
ATOM      1  C   UNL     1       2.975  -4.716  -1.683  0.00  0.00    +0.193 C 
ENDROOT
BRANCH   1   2
ATOM      2  C   UNL     1       4.242  -5.517  -1.526  0.00  0.00    -0.015 A 
ATOM      3  C   UNL     1       4.212  -6.891  -1.676  0.00  0.00    +0.010 A 
ATOM      4  C   UNL     1       5.372  -7.631  -1.534  0.00  0.00    +0.049 A 
ATOM      5  C   UNL     1       6.567  -6.995  -1.240  0.00  0.00    +0.158 A 
ATOM      6  C   UNL     1       6.597  -5.612  -1.089  0.00  0.00    +0.162 A 
ATOM      7  C   UNL     1       5.433  -4.876  -1.238  0.00  0.00    +0.055 A 
BRANCH   6   8
ATOM      8  O   UNL     1       7.768  -4.983  -0.800  0.00  0.00    -0.491 OA
ATOM      9  C   UNL     1       7.720  -3.564  -0.637  0.00  0.00    +0.277 C 
ENDBRANCH   6   8
BRANCH   5  10
ATOM     10  O   UNL     1       7.708  -7.721  -1.099  0.00  0.00    -0.503 OA
ATOM     11  H   UNL     1       8.203  -7.840  -1.921  0.00  0.00    +0.292 HD
ENDBRANCH   5  10
ENDBRANCH   1   2
BRANCH   1  12
ATOM     12  C   UNL     1       2.882  -4.195  -3.094  0.00  0.00    +0.239 C 
ATOM     13  O   UNL     1       1.804  -4.132  -3.646  0.00  0.00    -0.273 OA
ATOM     14  N   UNL     1       3.995  -3.800  -3.741  0.00  0.00    -0.309 N 
ATOM     15  H   UNL     1       4.857  -3.850  -3.299  0.00  0.00    +0.149 HD
BRANCH  14  16
ATOM     16  C   UNL     1       3.904  -3.293  -5.113  0.00  0.00    +0.026 C 
ATOM     17  C   UNL     1       3.002  -2.058  -5.142  0.00  0.00    +0.031 C 
ATOM     18  C   UNL     1       5.301  -2.916  -5.611  0.00  0.00    +0.031 C 
ATOM     19  C   UNL     1       3.315  -4.377  -6.018  0.00  0.00    +0.031 C 
ENDBRANCH  14  16
ENDBRANCH   1  12
BRANCH   1  20
ATOM     20  N   UNL     1       1.819  -5.570  -1.399  0.00  0.00    -0.275 N 
ATOM     21  C   UNL     1       1.671  -6.120  -0.178  0.00  0.00    +0.251 C 
ATOM     22  O   UNL     1       0.593  -6.572   0.158  0.00  0.00    -0.270 OA
BRANCH  21  23
ATOM     23  C   UNL     1       2.815  -6.172   0.752  0.00  0.00    +0.078 A 
ATOM     24  C   UNL     1       3.845  -5.233   0.652  0.00  0.00    +0.017 A 
ATOM     25  C   UNL     1       4.911  -5.288   1.524  0.00  0.00    +0.001 A 
ATOM     26  C   UNL     1       4.967  -6.270   2.499  0.00  0.00    +0.004 A 
ATOM     27  C   UNL     1       3.956  -7.204   2.609  0.00  0.00    +0.046 A 
ATOM     28  C   UNL     1       2.873  -7.161   1.743  0.00  0.00    +0.129 A 
BRANCH  28  29
ATOM     29  O   UNL     1       1.876  -8.075   1.853  0.00  0.00    -0.506 OA
ATOM     30  H   UNL     1       2.016  -8.874   1.327  0.00  0.00    +0.292 HD
ENDBRANCH  28  29
ENDBRANCH  21  23
BRANCH  20  31
ATOM     31  C   UNL     1       0.825  -5.826  -2.444  0.00  0.00    +0.183 C 
BRANCH  31  36
ATOM     32  C   UNL     1       3.083  -7.005  -6.798  0.00  0.00    +0.086 C 
ATOM     33  C   UNL     1       2.436  -7.146  -5.444  0.00  0.00    +0.102 A 
ATOM     34  C   UNL     1       2.240  -8.300  -4.782  0.00  0.00    +0.045 A 
ATOM     35  C   UNL     1       1.607  -7.969  -3.561  0.00  0.00    +0.046 A 
ATOM     36  C   UNL     1       1.455  -6.633  -3.550  0.00  0.00    +0.122 A 
ATOM     37  O   UNL     1       1.964  -6.139  -4.691  0.00  0.00    -0.463 OA
ENDBRANCH  31  36
ENDBRANCH  20  31
ENDBRANCH   1  20
TORSDOF 10
