REMARK  Name = ZINC45844885
REMARK  10 active torsions:
REMARK  status: ('A' for Active; 'I' for Inactive)
REMARK    1  A    between atoms: C_1  and  N_2
REMARK    2  A    between atoms: N_2  and  C_3
REMARK    3  A    between atoms: N_2  and  C_4
REMARK    4  A    between atoms: C_4  and  C_5
REMARK    5  A    between atoms: C_5  and  N_6
REMARK    6  A    between atoms: N_6  and  C_7
REMARK    7  A    between atoms: C_7  and  C_8
REMARK    8  A    between atoms: C_8  and  C_9
REMARK    9  A    between atoms: N_17  and  C_18
REMARK   10  A    between atoms: C_18  and  C_19
REMARK                            x       y       z     vdW  Elec       q    Type
REMARK                         _______ _______ _______ _____ _____    ______ ____
ROOT
ATOM      1  N   UNL     1       2.845  -0.526  -2.362  0.00  0.00    -0.287 N 
ATOM      2  C   UNL     1       3.429  -1.740  -2.373  0.00  0.00    +0.302 C 
ATOM      3  O   UNL     1       3.999  -2.132  -3.373  0.00  0.00    -0.253 OA
ATOM      4  N   UNL     1       3.384  -2.519  -1.274  0.00  0.00    -0.295 N 
ATOM      5  H   UNL     1       2.930  -2.207  -0.476  0.00  0.00    +0.151 HD
ENDROOT
BRANCH   1   6
ATOM      6  C   UNL     1       2.159  -0.053  -1.157  0.00  0.00    +0.091 C 
BRANCH   6   7
ATOM      7  C   UNL     1       0.690  -0.478  -1.207  0.00  0.00    -0.060 C 
BRANCH   7   9
ATOM      8  C   UNL     1      -0.018   1.465   0.010  0.00  0.00    -0.097 C 
ATOM      9  N   UNL     1       0.002  -0.004   0.002  0.00  0.00    +0.377 N 
ATOM     10  C   UNL     1      -1.376  -0.512   0.012  0.00  0.00    -0.097 C 
ATOM     11  H   UNL     1       0.490  -0.338   0.820  0.00  0.00    -0.083 HD
ENDBRANCH   7   9
ENDBRANCH   6   7
ENDBRANCH   1   6
BRANCH   1  12
ATOM     12  C   UNL     1       2.894   0.321  -3.557  0.00  0.00    +0.114 C 
BRANCH  12  13
ATOM     13  C   UNL     1       4.142   1.205  -3.503  0.00  0.00    +0.054 C 
BRANCH  13  14
ATOM     14  C   UNL     1       4.193   2.077  -4.731  0.00  0.00    -0.046 A 
ATOM     15  C   UNL     1       4.835   1.629  -5.871  0.00  0.00    +0.004 A 
ATOM     16  C   UNL     1       4.882   2.428  -6.997  0.00  0.00    +0.000 A 
ATOM     17  C   UNL     1       4.287   3.676  -6.985  0.00  0.00    +0.000 A 
ATOM     18  C   UNL     1       3.644   4.123  -5.846  0.00  0.00    +0.000 A 
ATOM     19  C   UNL     1       3.593   3.322  -4.721  0.00  0.00    +0.004 A 
ENDBRANCH  13  14
ENDBRANCH  12  13
ENDBRANCH   1  12
BRANCH   4  20
ATOM     20  C   UNL     1       4.020  -3.839  -1.285  0.00  0.00    +0.142 C 
BRANCH  20  21
ATOM     21  C   UNL     1       3.826  -4.502   0.054  0.00  0.00    -0.014 A 
ATOM     22  C   UNL     1       4.755  -4.316   1.069  0.00  0.00    +0.010 A 
ATOM     23  C   UNL     1       4.540  -4.942   2.284  0.00  0.00    +0.042 A 
ATOM     24  C   UNL     1       3.406  -5.731   2.446  0.00  0.00    +0.099 A 
ATOM     25  N   UNL     1       2.543  -5.884   1.454  0.00  0.00    -0.349 N 
ATOM     26  C   UNL     1       2.720  -5.294   0.287  0.00  0.00    +0.089 A 
ATOM     27  N   UNL     1       3.178  -6.367   3.662  0.00  0.00    -0.317 N 
ATOM     28  C   UNL     1       4.042  -6.284   4.848  0.00  0.00    +0.106 C 
ATOM     29  C   UNL     1       3.406  -7.167   5.941  0.00  0.00    +0.020 C 
ATOM     30  C   UNL     1       2.521  -8.146   5.126  0.00  0.00    +0.020 C 
ATOM     31  C   UNL     1       2.025  -7.230   3.976  0.00  0.00    +0.106 C 
ATOM     32  H   UNL     1       1.760  -6.439   1.589  0.00  0.00    +0.167 HD
ENDBRANCH  20  21
ENDBRANCH   4  20
TORSDOF 8
