REMARK  Name = ZINC12650811
REMARK  7 active torsions:
REMARK  status: ('A' for Active; 'I' for Inactive)
REMARK    1  A    between atoms: C_1  and  C_2
REMARK    2  A    between atoms: C_2  and  N_3
REMARK    3  A    between atoms: N_3  and  C_4
REMARK    4  A    between atoms: C_4  and  C_5
REMARK    5  A    between atoms: C_6  and  C_8
REMARK    6  A    between atoms: C_9  and  C_23
REMARK    7  A    between atoms: C_14  and  C_16
REMARK                            x       y       z     vdW  Elec       q    Type
REMARK                         _______ _______ _______ _____ _____    ______ ____
ROOT
ATOM      1  C   UNL     1       1.315  -2.803   1.483  0.00  0.00    +0.056 C 
ATOM      2  C   UNL     1       2.385  -3.284   2.150  0.00  0.00    +0.017 C 
ATOM      3  N   UNL     1       3.516  -3.664   1.486  0.00  0.00    -0.300 N 
ATOM      4  C   UNL     1       3.657  -3.594   0.157  0.00  0.00    +0.135 C 
ATOM      5  S   UNL     1       5.131  -4.104  -0.548  0.00  0.00    -0.019 S 
ATOM      6  N   UNL     1       2.676  -3.135  -0.645  0.00  0.00    -0.315 N 
ATOM      7  C   UNL     1       1.412  -2.698  -0.026  0.00  0.00    +0.140 C 
ATOM      8  C   UNL     1       2.330  -3.405   3.651  0.00  0.00    +0.061 C 
ATOM      9  H   UNL     1       4.260  -4.004   2.008  0.00  0.00    +0.154 HD
ATOM     10  H   UNL     1       2.798  -3.092  -1.606  0.00  0.00    +0.149 HD
ENDROOT
BRANCH   7  11
ATOM     11  C   UNL     1       1.180  -1.259  -0.408  0.00  0.00    -0.010 A 
ATOM     12  C   UNL     1       2.251  -0.390  -0.512  0.00  0.00    +0.007 A 
ATOM     13  C   UNL     1       2.038   0.929  -0.863  0.00  0.00    +0.000 A 
ATOM     14  C   UNL     1       0.755   1.381  -1.110  0.00  0.00    +0.001 A 
ATOM     15  C   UNL     1      -0.316   0.513  -1.007  0.00  0.00    +0.015 A 
ATOM     16  C   UNL     1      -0.103  -0.808  -0.655  0.00  0.00    +0.019 A 
ATOM     17  I   UNL     1      -1.725  -2.124  -0.499  0.00  0.00    -0.043 I 
ENDBRANCH   7  11
BRANCH   1  19
ATOM     18  N   UNL     1       0.152  -1.304   2.944  0.00  0.00    -0.298 N 
ATOM     19  C   UNL     1       0.141  -2.408   2.170  0.00  0.00    +0.246 C 
ATOM     20  O   UNL     1      -0.879  -3.064   2.061  0.00  0.00    -0.270 OA
BRANCH  18  22
ATOM     21  C   UNL     1      -1.116  -1.421   5.032  0.00  0.00    +0.024 C 
ATOM     22  C   UNL     1      -1.077  -0.863   3.608  0.00  0.00    +0.104 C 
ENDBRANCH  18  22
BRANCH  18  23
ATOM     23  C   UNL     1       1.393  -0.546   3.121  0.00  0.00    +0.104 C 
ATOM     24  C   UNL     1       1.410   0.639   2.154  0.00  0.00    +0.024 C 
ENDBRANCH  18  23
ENDBRANCH   1  19
TORSDOF 4
