REMARK  Name = ZINC63384786
REMARK  4 active torsions:
REMARK  status: ('A' for Active; 'I' for Inactive)
REMARK    1  A    between atoms: C_1  and  C_2
REMARK    2  A    between atoms: C_2  and  N_3
REMARK    3  A    between atoms: C_12  and  C_30
REMARK    4  A    between atoms: N_26  and  C_29
REMARK                            x       y       z     vdW  Elec       q    Type
REMARK                         _______ _______ _______ _____ _____    ______ ____
ROOT
ATOM      1  N   UNL     1      -1.376  -0.511  -0.032  0.00  0.00    -0.299 N 
ATOM      2  C   UNL     1      -1.601  -1.839   0.007  0.00  0.00    +0.303 C 
ATOM      3  O   UNL     1      -0.667  -2.616  -0.057  0.00  0.00    -0.253 OA
ATOM      4  N   UNL     1      -2.860  -2.307   0.119  0.00  0.00    -0.265 N 
ATOM      5  C   UNL     1      -3.984  -1.365   0.128  0.00  0.00    +0.115 C 
ATOM      6  C   UNL     1      -4.969  -1.728  -0.999  0.00  0.00    +0.052 C 
ATOM      7  C   UNL     1      -5.172  -3.221  -0.933  0.00  0.00    -0.034 C 
ATOM      8  C   UNL     1      -6.274  -3.957  -0.868  0.00  0.00    -0.000 A 
ATOM      9  C   UNL     1      -7.699  -3.597  -0.946  0.00  0.00    +0.013 A 
ATOM     10  C   UNL     1      -8.585  -4.620  -0.817  0.00  0.00    -0.050 A 
ATOM     11  C   UNL     1      -8.200  -5.950  -0.622  0.00  0.00    +0.005 A 
ATOM     12  C   UNL     1      -6.913  -6.373  -0.546  0.00  0.00    +0.026 A 
ATOM     13  C   UNL     1      -5.890  -5.389  -0.675  0.00  0.00    +0.043 A 
ATOM     14  N   UNL     1      -4.596  -5.514  -0.663  0.00  0.00    -0.375 N 
ATOM     15  C   UNL     1      -4.002  -4.200  -0.908  0.00  0.00    +0.144 C 
ATOM     16  C   UNL     1      -3.088  -3.751   0.223  0.00  0.00    +0.166 C 
ATOM     17  C   UNL     1      -3.658  -4.115   1.556  0.00  0.00    +0.009 A 
ATOM     18  C   UNL     1      -4.830  -3.750   2.182  0.00  0.00    +0.008 A 
ATOM     19  C   UNL     1      -5.061  -4.280   3.447  0.00  0.00    +0.000 A 
ATOM     20  C   UNL     1      -4.157  -5.133   4.046  0.00  0.00    +0.002 A 
ATOM     21  C   UNL     1      -2.976  -5.504   3.423  0.00  0.00    +0.024 A 
ATOM     22  C   UNL     1      -2.731  -4.979   2.153  0.00  0.00    +0.042 A 
ATOM     23  N   UNL     1      -1.648  -5.177   1.315  0.00  0.00    -0.272 N 
ATOM     24  C   UNL     1      -1.772  -4.493   0.158  0.00  0.00    +0.250 C 
ATOM     25  O   UNL     1      -0.979  -4.477  -0.760  0.00  0.00    -0.272 OA
ATOM     26  C   UNL     1      -0.502  -6.029   1.644  0.00  0.00    +0.138 C 
ATOM     27  C   UNL     1     -10.057  -4.305  -0.888  0.00  0.00    +0.044 C 
ATOM     28  H   UNL     1      -2.124   0.107  -0.055  0.00  0.00    +0.150 HD
ATOM     29  H   UNL     1      -4.107  -6.339  -0.516  0.00  0.00    +0.160 HD
ENDROOT
BRANCH   1  31
ATOM     30  C   UNL     1      -0.029   1.529  -0.089  0.00  0.00    +0.024 C 
ATOM     31  C   UNL     1      -0.003   0.000  -0.042  0.00  0.00    +0.102 C 
ENDBRANCH   1  31
TORSDOF 1
