REMARK  Name = ZINC39945363
REMARK  8 active torsions:
REMARK  status: ('A' for Active; 'I' for Inactive)
REMARK    1  A    between atoms: C_1  and  C_2
REMARK    2  A    between atoms: C_4  and  C_12
REMARK    3  A    between atoms: N_13  and  N_14
REMARK    4  A    between atoms: C_15  and  C_25
REMARK    5  A    between atoms: N_20  and  C_21
REMARK    6  A    between atoms: C_21  and  C_22
REMARK    7  A    between atoms: C_22  and  C_24
REMARK    8  A    between atoms: C_29  and  C_31
REMARK                            x       y       z     vdW  Elec       q    Type
REMARK                         _______ _______ _______ _____ _____    ______ ____
ROOT
ATOM      1  N   UNL     1       0.823  -0.494  -4.863  0.00  0.00    -0.195 N 
ATOM      2  C   UNL     1       1.624  -1.050  -5.936  0.00  0.00    +0.140 C 
ATOM      3  C   UNL     1       1.186  -0.556  -7.335  0.00  0.00    +0.106 C 
ATOM      4  S   UNL     1       0.108   0.858  -6.854  0.00  0.00    -0.089 S 
ATOM      5  C   UNL     1      -0.225   0.351  -5.171  0.00  0.00    +0.151 C 
ATOM      6  N   UNL     1      -1.224   0.700  -4.410  0.00  0.00    -0.363 N 
ATOM      7  H   UNL     1      -1.248   0.420  -3.482  0.00  0.00    +0.162 HD
ENDROOT
BRANCH   2   8
ATOM      8  C   UNL     1       1.512  -2.552  -5.898  0.00  0.00    -0.024 A 
ATOM      9  C   UNL     1       0.294  -3.148  -5.631  0.00  0.00    +0.005 A 
ATOM     10  C   UNL     1       0.191  -4.526  -5.596  0.00  0.00    +0.001 A 
ATOM     11  C   UNL     1       1.307  -5.308  -5.828  0.00  0.00    +0.012 A 
ATOM     12  C   UNL     1       2.525  -4.713  -6.096  0.00  0.00    +0.055 A 
ATOM     13  C   UNL     1       2.627  -3.334  -6.135  0.00  0.00    +0.018 A 
BRANCH  12  14
ATOM     14  C   UNL     1       3.742  -5.566  -6.348  0.00  0.00    +0.417 C 
ATOM     15  F   UNL     1       3.390  -6.917  -6.259  0.00  0.00    -0.166 F 
ATOM     16  F   UNL     1       4.242  -5.297  -7.626  0.00  0.00    -0.166 F 
ATOM     17  F   UNL     1       4.721  -5.274  -5.393  0.00  0.00    -0.166 F 
ENDBRANCH  12  14
ENDBRANCH   2   8
BRANCH   1  19
ATOM     18  C   UNL     1       2.165  -1.530  -3.237  0.00  0.00    +0.137 C 
ATOM     19  N   UNL     1       1.106  -0.816  -3.529  0.00  0.00    -0.185 NA
BRANCH  18  22
ATOM     20  C   UNL     1       3.571  -4.139  -2.100  0.00  0.00    +0.035 C 
ATOM     21  C   UNL     1       3.543  -2.776  -1.404  0.00  0.00    +0.109 C 
ATOM     22  C   UNL     1       2.384  -1.952  -1.920  0.00  0.00    +0.003 C 
ATOM     23  C   UNL     1       1.578  -1.701  -0.809  0.00  0.00    +0.005 A 
ATOM     24  C   UNL     1       0.368  -0.993  -0.650  0.00  0.00    +0.010 A 
ATOM     25  C   UNL     1      -0.206  -0.910   0.578  0.00  0.00    +0.001 A 
ATOM     26  C   UNL     1       0.372  -1.510   1.699  0.00  0.00    +0.002 A 
ATOM     27  C   UNL     1       1.533  -2.204   1.619  0.00  0.00    +0.026 A 
ATOM     28  C   UNL     1       2.192  -2.336   0.369  0.00  0.00    +0.043 A 
ATOM     29  N   UNL     1       3.312  -2.948   0.033  0.00  0.00    -0.377 N 
ATOM     30  H   UNL     1       3.890  -3.435   0.641  0.00  0.00    +0.160 HD
ENDBRANCH  18  22
ENDBRANCH   1  19
BRANCH   6  31
ATOM     31  C   UNL     1      -2.311   1.517  -4.957  0.00  0.00    +0.144 C 
BRANCH  31  32
ATOM     32  C   UNL     1      -3.332   1.779  -3.880  0.00  0.00    -0.061 C 
ATOM     33  C   UNL     1      -3.275   2.884  -3.178  0.00  0.00    +0.009 C 
ATOM     34  C   UNL     1      -4.419   0.770  -3.611  0.00  0.00    +0.040 C 
ENDBRANCH  31  32
ENDBRANCH   6  31
TORSDOF 6
