REMARK  Name = ZINC19445847
REMARK  8 active torsions:
REMARK  status: ('A' for Active; 'I' for Inactive)
REMARK    1  A    between atoms: C_1  and  C_2
REMARK    2  A    between atoms: C_2  and  C_3
REMARK    3  A    between atoms: C_2  and  C_4
REMARK    4  A    between atoms: C_4  and  C_6
REMARK    5  A    between atoms: C_4  and  N_17
REMARK    6  A    between atoms: C_18  and  C_20
REMARK    7  A    between atoms: C_24  and  C_25
REMARK    8  A    between atoms: C_25  and  N_26
REMARK                            x       y       z     vdW  Elec       q    Type
REMARK                         _______ _______ _______ _____ _____    ______ ____
ROOT
ATOM      1  N   UNL     1      -2.815   4.355   0.049  0.00  0.00    -0.304 N 
ATOM      2  C   UNL     1      -1.471   4.452   0.037  0.00  0.00    +0.248 C 
ATOM      3  O   UNL     1      -0.940   5.546   0.037  0.00  0.00    -0.270 OA
ATOM      4  H   UNL     1      -3.296   3.366   0.049  0.00  0.00    +0.150 HD
ENDROOT
BRANCH   2   5
ATOM      5  C   UNL     1      -0.645   3.231   0.024  0.00  0.00    +0.076 A 
ATOM      6  C   UNL     1      -1.116   1.839   0.017  0.00  0.00    +0.054 A 
ATOM      7  C   UNL     1      -0.013   1.076   0.008  0.00  0.00    +0.196 A 
ATOM      8  O   UNL     1       1.070   1.869   0.002  0.00  0.00    -0.469 OA
ATOM      9  C   UNL     1       0.717   3.158   0.011  0.00  0.00    +0.101 A 
BRANCH   9  10
ATOM     10  C   UNL     1       1.664   4.331   0.009  0.00  0.00    -0.002 C 
BRANCH  10  11
ATOM     11  N   UNL     1       1.984   4.705   1.393  0.00  0.00    +0.384 N 
ATOM     12  C   UNL     1       0.794   5.210   2.090  0.00  0.00    -0.078 C 
ATOM     13  C   UNL     1       1.129   5.452   3.564  0.00  0.00    -0.019 C 
ATOM     14  C   UNL     1       2.271   6.466   3.663  0.00  0.00    -0.004 C 
ATOM     15  C   UNL     1       3.482   5.938   2.888  0.00  0.00    -0.019 C 
ATOM     16  C   UNL     1       3.079   5.682   1.434  0.00  0.00    -0.078 C 
ATOM     17  H   UNL     1       2.322   3.800   1.920  0.00  0.00    -0.081 HD
ENDBRANCH  10  11
ENDBRANCH   9  10
ENDBRANCH   2   5
BRANCH   1  18
ATOM     18  C   UNL     1      -3.636   5.568   0.062  0.00  0.00    +0.106 C 
BRANCH  18  19
ATOM     19  C   UNL     1      -4.990   5.265  -0.528  0.00  0.00    -0.023 A 
ATOM     20  C   UNL     1      -5.617   4.069  -0.233  0.00  0.00    +0.009 A 
ATOM     21  C   UNL     1      -6.861   3.784  -0.769  0.00  0.00    +0.050 A 
ATOM     22  C   UNL     1      -7.475   4.702  -1.603  0.00  0.00    +0.162 A 
ATOM     23  C   UNL     1      -6.845   5.902  -1.901  0.00  0.00    +0.162 A 
ATOM     24  C   UNL     1      -5.603   6.186  -1.358  0.00  0.00    +0.055 A 
ATOM     25  O   UNL     1      -7.458   6.800  -2.725  0.00  0.00    -0.488 OA
ATOM     26  C   UNL     1      -7.586   6.406  -4.093  0.00  0.00    +0.232 C 
ATOM     27  C   UNL     1      -8.823   5.546  -4.293  0.00  0.00    +0.082 C 
ATOM     28  C   UNL     1      -8.734   4.222  -3.551  0.00  0.00    +0.232 C 
ATOM     29  O   UNL     1      -8.701   4.434  -2.138  0.00  0.00    -0.488 OA
ENDBRANCH  18  19
BRANCH  18  31
ATOM     30  C   UNL     1      -4.663   7.322   1.516  0.00  0.00    +0.009 C 
ATOM     31  C   UNL     1      -3.805   6.055   1.502  0.00  0.00    +0.008 C 
ATOM     32  C   UNL     1      -4.490   4.967   2.331  0.00  0.00    +0.009 C 
ENDBRANCH  18  31
ENDBRANCH   1  18
TORSDOF 6
