REMARK  Name = ZINC52550607
REMARK  14 active torsions:
REMARK  status: ('A' for Active; 'I' for Inactive)
REMARK    1  A    between atoms: C_1  and  C_2
REMARK    2  A    between atoms: C_2  and  C_3
REMARK    3  A    between atoms: C_7  and  C_15
REMARK    4  A    between atoms: N_13  and  C_14
REMARK    5  A    between atoms: C_17  and  S_28
REMARK    6  A    between atoms: C_20  and  O_21
REMARK    7  A    between atoms: O_21  and  C_22
REMARK    8  A    between atoms: C_22  and  C_24
REMARK    9  A    between atoms: C_22  and  C_25
REMARK   10  A    between atoms: C_25  and  O_26
REMARK   11  A    between atoms: O_26  and  C_27
REMARK   12  A    between atoms: S_28  and  N_31
REMARK   13  A    between atoms: N_34  and  C_37
REMARK   14  A    between atoms: C_37  and  C_38
REMARK                            x       y       z     vdW  Elec       q    Type
REMARK                         _______ _______ _______ _____ _____    ______ ____
ROOT
ATOM      1  C   UNL     1       1.900  -5.179  -0.297  0.00  0.00    +0.080 A 
ATOM      2  C   UNL     1       2.558  -4.851   0.893  0.00  0.00    +0.046 A 
ATOM      3  C   UNL     1       3.119  -5.874   1.637  0.00  0.00    +0.124 A 
ATOM      4  C   UNL     1       3.014  -7.178   1.189  0.00  0.00    +0.143 A 
ATOM      5  N   UNL     1       2.389  -7.465   0.063  0.00  0.00    -0.219 NA
ATOM      6  C   UNL     1       1.831  -6.526  -0.682  0.00  0.00    +0.226 A 
ENDROOT
BRANCH   1  10
ATOM      7  C   UNL     1       0.762  -0.381  -1.270  0.00  0.00    +0.143 C 
ATOM      8  C   UNL     1       0.853  -1.881  -1.414  0.00  0.00    +0.097 C 
ATOM      9  N   UNL     1       1.374  -2.856  -0.726  0.00  0.00    -0.230 NA
ATOM     10  C   UNL     1       1.284  -4.126  -1.131  0.00  0.00    +0.158 C 
ATOM     11  N   UNL     1       0.668  -4.483  -2.245  0.00  0.00    -0.155 NA
ATOM     12  C   UNL     1       0.091  -3.571  -3.040  0.00  0.00    +0.291 C 
ATOM     13  O   UNL     1      -0.478  -3.898  -4.069  0.00  0.00    -0.266 OA
ATOM     14  C   UNL     1       0.169  -2.155  -2.626  0.00  0.00    +0.168 C 
ATOM     15  N   UNL     1      -0.272  -1.032  -3.149  0.00  0.00    -0.177 NA
ATOM     16  N   UNL     1       0.007   0.026  -2.470  0.00  0.00    -0.249 N 
ATOM     17  C   UNL     1      -0.360   1.399  -2.825  0.00  0.00    +0.152 C 
BRANCH   7  19
ATOM     18  C   UNL     1       0.865  -0.313   1.226  0.00  0.00    +0.006 C 
ATOM     19  C   UNL     1      -0.001  -0.005   0.002  0.00  0.00    +0.027 C 
ENDBRANCH   7  19
ENDBRANCH   1  10
BRANCH   3  20
ATOM     20  S   UNL     1       3.959  -5.517   3.144  0.00  0.00    +0.062 S 
ATOM     21  O   UNL     1       4.863  -6.591   3.369  0.00  0.00    -0.153 OA
ATOM     22  O   UNL     1       4.388  -4.165   3.060  0.00  0.00    -0.153 OA
BRANCH  20  23
ATOM     23  N   UNL     1       2.836  -5.582   4.359  0.00  0.00    -0.180 NA
ATOM     24  C   UNL     1       2.078  -4.385   4.753  0.00  0.00    +0.091 C 
ATOM     25  C   UNL     1       2.174  -4.228   6.274  0.00  0.00    -0.061 C 
ATOM     26  N   UNL     1       1.728  -5.468   6.923  0.00  0.00    +0.381 N 
ATOM     27  C   UNL     1       2.640  -6.567   6.580  0.00  0.00    -0.061 C 
ATOM     28  C   UNL     1       2.563  -6.841   5.070  0.00  0.00    +0.091 C 
ATOM     29  H   UNL     1       0.797  -5.695   6.608  0.00  0.00    -0.082 HD
BRANCH  26  30
ATOM     30  C   UNL     1       1.716  -5.280   8.380  0.00  0.00    -0.082 C 
ATOM     31  C   UNL     1       1.135  -6.526   9.050  0.00  0.00    -0.017 C 
ENDBRANCH  26  30
ENDBRANCH  20  23
ENDBRANCH   3  20
BRANCH   6  32
ATOM     32  O   UNL     1       1.193  -6.867  -1.828  0.00  0.00    -0.471 OA
BRANCH  32  33
ATOM     33  C   UNL     1       1.159  -8.256  -2.163  0.00  0.00    +0.198 C 
ATOM     34  C   UNL     1       2.382  -8.606  -3.013  0.00  0.00    +0.054 C 
BRANCH  33  35
ATOM     35  C   UNL     1      -0.116  -8.558  -2.954  0.00  0.00    +0.203 C 
BRANCH  35  36
ATOM     36  O   UNL     1      -0.075  -7.869  -4.205  0.00  0.00    -0.379 OA
ATOM     37  C   UNL     1      -1.224  -8.085  -5.025  0.00  0.00    +0.194 C 
ENDBRANCH  35  36
ENDBRANCH  33  35
ENDBRANCH  32  33
ENDBRANCH   6  32
TORSDOF 9
