REMARK  Name = ZINC22751862
REMARK  7 active torsions:
REMARK  status: ('A' for Active; 'I' for Inactive)
REMARK    1  A    between atoms: C_4  and  C_8
REMARK    2  A    between atoms: C_8  and  N_9
REMARK    3  A    between atoms: N_12  and  C_15
REMARK    4  A    between atoms: C_15  and  C_16
REMARK    5  A    between atoms: N_18  and  C_19
REMARK    6  A    between atoms: C_19  and  C_20
REMARK    7  A    between atoms: C_20  and  C_21
REMARK                            x       y       z     vdW  Elec       q    Type
REMARK                         _______ _______ _______ _____ _____    ______ ____
ROOT
ATOM      1  N   UNL     1       4.155  -0.954   1.341  0.00  0.00    -0.302 NA
ATOM      2  C   UNL     1       4.474   0.308   2.025  0.00  0.00    +0.066 C 
ATOM      3  C   UNL     1       4.872   0.013   3.473  0.00  0.00    -0.063 C 
ATOM      4  N   UNL     1       6.037  -0.882   3.488  0.00  0.00    +0.387 N 
ATOM      5  C   UNL     1       5.695  -2.146   2.824  0.00  0.00    -0.063 C 
ATOM      6  C   UNL     1       5.304  -1.869   1.370  0.00  0.00    +0.066 C 
ATOM      7  H   UNL     1       6.804  -0.443   3.002  0.00  0.00    -0.081 HD
ENDROOT
BRANCH   1   8
ATOM      8  C   UNL     1       3.713  -0.707  -0.038  0.00  0.00    +0.122 C 
BRANCH   8  12
ATOM      9  C   UNL     1      -0.017   1.378   0.010  0.00  0.00    +0.003 A 
ATOM     10  C   UNL     1       1.171   2.086   0.002  0.00  0.00    +0.020 A 
ATOM     11  C   UNL     1       2.378   1.411  -0.013  0.00  0.00    +0.047 A 
ATOM     12  C   UNL     1       2.398   0.028  -0.021  0.00  0.00    +0.003 A 
ATOM     13  C   UNL     1       1.209  -0.680  -0.013  0.00  0.00    +0.047 A 
ATOM     14  C   UNL     1       0.002  -0.004   0.002  0.00  0.00    +0.020 A 
ATOM     15 CL   UNL     1       1.233  -2.416  -0.023  0.00  0.00    -0.083 Cl
ATOM     16 CL   UNL     1       3.869   2.300  -0.024  0.00  0.00    -0.083 Cl
ENDBRANCH   8  12
ENDBRANCH   1   8
BRANCH   4  17
ATOM     17  C   UNL     1       6.429  -1.150   4.878  0.00  0.00    +0.019 C 
BRANCH  17  18
ATOM     18  C   UNL     1       7.696  -1.966   4.894  0.00  0.00    +0.196 C 
ATOM     19  O   UNL     1       8.220  -2.292   3.850  0.00  0.00    -0.278 OA
ATOM     20  N   UNL     1       8.246  -2.334   6.068  0.00  0.00    -0.317 N 
ATOM     21  H   UNL     1       7.826  -2.073   6.903  0.00  0.00    +0.149 HD
BRANCH  20  22
ATOM     22  C   UNL     1       9.477  -3.127   6.084  0.00  0.00    +0.108 C 
BRANCH  22  23
ATOM     23  C   UNL     1       9.886  -3.407   7.532  0.00  0.00    +0.049 C 
BRANCH  23  24
ATOM     24  C   UNL     1      11.152  -4.223   7.547  0.00  0.00    -0.072 C 
ATOM     25  C   UNL     1      12.278  -3.595   7.669  0.00  0.00    -0.028 C 
ATOM     26  C   UNL     1      13.619  -4.269   7.691  0.00  0.00    +0.027 C 
ATOM     27  C   UNL     1      13.453  -5.763   7.976  0.00  0.00    +0.004 C 
ATOM     28  C   UNL     1      12.380  -6.321   7.033  0.00  0.00    +0.005 C 
ATOM     29  C   UNL     1      11.030  -5.714   7.427  0.00  0.00    +0.030 C 
ENDBRANCH  23  24
ENDBRANCH  22  23
ENDBRANCH  20  22
ENDBRANCH  17  18
ENDBRANCH   4  17
TORSDOF 7
