REMARK  Name = ZINC00853677
REMARK  5 active torsions:
REMARK  status: ('A' for Active; 'I' for Inactive)
REMARK    1  A    between atoms: C_4  and  S_7
REMARK    2  A    between atoms: S_7  and  N_10
REMARK    3  A    between atoms: N_10  and  C_11
REMARK    4  A    between atoms: C_11  and  C_13
REMARK    5  A    between atoms: C_11  and  C_23
REMARK                            x       y       z     vdW  Elec       q    Type
REMARK                         _______ _______ _______ _____ _____    ______ ____
ROOT
ATOM      1  C   UNL     1       4.639   0.091  -2.485  0.00  0.00    +0.159 C 
ENDROOT
BRANCH   1   2
ATOM      2  C   UNL     1       4.153  -0.184  -3.884  0.00  0.00    +0.000 A 
ATOM      3  C   UNL     1       3.890  -1.388  -4.416  0.00  0.00    +0.089 A 
ATOM      4  N   UNL     1       3.468  -1.245  -5.710  0.00  0.00    -0.360 N 
ATOM      5  H   UNL     1       3.220  -1.974  -6.299  0.00  0.00    +0.165 HD
ATOM      6  C   UNL     1       3.448   0.089  -6.051  0.00  0.00    +0.047 A 
ATOM      7  C   UNL     1       3.871   0.813  -4.920  0.00  0.00    +0.005 A 
ATOM      8  C   UNL     1       3.944   2.206  -4.972  0.00  0.00    +0.010 A 
ATOM      9  C   UNL     1       3.602   2.861  -6.122  0.00  0.00    +0.001 A 
ATOM     10  C   UNL     1       3.181   2.152  -7.238  0.00  0.00    +0.002 A 
ATOM     11  C   UNL     1       3.108   0.776  -7.211  0.00  0.00    +0.026 A 
ENDBRANCH   1   2
BRANCH   1  12
ATOM     12  C   UNL     1       6.150   0.336  -2.508  0.00  0.00    +0.211 C 
ATOM     13 CL   UNL     1       6.985  -1.124  -3.159  0.00  0.00    -0.081 Cl
ATOM     14 CL   UNL     1       6.512   1.754  -3.560  0.00  0.00    -0.081 Cl
ATOM     15 CL   UNL     1       6.732   0.665  -0.834  0.00  0.00    -0.081 Cl
ENDBRANCH   1  12
BRANCH   1  16
ATOM     16  N   UNL     1       4.345  -1.062  -1.630  0.00  0.00    -0.178 NA
ATOM     17  H   UNL     1       4.391  -1.960  -1.994  0.00  0.00    +0.149 HD
BRANCH  16  18
ATOM     18  S   UNL     1       3.934  -0.832  -0.042  0.00  0.00    +0.059 S 
ATOM     19  O   UNL     1       4.902   0.054   0.504  0.00  0.00    -0.153 OA
ATOM     20  O   UNL     1       3.686  -2.120   0.504  0.00  0.00    -0.153 OA
BRANCH  18  24
ATOM     21  C   UNL     1      -0.017   1.378   0.010  0.00  0.00    +0.000 A 
ATOM     22  C   UNL     1       1.171   2.086   0.002  0.00  0.00    +0.002 A 
ATOM     23  C   UNL     1       2.377   1.411  -0.014  0.00  0.00    +0.028 A 
ATOM     24  C   UNL     1       2.396   0.029  -0.022  0.00  0.00    +0.105 A 
ATOM     25  C   UNL     1       1.208  -0.679  -0.014  0.00  0.00    +0.028 A 
ATOM     26  C   UNL     1       0.002  -0.004   0.002  0.00  0.00    +0.002 A 
ENDBRANCH  18  24
ENDBRANCH  16  18
ENDBRANCH   1  16
TORSDOF 5
