REMARK  Name = ZINC16035955
REMARK  7 active torsions:
REMARK  status: ('A' for Active; 'I' for Inactive)
REMARK    1  A    between atoms: C_1  and  C_2
REMARK    2  A    between atoms: C_5  and  C_7
REMARK    3  A    between atoms: C_7  and  C_8
REMARK    4  A    between atoms: C_8  and  C_19
REMARK    5  A    between atoms: N_11  and  C_18
REMARK    6  A    between atoms: N_14  and  C_17
REMARK    7  A    between atoms: C_19  and  N_20
REMARK                            x       y       z     vdW  Elec       q    Type
REMARK                         _______ _______ _______ _____ _____    ______ ____
ROOT
ATOM      1  C   UNL     1       1.560  -4.425  -1.496  0.00  0.00    +0.141 C 
ATOM      2  C   UNL     1       0.146  -4.226  -2.008  0.00  0.00    +0.239 C 
ATOM      3  O   UNL     1      -0.805  -4.711  -1.433  0.00  0.00    -0.274 OA
ATOM      4  N   UNL     1      -0.014  -3.489  -3.128  0.00  0.00    -0.228 N 
ATOM      5  C   UNL     1       1.025  -2.948  -3.774  0.00  0.00    +0.317 C 
ATOM      6  O   UNL     1       0.790  -2.299  -4.774  0.00  0.00    -0.252 OA
ATOM      7  N   UNL     1       2.304  -3.068  -3.399  0.00  0.00    -0.228 N 
ATOM      8  C   UNL     1       2.664  -3.768  -2.303  0.00  0.00    +0.239 C 
ATOM      9  O   UNL     1       3.827  -3.869  -1.976  0.00  0.00    -0.274 OA
ATOM     10  C   UNL     1       3.344  -2.421  -4.203  0.00  0.00    +0.143 C 
ATOM     11  C   UNL     1      -1.365  -3.277  -3.652  0.00  0.00    +0.143 C 
ENDROOT
BRANCH   1  12
ATOM     12  C   UNL     1       1.629  -3.883  -0.066  0.00  0.00    +0.069 C 
BRANCH  12  17
ATOM     13  C   UNL     1       1.899   1.773  -0.232  0.00  0.00    +0.051 C 
ATOM     14  C   UNL     1       1.568   0.304  -0.164  0.00  0.00    -0.013 A 
ATOM     15  C   UNL     1       0.357  -0.293  -0.037  0.00  0.00    +0.011 A 
ATOM     16  C   UNL     1       0.291  -1.673   0.003  0.00  0.00    +0.011 A 
ATOM     17  C   UNL     1       1.439  -2.389  -0.086  0.00  0.00    -0.008 A 
ATOM     18  S   UNL     1       2.667  -1.101  -0.238  0.00  0.00    -0.098 S 
ENDBRANCH  12  17
ENDBRANCH   1  12
BRANCH   1  19
ATOM     19  C   UNL     1       1.837  -5.929  -1.446  0.00  0.00    +0.110 C 
BRANCH  19  20
ATOM     20  N   UNL     1       1.909  -6.459  -2.814  0.00  0.00    -0.300 NA
ATOM     21  C   UNL     1       2.690  -7.700  -2.856  0.00  0.00    +0.089 C 
ATOM     22  C   UNL     1       2.816  -8.218  -4.280  0.00  0.00    +0.024 C 
ATOM     23  C   UNL     1       1.435  -8.399  -4.918  0.00  0.00    +0.017 C 
ATOM     24  C   UNL     1       0.716  -7.047  -4.853  0.00  0.00    +0.050 C 
ATOM     25  C   UNL     1       0.563  -6.660  -3.373  0.00  0.00    +0.094 C 
ATOM     26  C   UNL     1       1.571  -5.996  -5.524  0.00  0.00    +0.026 A 
ATOM     27  C   UNL     1       0.935  -4.939  -6.094  0.00  0.00    +0.022 A 
ATOM     28  C   UNL     1       1.668  -3.898  -6.675  0.00  0.00    +0.007 A 
ATOM     29  C   UNL     1       3.030  -3.950  -6.639  0.00  0.00    +0.070 A 
ATOM     30  C   UNL     1       3.655  -5.053  -6.041  0.00  0.00    +0.251 A 
ATOM     31  O   UNL     1       4.872  -5.081  -5.946  0.00  0.00    -0.268 OA
ATOM     32  N   UNL     1       2.921  -6.089  -5.565  0.00  0.00    -0.312 N 
ATOM     33  C   UNL     1       3.644  -7.287  -5.150  0.00  0.00    +0.130 C 
ENDBRANCH  19  20
ENDBRANCH   1  19
TORSDOF 4
