REMARK  Name = ZINC66255574
REMARK  8 active torsions:
REMARK  status: ('A' for Active; 'I' for Inactive)
REMARK    1  A    between atoms: C_1  and  C_2
REMARK    2  A    between atoms: C_2  and  C_4
REMARK    3  A    between atoms: C_2  and  N_15
REMARK    4  A    between atoms: C_8  and  S_10
REMARK    5  A    between atoms: S_10  and  N_13
REMARK    6  A    between atoms: N_13  and  C_14
REMARK    7  A    between atoms: C_16  and  C_17
REMARK    8  A    between atoms: C_26  and  O_27
REMARK                            x       y       z     vdW  Elec       q    Type
REMARK                         _______ _______ _______ _____ _____    ______ ____
ROOT
ATOM      1  N   UNL     1       0.714  -0.502   1.180  0.00  0.00    -0.383 N 
ATOM      2  C   UNL     1       0.099  -1.248   2.044  0.00  0.00    +0.091 C 
ATOM      3  H   UNL     1       1.644  -0.265   1.320  0.00  0.00    +0.160 HD
ENDROOT
BRANCH   2   4
ATOM      4  C   UNL     1       0.838  -1.824   3.175  0.00  0.00    +0.040 A 
ATOM      5  C   UNL     1       0.194  -2.772   4.084  0.00  0.00    -0.006 A 
ATOM      6  C   UNL     1      -1.139  -3.161   3.908  0.00  0.00    +0.009 A 
ATOM      7  C   UNL     1      -1.702  -4.048   4.777  0.00  0.00    +0.001 A 
ATOM      8  C   UNL     1      -0.969  -4.572   5.838  0.00  0.00    +0.001 A 
ATOM      9  C   UNL     1       0.330  -4.215   6.038  0.00  0.00    +0.008 A 
ATOM     10  C   UNL     1       0.942  -3.304   5.162  0.00  0.00    -0.017 A 
ATOM     11  C   UNL     1       2.282  -2.912   5.336  0.00  0.00    +0.012 A 
ATOM     12  C   UNL     1       2.866  -2.031   4.483  0.00  0.00    +0.046 A 
ATOM     13  C   UNL     1       2.172  -1.483   3.404  0.00  0.00    +0.126 A 
BRANCH  13  14
ATOM     14  O   UNL     1       2.796  -0.611   2.573  0.00  0.00    -0.506 OA
ATOM     15  H   UNL     1       2.718   0.314   2.844  0.00  0.00    +0.292 HD
ENDBRANCH  13  14
ENDBRANCH   2   4
BRANCH   1  17
ATOM     16  C   UNL     1      -0.000   1.513  -0.008  0.00  0.00    +0.035 C 
ATOM     17  C   UNL     1       0.004  -0.017  -0.006  0.00  0.00    +0.106 C 
BRANCH  17  18
ATOM     18  C   UNL     1       0.698  -0.519  -1.246  0.00  0.00    -0.024 A 
ATOM     19  C   UNL     1       2.079  -0.555  -1.300  0.00  0.00    +0.006 A 
ATOM     20  C   UNL     1       2.715  -1.015  -2.437  0.00  0.00    +0.002 A 
ATOM     21  C   UNL     1       1.970  -1.441  -3.521  0.00  0.00    +0.028 A 
ATOM     22  C   UNL     1       0.589  -1.406  -3.468  0.00  0.00    +0.106 A 
ATOM     23  C   UNL     1      -0.047  -0.949  -2.328  0.00  0.00    +0.034 A 
BRANCH  22  24
ATOM     24  S   UNL     1      -0.360  -1.947  -4.850  0.00  0.00    +0.058 S 
ATOM     25  O   UNL     1      -1.623  -1.303  -4.753  0.00  0.00    -0.153 OA
ATOM     26  O   UNL     1       0.475  -1.817  -5.992  0.00  0.00    -0.153 OA
BRANCH  24  27
ATOM     27  N   UNL     1      -0.638  -3.567  -4.648  0.00  0.00    -0.193 NA
ATOM     28  C   UNL     1      -1.456  -4.036  -3.526  0.00  0.00    +0.127 C 
ATOM     29  H   UNL     1      -0.260  -4.206  -5.273  0.00  0.00    +0.148 HD
ENDBRANCH  24  27
ENDBRANCH  22  24
ENDBRANCH  17  18
ENDBRANCH   1  17
TORSDOF 6
