REMARK  Name = ZINC39387764
REMARK  5 active torsions:
REMARK  status: ('A' for Active; 'I' for Inactive)
REMARK    1  A    between atoms: C_4  and  C_7
REMARK    2  A    between atoms: C_9  and  C_19
REMARK    3  A    between atoms: N_11  and  C_13
REMARK    4  A    between atoms: C_19  and  N_20
REMARK    5  A    between atoms: C_24  and  C_27
REMARK                            x       y       z     vdW  Elec       q    Type
REMARK                         _______ _______ _______ _____ _____    ______ ____
ROOT
ATOM      1  C   UNL     1       3.711  -0.707  -0.038  0.00  0.00    +0.128 C 
ATOM      2  C   UNL     1       4.017  -1.212  -1.431  0.00  0.00    -0.048 C 
ATOM      3  C   UNL     1       4.086  -2.526  -1.354  0.00  0.00    +0.093 C 
ATOM      4  N   UNL     1       3.862  -2.975  -0.067  0.00  0.00    -0.242 N 
ATOM      5  N   UNL     1       3.630  -1.930   0.786  0.00  0.00    -0.225 NA
ATOM      6  H   UNL     1       4.310  -1.911   1.530  0.00  0.00    +0.146 HD
ENDROOT
BRANCH   1  10
ATOM      7  C   UNL     1      -0.017   1.378   0.010  0.00  0.00    +0.000 A 
ATOM      8  C   UNL     1       1.171   2.086   0.002  0.00  0.00    +0.000 A 
ATOM      9  C   UNL     1       2.377   1.411  -0.013  0.00  0.00    +0.005 A 
ATOM     10  C   UNL     1       2.396   0.029  -0.020  0.00  0.00    -0.025 A 
ATOM     11  C   UNL     1       1.208  -0.679  -0.012  0.00  0.00    +0.005 A 
ATOM     12  C   UNL     1       0.002  -0.004   0.002  0.00  0.00    +0.000 A 
ENDBRANCH   1  10
BRANCH   4  13
ATOM     13  C   UNL     1       3.874  -4.319   0.314  0.00  0.00    +0.049 A 
ATOM     14  C   UNL     1       3.631  -4.669   1.637  0.00  0.00    +0.025 A 
ATOM     15  C   UNL     1       3.643  -5.998   2.010  0.00  0.00    +0.002 A 
ATOM     16  C   UNL     1       3.897  -6.980   1.070  0.00  0.00    +0.000 A 
ATOM     17  C   UNL     1       4.140  -6.635  -0.247  0.00  0.00    +0.002 A 
ATOM     18  C   UNL     1       4.123  -5.308  -0.629  0.00  0.00    +0.025 A 
ENDBRANCH   4  13
BRANCH   2  19
ATOM     19  C   UNL     1       4.205  -0.373  -2.669  0.00  0.00    -0.044 C 
BRANCH  19  20
ATOM     20  N   UNL     1       2.896  -0.088  -3.272  0.00  0.00    +0.383 N 
ATOM     21  C   UNL     1       2.287  -1.342  -3.731  0.00  0.00    -0.078 C 
ATOM     22  C   UNL     1       0.889  -1.062  -4.285  0.00  0.00    -0.018 C 
ATOM     23  C   UNL     1       0.998  -0.085  -5.460  0.00  0.00    +0.006 C 
ATOM     24  C   UNL     1       1.702   1.190  -4.987  0.00  0.00    +0.023 C 
ATOM     25  C   UNL     1       3.070   0.826  -4.407  0.00  0.00    -0.069 C 
ATOM     26  H   UNL     1       2.297   0.342  -2.583  0.00  0.00    -0.081 HD
BRANCH  24  27
ATOM     27  C   UNL     1       1.882   2.127  -6.154  0.00  0.00    +0.064 A 
ATOM     28  C   UNL     1       2.144   1.751  -7.475  0.00  0.00    +0.044 A 
ATOM     29  C   UNL     1       2.238   2.878  -8.218  0.00  0.00    +0.105 A 
ATOM     30  N   UNL     1       2.043   3.930  -7.396  0.00  0.00    -0.284 N 
ATOM     31  N   UNL     1       1.816   3.433  -6.106  0.00  0.00    -0.179 NA
ATOM     32  H   UNL     1       2.054   4.865  -7.654  0.00  0.00    +0.188 HD
ENDBRANCH  24  27
ENDBRANCH  19  20
ENDBRANCH   2  19
TORSDOF 5
