REMARK  Name = ZINC65129602
REMARK  7 active torsions:
REMARK  status: ('A' for Active; 'I' for Inactive)
REMARK    1  A    between atoms: C_4  and  C_6
REMARK    2  A    between atoms: C_6  and  N_7
REMARK    3  A    between atoms: N_10  and  C_11
REMARK    4  A    between atoms: C_11  and  C_12
REMARK    5  A    between atoms: N_14  and  C_15
REMARK    6  A    between atoms: N_18  and  C_21
REMARK    7  A    between atoms: C_21  and  C_22
REMARK                            x       y       z     vdW  Elec       q    Type
REMARK                         _______ _______ _______ _____ _____    ______ ____
ROOT
ATOM      1  C   UNL     1      -0.072  -7.467   0.133  0.00  0.00    +0.230 C 
ATOM      2  O   UNL     1      -0.621  -7.082  -0.877  0.00  0.00    -0.274 OA
ATOM      3  N   UNL     1      -0.105  -8.774   0.462  0.00  0.00    -0.311 N 
ATOM      4  H   UNL     1       0.334  -9.082   1.270  0.00  0.00    +0.149 HD
ENDROOT
BRANCH   3   5
ATOM      5  C   UNL     1      -0.804  -9.729  -0.402  0.00  0.00    +0.069 C 
ATOM      6  C   UNL     1      -2.291  -9.759  -0.033  0.00  0.00    +0.003 C 
ATOM      7  C   UNL     1      -3.000 -10.815  -0.884  0.00  0.00    -0.077 C 
ATOM      8  N   UNL     1      -2.405 -12.133  -0.631  0.00  0.00    +0.383 N 
ATOM      9  C   UNL     1      -0.998 -12.132  -1.049  0.00  0.00    -0.077 C 
ATOM     10  C   UNL     1      -0.211 -11.127  -0.205  0.00  0.00    +0.003 C 
ATOM     11  H   UNL     1      -2.461 -12.343   0.354  0.00  0.00    -0.082 HD
BRANCH   8  12
ATOM     12  C   UNL     1      -3.139 -13.154  -1.390  0.00  0.00    -0.006 C 
BRANCH  12  13
ATOM     13  C   UNL     1      -4.554 -13.290  -0.825  0.00  0.00    +0.325 C 
ATOM     14  F   UNL     1      -4.485 -13.522   0.553  0.00  0.00    -0.211 F 
ATOM     15  F   UNL     1      -5.268 -12.111  -1.064  0.00  0.00    -0.211 F 
ENDBRANCH  12  13
ENDBRANCH   8  12
ENDBRANCH   3   5
BRANCH   1  16
ATOM     16  C   UNL     1       0.647  -6.485   1.021  0.00  0.00    +0.201 C 
BRANCH  16  20
ATOM     17  N   UNL     1       1.011  -2.856   0.553  0.00  0.00    -0.299 N 
ATOM     18  C   UNL     1       1.111  -4.093   1.078  0.00  0.00    +0.300 C 
ATOM     19  O   UNL     1       1.716  -4.265   2.118  0.00  0.00    -0.253 OA
ATOM     20  N   UNL     1       0.539  -5.140   0.451  0.00  0.00    -0.291 N 
ATOM     21  H   UNL     1       0.527  -2.719  -0.277  0.00  0.00    +0.150 HD
ATOM     22  H   UNL     1       0.056  -5.003  -0.379  0.00  0.00    +0.151 HD
BRANCH  17  23
ATOM     23  C   UNL     1       1.632  -1.718   1.235  0.00  0.00    +0.109 C 
BRANCH  23  27
ATOM     24  C   UNL     1      -0.156   1.494   0.607  0.00  0.00    +0.000 C 
ATOM     25  C   UNL     1       1.309   1.976   0.567  0.00  0.00    +0.000 C 
ATOM     26  C   UNL     1       2.123   0.757   1.069  0.00  0.00    +0.005 C 
ATOM     27  C   UNL     1       1.372  -0.440   0.436  0.00  0.00    +0.006 C 
ATOM     28  C   UNL     1      -0.116  -0.042   0.524  0.00  0.00    +0.005 C 
ENDBRANCH  23  27
ENDBRANCH  17  23
ENDBRANCH  16  20
ENDBRANCH   1  16
TORSDOF 7
