REMARK  Name = ZINC66571920
REMARK  6 active torsions:
REMARK  status: ('A' for Active; 'I' for Inactive)
REMARK    1  A    between atoms: C_1  and  O_2
REMARK    2  A    between atoms: O_2  and  C_3
REMARK    3  A    between atoms: C_7  and  C_9
REMARK    4  A    between atoms: N_11  and  N_12
REMARK    5  A    between atoms: C_13  and  C_15
REMARK    6  A    between atoms: C_15  and  C_16
REMARK                            x       y       z     vdW  Elec       q    Type
REMARK                         _______ _______ _______ _____ _____    ______ ____
ROOT
ATOM      1  C   UNL     1       1.333  -4.079  -2.301  0.00  0.00    +0.261 C 
ATOM      2  O   UNL     1       1.874  -4.612  -3.250  0.00  0.00    -0.269 OA
ATOM      3  N   UNL     1       0.784  -4.831  -1.327  0.00  0.00    -0.230 N 
ATOM      4  H   UNL     1       0.352  -4.405  -0.570  0.00  0.00    +0.173 HD
ENDROOT
BRANCH   1   9
ATOM      5  C   UNL     1       0.606  -0.607  -1.056  0.00  0.00    +0.121 A 
ATOM      6  C   UNL     1       1.173   0.163  -2.063  0.00  0.00    +0.047 A 
ATOM      7  C   UNL     1       1.789  -0.444  -3.141  0.00  0.00    +0.019 A 
ATOM      8  C   UNL     1       1.843  -1.822  -3.224  0.00  0.00    +0.030 A 
ATOM      9  C   UNL     1       1.276  -2.604  -2.216  0.00  0.00    +0.056 A 
ATOM     10  C   UNL     1       0.660  -1.988  -1.126  0.00  0.00    +0.059 A 
ATOM     11 BR   UNL     1       2.686  -2.647  -4.703  0.00  0.00    -0.050 Br
BRANCH   5  13
ATOM     12  C   UNL     1      -0.017   1.425   0.010  0.00  0.00    +0.277 C 
ATOM     13  O   UNL     1       0.002  -0.004   0.002  0.00  0.00    -0.495 OA
ENDBRANCH   5  13
ENDBRANCH   1   9
BRANCH   3  14
ATOM     14  N   UNL     1       0.838  -6.229  -1.408  0.00  0.00    -0.234 N 
ATOM     15  C   UNL     1       0.289  -6.982  -0.433  0.00  0.00    +0.229 C 
ATOM     16  O   UNL     1      -0.251  -6.449   0.513  0.00  0.00    -0.274 OA
ATOM     17  H   UNL     1       1.269  -6.655  -2.165  0.00  0.00    +0.173 HD
BRANCH  15  18
ATOM     18  C   UNL     1       0.347  -8.485  -0.520  0.00  0.00    +0.101 C 
BRANCH  18  19
ATOM     19  C   UNL     1      -0.343  -9.093   0.702  0.00  0.00    -0.002 C 
ATOM     20  C   UNL     1       0.442  -8.730   1.964  0.00  0.00    +0.004 C 
ATOM     21  C   UNL     1      -0.248  -9.338   3.187  0.00  0.00    +0.000 C 
ATOM     22  C   UNL     1      -0.300 -10.860   3.039  0.00  0.00    +0.000 C 
ATOM     23  C   UNL     1      -1.085 -11.223   1.777  0.00  0.00    +0.000 C 
ATOM     24  C   UNL     1      -0.395 -10.615   0.554  0.00  0.00    +0.004 C 
ENDBRANCH  18  19
ENDBRANCH  15  18
ENDBRANCH   3  14
TORSDOF 5
