REMARK  Name = ZINC05594461
REMARK  2 active torsions:
REMARK  status: ('A' for Active; 'I' for Inactive)
REMARK    1  A    between atoms: C_1  and  C_2
REMARK    2  A    between atoms: C_14  and  C_15
REMARK                            x       y       z     vdW  Elec       q    Type
REMARK                         _______ _______ _______ _____ _____    ______ ____
ROOT
ATOM      1  C   UNL     1       1.442   1.390   0.046  0.00  0.00    +0.046 C 
ATOM      2  C   UNL     1       1.373  -0.116   0.054  0.00  0.00    -0.023 A 
ATOM      3  C   UNL     1       1.569  -0.824  -1.111  0.00  0.00    +0.005 A 
ATOM      4  C   UNL     1       1.507  -2.209  -1.113  0.00  0.00    +0.002 A 
ATOM      5  C   UNL     1       1.247  -2.899   0.056  0.00  0.00    +0.028 A 
ATOM      6  C   UNL     1       1.047  -2.200   1.233  0.00  0.00    +0.078 A 
ATOM      7  C   UNL     1       1.113  -0.801   1.244  0.00  0.00    +0.094 A 
ATOM      8  N   UNL     1       0.886  -0.399   2.522  0.00  0.00    -0.221 NA
ATOM      9  C   UNL     1       0.694  -1.443   3.276  0.00  0.00    +0.182 A 
ATOM     10  N   UNL     1       0.770  -2.609   2.551  0.00  0.00    -0.253 N 
ATOM     11  C   UNL     1       0.593  -3.776   3.189  0.00  0.00    +0.272 A 
ATOM     12  O   UNL     1       0.662  -4.834   2.592  0.00  0.00    -0.266 OA
ATOM     13  C   UNL     1       0.312  -3.735   4.630  0.00  0.00    +0.081 A 
ATOM     14  C   UNL     1       0.096  -4.761   5.497  0.00  0.00    +0.033 C 
ATOM     15  S   UNL     1       0.351  -1.976   4.940  0.00  0.00    -0.046 S 
ENDROOT
BRANCH  14  16
ATOM     16  C   UNL     1       0.002  -6.134   4.998  0.00  0.00    +0.041 A 
ATOM     17  C   UNL     1      -0.930  -6.466   4.027  0.00  0.00    +0.023 A 
ATOM     18  C   UNL     1      -0.997  -7.802   3.565  0.00  0.00    -0.001 A 
ATOM     19  C   UNL     1      -1.931  -8.165   2.583  0.00  0.00    +0.010 A 
ATOM     20  C   UNL     1      -1.988  -9.455   2.143  0.00  0.00    +0.001 A 
ATOM     21  C   UNL     1      -1.129 -10.416   2.659  0.00  0.00    +0.002 A 
ATOM     22  C   UNL     1      -0.203 -10.084   3.624  0.00  0.00    +0.026 A 
ATOM     23  C   UNL     1      -0.124  -8.774   4.090  0.00  0.00    +0.049 A 
ATOM     24  N   UNL     1       0.803  -8.439   5.056  0.00  0.00    -0.322 N 
ATOM     25  H   UNL     1       1.397  -9.122   5.406  0.00  0.00    +0.169 HD
ATOM     26  C   UNL     1       0.899  -7.178   5.515  0.00  0.00    +0.256 A 
ATOM     27  O   UNL     1       1.727  -6.901   6.364  0.00  0.00    -0.267 OA
ENDBRANCH  14  16
TORSDOF 1
