REMARK  Name = ZINC35361873
REMARK  7 active torsions:
REMARK  status: ('A' for Active; 'I' for Inactive)
REMARK    1  A    between atoms: C_1  and  C_2
REMARK    2  A    between atoms: C_17  and  C_35
REMARK    3  A    between atoms: C_22  and  C_23
REMARK    4  A    between atoms: C_22  and  O_34
REMARK    5  A    between atoms: C_23  and  N_24
REMARK    6  A    between atoms: C_25  and  C_26
REMARK    7  A    between atoms: C_31  and  O_32
REMARK                            x       y       z     vdW  Elec       q    Type
REMARK                         _______ _______ _______ _____ _____    ______ ____
ROOT
ATOM      1  C   UNL     1       0.785   2.859  -0.824  0.00  0.00    +0.012 C 
ATOM      2  C   UNL     1       0.526   1.417  -0.382  0.00  0.00    -0.026 C 
ATOM      3  C   UNL     1      -0.973   1.221  -0.141  0.00  0.00    +0.007 C 
ATOM      4  C   UNL     1      -1.444   2.181   0.953  0.00  0.00    +0.001 C 
ATOM      5  C   UNL     1      -0.679   1.894   2.247  0.00  0.00    +0.000 C 
ATOM      6  C   UNL     1       0.819   2.092   2.007  0.00  0.00    +0.004 C 
ATOM      7  C   UNL     1       1.292   1.136   0.911  0.00  0.00    -0.005 C 
ATOM      8  C   UNL     1       1.035  -0.309   1.346  0.00  0.00    +0.004 C 
ATOM      9  C   UNL     1       1.528  -1.260   0.255  0.00  0.00    +0.004 C 
ATOM     10  C   UNL     1       0.772  -0.986  -1.048  0.00  0.00    -0.004 C 
ATOM     11  C   UNL     1       0.993   0.460  -1.477  0.00  0.00    -0.001 C 
ATOM     12  C   UNL     1       2.490   0.657  -1.736  0.00  0.00    +0.005 C 
ATOM     13  C   UNL     1       2.898  -0.233  -2.907  0.00  0.00    +0.010 C 
ATOM     14  C   UNL     1       2.669  -1.710  -2.580  0.00  0.00    +0.001 C 
ATOM     15  C   UNL     1       1.241  -1.935  -2.127  0.00  0.00    +0.001 C 
ATOM     16  C   UNL     1       0.426  -1.802  -3.427  0.00  0.00    +0.007 C 
ATOM     17  C   UNL     1       1.326  -2.480  -4.486  0.00  0.00    +0.037 C 
ATOM     18  C   UNL     1       2.731  -2.476  -3.929  0.00  0.00    +0.089 C 
ATOM     19  C   UNL     1       3.703  -2.233  -1.581  0.00  0.00    +0.014 C 
ENDROOT
BRANCH  18  20
ATOM     20  O   UNL     1       3.579  -1.785  -4.848  0.00  0.00    -0.386 OA
ATOM     21  H   UNL     1       3.658  -2.215  -5.711  0.00  0.00    +0.210 HD
ENDBRANCH  18  20
BRANCH  18  22
ATOM     22  C   UNL     1       3.249  -3.898  -3.703  0.00  0.00    +0.147 C 
BRANCH  22  23
ATOM     23  N   UNL     1       3.302  -4.608  -4.983  0.00  0.00    -0.387 N 
ATOM     24  C   UNL     1       4.442  -4.983  -5.469  0.00  0.00    +0.090 C 
ATOM     25  H   UNL     1       2.483  -4.798  -5.467  0.00  0.00    +0.159 HD
BRANCH  24  26
ATOM     26  C   UNL     1       4.512  -5.559  -6.824  0.00  0.00    +0.033 A 
ATOM     27  C   UNL     1       5.717  -6.076  -7.306  0.00  0.00    +0.028 A 
ATOM     28  C   UNL     1       5.776  -6.614  -8.574  0.00  0.00    +0.019 A 
ATOM     29  C   UNL     1       4.644  -6.644  -9.373  0.00  0.00    +0.019 A 
ATOM     30  C   UNL     1       3.447  -6.136  -8.908  0.00  0.00    +0.047 A 
ATOM     31  C   UNL     1       3.369  -5.597  -7.633  0.00  0.00    +0.125 A 
ATOM     32 BR   UNL     1       7.408  -7.313  -9.226  0.00  0.00    -0.050 Br
BRANCH  31  33
ATOM     33  O   UNL     1       2.191  -5.103  -7.174  0.00  0.00    -0.506 OA
ATOM     34  H   UNL     1       2.056  -4.165  -7.368  0.00  0.00    +0.292 HD
ENDBRANCH  31  33
ENDBRANCH  24  26
ENDBRANCH  22  23
ENDBRANCH  18  22
TORSDOF 5
