REMARK  Name = ZINC09951201
REMARK  11 active torsions:
REMARK  status: ('A' for Active; 'I' for Inactive)
REMARK    1  A    between atoms: C_1  and  C_2
REMARK    2  A    between atoms: C_2  and  C_4
REMARK    3  A    between atoms: C_2  and  N_65
REMARK    4  A    between atoms: C_15  and  C_16
REMARK    5  A    between atoms: C_15  and  N_65
REMARK    6  A    between atoms: C_16  and  C_18
REMARK    7  A    between atoms: C_16  and  C_28
REMARK    8  A    between atoms: C_22  and  O_26
REMARK    9  A    between atoms: C_23  and  O_24
REMARK   10  A    between atoms: O_24  and  C_25
REMARK   11  A    between atoms: O_26  and  C_27
REMARK                            x       y       z     vdW  Elec       q    Type
REMARK                         _______ _______ _______ _____ _____    ______ ____
ROOT
ATOM      1  C   UNL     1       2.503   2.671   0.600  0.00  0.00    +0.038 C 
ENDROOT
BRANCH   1   2
ATOM      2  C   UNL     1       1.730   1.467   1.071  0.00  0.00    -0.017 A 
ATOM      3  C   UNL     1       2.207   0.449   1.805  0.00  0.00    +0.087 A 
ATOM      4  N   UNL     1       1.213  -0.462   2.041  0.00  0.00    -0.360 N 
ATOM      5  H   UNL     1       1.318  -1.282   2.549  0.00  0.00    +0.165 HD
ATOM      6  C   UNL     1       0.045  -0.044   1.444  0.00  0.00    +0.047 A 
ATOM      7  C   UNL     1       0.316   1.185   0.815  0.00  0.00    +0.003 A 
ATOM      8  C   UNL     1      -0.698   1.852   0.125  0.00  0.00    +0.010 A 
ATOM      9  C   UNL     1      -1.951   1.310   0.069  0.00  0.00    +0.001 A 
ATOM     10  C   UNL     1      -2.224   0.101   0.692  0.00  0.00    +0.002 A 
ATOM     11  C   UNL     1      -1.239  -0.575   1.378  0.00  0.00    +0.026 A 
ENDBRANCH   1   2
BRANCH   1  12
ATOM     12  C   UNL     1       3.651   2.224  -0.269  0.00  0.00    +0.004 A 
ATOM     13  C   UNL     1       4.621   1.384   0.246  0.00  0.00    +0.008 A 
ATOM     14  C   UNL     1       5.674   0.971  -0.548  0.00  0.00    +0.004 A 
ATOM     15  C   UNL     1       5.762   1.395  -1.861  0.00  0.00    +0.049 A 
ATOM     16  C   UNL     1       4.793   2.237  -2.383  0.00  0.00    +0.162 A 
ATOM     17  C   UNL     1       3.730   2.648  -1.585  0.00  0.00    +0.165 A 
BRANCH  17  18
ATOM     18  O   UNL     1       2.773   3.470  -2.095  0.00  0.00    -0.491 OA
ATOM     19  C   UNL     1       2.992   4.876  -1.970  0.00  0.00    +0.277 C 
ENDBRANCH  17  18
BRANCH  16  20
ATOM     20  O   UNL     1       4.878   2.655  -3.674  0.00  0.00    -0.491 OA
ATOM     21  C   UNL     1       5.993   2.187  -4.436  0.00  0.00    +0.277 C 
ENDBRANCH  16  20
ENDBRANCH   1  12
BRANCH   1  22
ATOM     22  C   UNL     1       3.047   3.434   1.810  0.00  0.00    -0.069 C 
BRANCH  22  23
ATOM     23  N   UNL     1       3.699   4.674   1.347  0.00  0.00    +0.387 N 
ATOM     24  H   UNL     1       4.468   4.435   0.711  0.00  0.00    -0.085 HD
ATOM     25  H   UNL     1       3.011   5.253   0.850  0.00  0.00    -0.085 HD
BRANCH  23  27
ATOM     26  C   UNL     1       3.128   6.307   3.088  0.00  0.00    -0.004 C 
ATOM     27  C   UNL     1       4.233   5.431   2.495  0.00  0.00    +0.013 C 
BRANCH  27  28
ATOM     28  C   UNL     1       5.369   6.303   2.026  0.00  0.00    +0.206 C 
ATOM     29  O   UNL     1       5.412   6.675   0.872  0.00  0.00    -0.277 OA
ATOM     30  N   UNL     1       6.337   6.671   2.889  0.00  0.00    -0.272 N 
ATOM     31  C   UNL     1       6.447   6.207   4.275  0.00  0.00    +0.118 C 
ATOM     32  C   UNL     1       7.702   6.899   4.833  0.00  0.00    +0.056 C 
ATOM     33  C   UNL     1       8.217   7.737   3.684  0.00  0.00    -0.024 A 
ATOM     34  C   UNL     1       7.379   7.556   2.595  0.00  0.00    +0.039 A 
ATOM     35  C   UNL     1       7.656   8.234   1.407  0.00  0.00    +0.024 A 
ATOM     36  C   UNL     1       8.748   9.072   1.322  0.00  0.00    +0.002 A 
ATOM     37  C   UNL     1       9.577   9.246   2.414  0.00  0.00    +0.000 A 
ATOM     38  C   UNL     1       9.310   8.578   3.595  0.00  0.00    +0.005 A 
ENDBRANCH  27  28
ENDBRANCH  23  27
ENDBRANCH  22  23
ENDBRANCH   1  22
TORSDOF 8
