REMARK  Name = ZINC40363608
REMARK  15 active torsions:
REMARK  status: ('A' for Active; 'I' for Inactive)
REMARK    1  A    between atoms: C_1  and  C_2
REMARK    2  A    between atoms: C_7  and  C_8
REMARK    3  A    between atoms: C_8  and  S_9
REMARK    4  A    between atoms: S_9  and  C_10
REMARK    5  A    between atoms: C_13  and  C_23
REMARK    6  A    between atoms: N_14  and  C_15
REMARK    7  A    between atoms: C_23  and  N_24
REMARK    8  A    between atoms: C_25  and  C_27
REMARK    9  A    between atoms: C_27  and  C_28
REMARK   10  A    between atoms: C_28  and  C_30
REMARK   11  A    between atoms: C_28  and  C_31
REMARK   12  A    between atoms: C_31  and  C_32
REMARK   13  A    between atoms: C_32  and  C_33
REMARK   14  A    between atoms: C_32  and  C_34
REMARK   15  A    between atoms: C_32  and  C_35
REMARK                            x       y       z     vdW  Elec       q    Type
REMARK                         _______ _______ _______ _____ _____    ______ ____
ROOT
ATOM      1  C   UNL     1      -3.982   0.573   4.019  0.00  0.00    +0.197 A 
ATOM      2  N   UNL     1      -2.683   0.635   4.197  0.00  0.00    -0.122 NA
ATOM      3  N   UNL     1      -2.417   1.355   5.229  0.00  0.00    -0.132 NA
ATOM      4  C   UNL     1      -3.521   1.792   5.767  0.00  0.00    +0.156 A 
ATOM      5  N   UNL     1      -4.559   1.314   5.013  0.00  0.00    -0.271 N 
ENDROOT
BRANCH   5   6
ATOM      6  C   UNL     1      -5.929   1.536   5.219  0.00  0.00    +0.069 A 
ATOM      7  C   UNL     1      -6.660   0.673   6.024  0.00  0.00    +0.029 A 
ATOM      8  C   UNL     1      -8.009   0.893   6.225  0.00  0.00    +0.022 A 
ATOM      9  C   UNL     1      -8.632   1.974   5.626  0.00  0.00    +0.042 A 
ATOM     10  C   UNL     1      -7.906   2.836   4.823  0.00  0.00    +0.042 A 
ATOM     11  C   UNL     1      -6.555   2.623   4.623  0.00  0.00    +0.066 A 
ATOM     12 CL   UNL     1      -5.644   3.709   3.622  0.00  0.00    -0.081 Cl
ATOM     13 CL   UNL     1     -10.327   2.248   5.882  0.00  0.00    -0.083 Cl
ENDBRANCH   5   6
BRANCH   1  14
ATOM     14  S   UNL     1      -4.823  -0.296   2.737  0.00  0.00    -0.081 S 
BRANCH  14  15
ATOM     15  C   UNL     1      -3.488  -1.057   1.773  0.00  0.00    +0.112 C 
BRANCH  15  22
ATOM     16  C   UNL     1      -3.941   0.226  -0.775  0.00  0.00    +0.044 C 
ATOM     17  C   UNL     1      -4.294  -1.227  -0.590  0.00  0.00    -0.046 A 
ATOM     18  C   UNL     1      -4.830  -1.948  -1.641  0.00  0.00    +0.003 A 
ATOM     19  C   UNL     1      -5.154  -3.280  -1.471  0.00  0.00    +0.000 A 
ATOM     20  C   UNL     1      -4.942  -3.893  -0.250  0.00  0.00    +0.000 A 
ATOM     21  C   UNL     1      -4.406  -3.173   0.800  0.00  0.00    +0.005 A 
ATOM     22  C   UNL     1      -4.077  -1.841   0.629  0.00  0.00    -0.034 A 
ENDBRANCH  15  22
ENDBRANCH  14  15
ENDBRANCH   1  14
BRANCH   4  23
ATOM     23  C   UNL     1      -3.633   2.666   6.990  0.00  0.00    +0.181 C 
BRANCH  23  24
ATOM     24  N   UNL     1      -3.614   4.074   6.587  0.00  0.00    -0.308 N 
ATOM     25  C   UNL     1      -3.703   5.043   7.519  0.00  0.00    +0.214 C 
ATOM     26  O   UNL     1      -3.798   4.749   8.692  0.00  0.00    -0.276 OA
ATOM     27  H   UNL     1      -3.538   4.309   5.649  0.00  0.00    +0.149 HD
BRANCH  25  28
ATOM     28  C   UNL     1      -3.683   6.492   7.105  0.00  0.00    +0.099 C 
BRANCH  28  29
ATOM     29  C   UNL     1      -3.797   7.379   8.346  0.00  0.00    -0.005 C 
ATOM     30  C   UNL     1      -2.557   7.192   9.222  0.00  0.00    +0.008 C 
BRANCH  29  31
ATOM     31  C   UNL     1      -3.903   8.844   7.918  0.00  0.00    +0.010 C 
BRANCH  31  32
ATOM     32  C   UNL     1      -4.199   9.713   9.142  0.00  0.00    -0.037 C 
ATOM     33  C   UNL     1      -2.994   9.691  10.086  0.00  0.00    +0.010 C 
ATOM     34  C   UNL     1      -4.469  11.151   8.694  0.00  0.00    +0.010 C 
ATOM     35  C   UNL     1      -5.428   9.166   9.871  0.00  0.00    +0.010 C 
ENDBRANCH  31  32
ENDBRANCH  29  31
ENDBRANCH  28  29
ENDBRANCH  25  28
ENDBRANCH  23  24
ENDBRANCH   4  23
TORSDOF 10
