REMARK  Name = ZINC49424681
REMARK  6 active torsions:
REMARK  status: ('A' for Active; 'I' for Inactive)
REMARK    1  A    between atoms: C_1  and  C_2
REMARK    2  A    between atoms: C_2  and  C_4
REMARK    3  A    between atoms: C_2  and  C_21
REMARK    4  A    between atoms: C_4  and  N_5
REMARK    5  A    between atoms: N_5  and  C_6
REMARK    6  A    between atoms: C_7  and  C_9
REMARK                            x       y       z     vdW  Elec       q    Type
REMARK                         _______ _______ _______ _____ _____    ______ ____
ROOT
ATOM      1  C   UNL     1      -2.989  -0.207   3.345  0.00  0.00    +0.122 A 
ATOM      2  C   UNL     1      -4.342  -0.326   3.421  0.00  0.00    +0.078 A 
ATOM      3  C   UNL     1      -4.770   0.357   4.586  0.00  0.00    +0.020 A 
ATOM      4  C   UNL     1      -6.026   0.569   5.169  0.00  0.00    +0.026 A 
ATOM      5  C   UNL     1      -6.126   1.287   6.326  0.00  0.00    +0.019 A 
ATOM      6  C   UNL     1      -4.990   1.812   6.932  0.00  0.00    +0.017 A 
ATOM      7  C   UNL     1      -3.745   1.616   6.378  0.00  0.00    +0.027 A 
ATOM      8  C   UNL     1      -3.619   0.887   5.199  0.00  0.00    +0.049 A 
ATOM      9  N   UNL     1      -2.538   0.527   4.428  0.00  0.00    -0.349 N 
ATOM     10  H   UNL     1      -1.613   0.752   4.612  0.00  0.00    +0.166 HD
ATOM     11 BR   UNL     1      -7.823   1.572   7.109  0.00  0.00    -0.050 Br
ATOM     12 CL   UNL     1      -5.361  -1.165   2.292  0.00  0.00    -0.081 Cl
ENDROOT
BRANCH   1  15
ATOM     13  N   UNL     1      -2.100  -0.186   1.073  0.00  0.00    -0.298 N 
ATOM     14  C   UNL     1      -2.813   1.073   0.841  0.00  0.00    +0.132 C 
ATOM     15  C   UNL     1      -2.142  -0.771   2.286  0.00  0.00    +0.264 C 
ATOM     16  O   UNL     1      -1.477  -1.766   2.505  0.00  0.00    -0.268 OA
BRANCH  13  17
ATOM     17  C   UNL     1      -1.343  -0.810  -0.016  0.00  0.00    +0.125 C 
BRANCH  17  19
ATOM     18  C   UNL     1       0.100   1.208  -0.310  0.00  0.00    +0.025 C 
ATOM     19  C   UNL     1       0.095  -0.290   0.000  0.00  0.00    +0.106 C 
BRANCH  19  20
ATOM     20  C   UNL     1       0.887  -1.004  -1.015  0.00  0.00    +0.067 C 
ATOM     21  N   UNL     1       1.497  -1.555  -1.798  0.00  0.00    -0.196 NA
ENDBRANCH  19  20
ENDBRANCH  17  19
ENDBRANCH  13  17
ENDBRANCH   1  15
TORSDOF 4
