REMARK  Name = ZINC00812919
REMARK  6 active torsions:
REMARK  status: ('A' for Active; 'I' for Inactive)
REMARK    1  A    between atoms: C_1  and  C_2
REMARK    2  A    between atoms: C_3  and  C_17
REMARK    3  A    between atoms: C_4  and  C_10
REMARK    4  A    between atoms: C_17  and  O_19
REMARK    5  A    between atoms: O_19  and  C_20
REMARK    6  A    between atoms: C_20  and  C_21
REMARK                            x       y       z     vdW  Elec       q    Type
REMARK                         _______ _______ _______ _____ _____    ______ ____
ROOT
ATOM      1  C   UNL     1      -0.018   1.503   0.010  0.00  0.00    +0.061 C 
ATOM      2  C   UNL     1       0.002  -0.004   0.002  0.00  0.00    +0.021 C 
ATOM      3  C   UNL     1      -1.165  -0.684   0.004  0.00  0.00    +0.078 C 
ATOM      4  C   UNL     1      -1.098  -2.198  -0.005  0.00  0.00    +0.143 C 
ATOM      5  N   UNL     1       0.242  -2.807  -0.014  0.00  0.00    -0.288 N 
ATOM      6  C   UNL     1       1.317  -1.993  -0.015  0.00  0.00    +0.304 C 
ATOM      7  O   UNL     1       2.428  -2.486  -0.023  0.00  0.00    -0.252 OA
ATOM      8  N   UNL     1       1.200  -0.659  -0.013  0.00  0.00    -0.273 N 
ATOM      9  H   UNL     1       0.350  -3.771  -0.020  0.00  0.00    +0.151 HD
ATOM     10  H   UNL     1       2.012  -0.129  -0.018  0.00  0.00    +0.156 HD
ENDROOT
BRANCH   4  11
ATOM     11  C   UNL     1      -1.828  -2.702   1.214  0.00  0.00    -0.022 A 
ATOM     12  C   UNL     1      -1.202  -2.691   2.447  0.00  0.00    +0.008 A 
ATOM     13  C   UNL     1      -1.871  -3.152   3.565  0.00  0.00    +0.038 A 
ATOM     14  C   UNL     1      -3.167  -3.626   3.450  0.00  0.00    +0.123 A 
ATOM     15  C   UNL     1      -3.792  -3.636   2.215  0.00  0.00    +0.038 A 
ATOM     16  C   UNL     1      -3.124  -3.169   1.099  0.00  0.00    +0.008 A 
ATOM     17  F   UNL     1      -3.821  -4.077   4.543  0.00  0.00    -0.205 F 
ENDBRANCH   4  11
BRANCH   3  18
ATOM     18  C   UNL     1      -2.406  -0.006   0.014  0.00  0.00    +0.339 C 
ATOM     19  O   UNL     1      -2.435   1.210   0.021  0.00  0.00    -0.245 OA
BRANCH  18  20
ATOM     20  O   UNL     1      -3.558  -0.709   0.016  0.00  0.00    -0.457 OA
BRANCH  20  21
ATOM     21  C   UNL     1      -4.775   0.040   0.026  0.00  0.00    +0.268 C 
BRANCH  21  22
ATOM     22  C   UNL     1      -5.948  -0.906   0.027  0.00  0.00    -0.007 A 
ATOM     23  C   UNL     1      -6.487  -1.337  -1.171  0.00  0.00    +0.011 A 
ATOM     24  C   UNL     1      -7.562  -2.205  -1.176  0.00  0.00    +0.050 A 
ATOM     25  C   UNL     1      -8.103  -2.646   0.021  0.00  0.00    +0.166 A 
ATOM     26  C   UNL     1      -7.560  -2.212   1.228  0.00  0.00    +0.167 A 
ATOM     27  C   UNL     1      -6.479  -1.346   1.225  0.00  0.00    +0.056 A 
ATOM     28  O   UNL     1      -8.261  -2.781   2.251  0.00  0.00    -0.453 OA
ATOM     29  C   UNL     1      -9.492  -3.243   1.664  0.00  0.00    +0.466 C 
ATOM     30  O   UNL     1      -9.144  -3.487   0.289  0.00  0.00    -0.453 OA
ENDBRANCH  21  22
ENDBRANCH  20  21
ENDBRANCH  18  20
ENDBRANCH   3  18
TORSDOF 5
