REMARK  Name = ZINC39029953
REMARK  6 active torsions:
REMARK  status: ('A' for Active; 'I' for Inactive)
REMARK    1  A    between atoms: C_4  and  O_7
REMARK    2  A    between atoms: O_7  and  C_8
REMARK    3  A    between atoms: C_8  and  C_9
REMARK    4  A    between atoms: N_20  and  N_21
REMARK    5  A    between atoms: C_22  and  C_23
REMARK    6  A    between atoms: C_28  and  C_29
REMARK                            x       y       z     vdW  Elec       q    Type
REMARK                         _______ _______ _______ _____ _____    ______ ____
ROOT
ATOM      1  C   UNL     1       5.208  -2.749   0.005  0.00  0.00    +0.222 C 
ATOM      2  N   UNL     1       5.988  -2.203   1.122  0.00  0.00    -0.321 N 
ATOM      3  C   UNL     1       6.240  -0.836   1.150  0.00  0.00    +0.041 A 
ATOM      4  C   UNL     1       6.401  -0.144   2.338  0.00  0.00    +0.024 A 
ATOM      5  C   UNL     1       6.645   1.216   2.311  0.00  0.00    +0.002 A 
ATOM      6  C   UNL     1       6.728   1.892   1.104  0.00  0.00    +0.001 A 
ATOM      7  C   UNL     1       6.573   1.218  -0.090  0.00  0.00    +0.015 A 
ATOM      8  C   UNL     1       6.330  -0.153  -0.077  0.00  0.00    +0.059 A 
ATOM      9  C   UNL     1       6.167  -0.925  -1.322  0.00  0.00    +0.269 C 
ATOM     10  O   UNL     1       6.480  -0.439  -2.392  0.00  0.00    -0.268 OA
ATOM     11  N   UNL     1       5.666  -2.172  -1.260  0.00  0.00    -0.165 N 
ATOM     12  H   UNL     1       6.321  -2.783   1.825  0.00  0.00    +0.148 HD
ENDROOT
BRANCH  11  13
ATOM     13  N   UNL     1       5.583  -2.934  -2.433  0.00  0.00    -0.187 NA
ATOM     14  C   UNL     1       5.011  -4.079  -2.413  0.00  0.00    +0.119 C 
BRANCH  14  15
ATOM     15  C   UNL     1       5.045  -4.959  -3.636  0.00  0.00    +0.125 C 
ATOM     16  C   UNL     1       3.639  -5.323  -4.071  0.00  0.00    +0.123 C 
ATOM     17  N   UNL     1       3.559  -6.611  -3.986  0.00  0.00    -0.161 NA
ATOM     18  N   UNL     1       4.744  -7.190  -3.542  0.00  0.00    -0.153 NA
ATOM     19  C   UNL     1       5.674  -6.299  -3.313  0.00  0.00    +0.084 C 
BRANCH  19  20
ATOM     20  C   UNL     1       7.046  -6.545  -2.840  0.00  0.00    -0.001 A 
ATOM     21  C   UNL     1       7.921  -5.473  -2.636  0.00  0.00    +0.011 A 
ATOM     22  C   UNL     1       9.204  -5.710  -2.192  0.00  0.00    +0.016 A 
ATOM     23  C   UNL     1       9.627  -7.006  -1.947  0.00  0.00    +0.018 A 
ATOM     24  C   UNL     1       8.766  -8.072  -2.146  0.00  0.00    +0.016 A 
ATOM     25  C   UNL     1       7.478  -7.850  -2.585  0.00  0.00    +0.011 A 
ATOM     26 BR   UNL     1      11.390  -7.321  -1.338  0.00  0.00    -0.050 Br
ENDBRANCH  19  20
ENDBRANCH  14  15
ENDBRANCH  11  13
BRANCH   1  27
ATOM     27  C   UNL     1       3.729  -2.413   0.208  0.00  0.00    +0.273 C 
BRANCH  27  28
ATOM     28  O   UNL     1       3.564  -0.994   0.249  0.00  0.00    -0.488 OA
BRANCH  28  32
ATOM     29  C   UNL     1      -0.270   0.431   0.782  0.00  0.00    +0.000 A 
ATOM     30  C   UNL     1       0.784   1.317   0.653  0.00  0.00    +0.004 A 
ATOM     31  C   UNL     1       2.069   0.843   0.475  0.00  0.00    +0.045 A 
ATOM     32  C   UNL     1       2.301  -0.524   0.425  0.00  0.00    +0.121 A 
ATOM     33  C   UNL     1       1.242  -1.411   0.555  0.00  0.00    +0.045 A 
ATOM     34  C   UNL     1      -0.041  -0.931   0.733  0.00  0.00    +0.004 A 
ENDBRANCH  28  32
ENDBRANCH  27  28
ENDBRANCH   1  27
TORSDOF 6
