REMARK  Name = ZINC38685258
REMARK  13 active torsions:
REMARK  status: ('A' for Active; 'I' for Inactive)
REMARK    1  A    between atoms: C_1  and  C_2
REMARK    2  A    between atoms: C_2  and  C_3
REMARK    3  A    between atoms: C_3  and  C_4
REMARK    4  A    between atoms: C_4  and  O_5
REMARK    5  A    between atoms: O_5  and  C_6
REMARK    6  A    between atoms: C_10  and  C_12
REMARK    7  A    between atoms: C_17  and  O_26
REMARK    8  A    between atoms: C_21  and  N_25
REMARK    9  A    between atoms: C_22  and  C_23
REMARK   10  A    between atoms: O_26  and  C_27
REMARK   11  A    between atoms: C_27  and  C_29
REMARK   12  A    between atoms: C_29  and  O_30
REMARK   13  A    between atoms: O_30  and  C_31
REMARK                            x       y       z     vdW  Elec       q    Type
REMARK                         _______ _______ _______ _____ _____    ______ ____
ROOT
ATOM      1  C   UNL     1       2.920  -6.330  -5.080  0.00  0.00    +0.098 C 
ATOM      2  C   UNL     1       4.107  -7.145  -4.641  0.00  0.00    +0.008 A 
ATOM      3  C   UNL     1       5.290  -6.505  -4.315  0.00  0.00    +0.012 A 
ATOM      4  C   UNL     1       6.388  -7.237  -3.910  0.00  0.00    +0.047 A 
ATOM      5  C   UNL     1       6.309  -8.620  -3.830  0.00  0.00    +0.135 A 
ATOM      6  C   UNL     1       5.127  -9.264  -4.156  0.00  0.00    +0.093 A 
ATOM      7  C   UNL     1       4.022  -8.527  -4.562  0.00  0.00    +0.138 A 
ATOM      8  O   UNL     1       2.873  -9.172  -4.879  0.00  0.00    -0.441 OA
ATOM      9  C   UNL     1       1.942  -8.555  -5.625  0.00  0.00    +0.199 C 
ATOM     10  C   UNL     1       1.910  -7.211  -5.759  0.00  0.00    +0.098 C 
ENDROOT
BRANCH   1  15
ATOM     11  C   UNL     1       1.622  -3.708  -2.689  0.00  0.00    +0.121 A 
ATOM     12  C   UNL     1       1.124  -4.496  -1.661  0.00  0.00    +0.045 A 
ATOM     13  C   UNL     1       1.209  -5.872  -1.745  0.00  0.00    +0.004 A 
ATOM     14  C   UNL     1       1.790  -6.465  -2.852  0.00  0.00    +0.005 A 
ATOM     15  C   UNL     1       2.287  -5.681  -3.876  0.00  0.00    -0.031 A 
ATOM     16  C   UNL     1       2.200  -4.304  -3.800  0.00  0.00    +0.050 A 
BRANCH  11  17
ATOM     17  O   UNL     1       1.539  -2.354  -2.609  0.00  0.00    -0.492 OA
BRANCH  17  18
ATOM     18  C   UNL     1       0.932  -1.809  -1.436  0.00  0.00    +0.229 C 
BRANCH  18  19
ATOM     19  C   UNL     1       0.929  -0.282  -1.525  0.00  0.00    +0.041 C 
BRANCH  19  21
ATOM     20  C   UNL     1       0.276   1.829  -0.359  0.00  0.00    +0.004 C 
ATOM     21  C   UNL     1       0.279   0.302  -0.269  0.00  0.00    -0.000 C 
ENDBRANCH  19  21
ENDBRANCH  18  19
ENDBRANCH  17  18
ENDBRANCH  11  17
ENDBRANCH   1  15
BRANCH   9  22
ATOM     22  N   UNL     1       0.995  -9.313  -6.269  0.00  0.00    -0.328 N 
ATOM     23  H   UNL     1       1.005 -10.279  -6.181  0.00  0.00    +0.145 HD
ATOM     24  H   UNL     1       0.316  -8.882  -6.812  0.00  0.00    +0.145 HD
ENDBRANCH   9  22
BRANCH  10  25
ATOM     25  C   UNL     1       0.890  -6.615  -6.569  0.00  0.00    +0.101 C 
ATOM     26  N   UNL     1       0.081  -6.143  -7.210  0.00  0.00    -0.191 NA
ENDBRANCH  10  25
BRANCH   5  27
ATOM     27  O   UNL     1       7.390  -9.342  -3.432  0.00  0.00    -0.423 OA
BRANCH  27  28
ATOM     28  C   UNL     1       8.004 -10.112  -4.345  0.00  0.00    +0.350 C 
ATOM     29  O   UNL     1       7.659 -10.069  -5.502  0.00  0.00    -0.247 OA
BRANCH  28  30
ATOM     30  C   UNL     1       9.124 -11.029  -3.926  0.00  0.00    +0.349 C 
BRANCH  30  31
ATOM     31  O   UNL     1       9.612 -11.738  -5.067  0.00  0.00    -0.481 OA
BRANCH  31  32
ATOM     32  C   UNL     1      10.631 -12.613  -4.861  0.00  0.00    +0.123 A 
ATOM     33  C   UNL     1      11.147 -12.790  -3.585  0.00  0.00    +0.046 A 
ATOM     34  C   UNL     1      12.183 -13.680  -3.377  0.00  0.00    +0.005 A 
ATOM     35  C   UNL     1      12.706 -14.395  -4.439  0.00  0.00    +0.020 A 
ATOM     36  C   UNL     1      12.193 -14.220  -5.713  0.00  0.00    +0.044 A 
ATOM     37  C   UNL     1      11.153 -13.334  -5.924  0.00  0.00    +0.065 A 
ATOM     38 CL   UNL     1      12.852 -15.118  -7.044  0.00  0.00    -0.083 Cl
ENDBRANCH  31  32
ENDBRANCH  30  31
ENDBRANCH  28  30
ENDBRANCH  27  28
ENDBRANCH   5  27
TORSDOF 12
