REMARK  Name = ZINC16930190
REMARK  7 active torsions:
REMARK  status: ('A' for Active; 'I' for Inactive)
REMARK    1  A    between atoms: C_1  and  C_2
REMARK    2  A    between atoms: C_7  and  N_8
REMARK    3  A    between atoms: N_9  and  C_10
REMARK    4  A    between atoms: C_11  and  C_24
REMARK    5  A    between atoms: N_13  and  C_21
REMARK    6  A    between atoms: C_14  and  C_15
REMARK    7  A    between atoms: C_21  and  N_23
REMARK                            x       y       z     vdW  Elec       q    Type
REMARK                         _______ _______ _______ _____ _____    ______ ____
ROOT
ATOM      1  C   UNL     1      -1.829   3.124   0.973  0.00  0.00    +0.140 A 
ATOM      2  C   UNL     1      -1.499   2.112  -0.035  0.00  0.00    +0.121 A 
ATOM      3  N   UNL     1      -2.513   2.038  -0.866  0.00  0.00    -0.162 NA
ATOM      4  N   UNL     1      -3.509   2.934  -0.469  0.00  0.00    -0.209 N 
ATOM      5  C   UNL     1      -3.096   3.602   0.649  0.00  0.00    +0.104 A 
ENDROOT
BRANCH   5   6
ATOM      6  C   UNL     1      -3.854   4.637   1.378  0.00  0.00    +0.003 A 
ATOM      7  C   UNL     1      -3.436   5.970   1.340  0.00  0.00    +0.010 A 
ATOM      8  C   UNL     1      -4.153   6.933   2.019  0.00  0.00    +0.001 A 
ATOM      9  C   UNL     1      -5.276   6.581   2.746  0.00  0.00    +0.000 A 
ATOM     10  C   UNL     1      -5.692   5.262   2.793  0.00  0.00    +0.001 A 
ATOM     11  C   UNL     1      -4.989   4.289   2.114  0.00  0.00    +0.010 A 
ENDBRANCH   5   6
BRANCH   2  12
ATOM     12  C   UNL     1      -0.246   1.322  -0.107  0.00  0.00    +0.004 A 
ATOM     13  C   UNL     1       0.981   1.931   0.150  0.00  0.00    +0.010 A 
ATOM     14  C   UNL     1       2.144   1.192   0.076  0.00  0.00    +0.001 A 
ATOM     15  C   UNL     1       2.093  -0.151  -0.252  0.00  0.00    +0.000 A 
ATOM     16  C   UNL     1       0.878  -0.761  -0.508  0.00  0.00    +0.001 A 
ATOM     17  C   UNL     1      -0.291  -0.032  -0.437  0.00  0.00    +0.010 A 
ENDBRANCH   2  12
BRANCH   1  19
ATOM     18  N   UNL     1      -0.919   4.773   2.285  0.00  0.00    -0.147 NA
ATOM     19  N   UNL     1      -1.052   3.518   2.017  0.00  0.00    -0.145 NA
BRANCH  18  26
ATOM     20  C   UNL     1      -0.822   7.547   2.899  0.00  0.00    +0.046 C 
ATOM     21  C   UNL     1       0.008   6.525   3.631  0.00  0.00    -0.022 A 
ATOM     22  C   UNL     1       0.853   6.920   4.647  0.00  0.00    +0.005 A 
ATOM     23  C   UNL     1       1.621   5.985   5.318  0.00  0.00    +0.002 A 
ATOM     24  C   UNL     1       1.544   4.645   4.980  0.00  0.00    +0.022 A 
ATOM     25  C   UNL     1       0.699   4.233   3.969  0.00  0.00    +0.068 A 
ATOM     26  C   UNL     1      -0.080   5.173   3.287  0.00  0.00    +0.107 A 
ATOM     27 CL   UNL     1       0.603   2.552   3.546  0.00  0.00    -0.081 Cl
ENDBRANCH  18  26
ENDBRANCH   1  19
BRANCH   4  28
ATOM     28  C   UNL     1      -4.688   3.115  -1.095  0.00  0.00    +0.164 C 
ATOM     29  S   UNL     1      -5.862   4.165  -0.423  0.00  0.00    -0.014 S 
BRANCH  28  30
ATOM     30  N   UNL     1      -4.945   2.470  -2.250  0.00  0.00    -0.337 N 
ATOM     31  H   UNL     1      -5.908   2.617  -2.761  0.00  0.00    +0.144 HD
ATOM     32  H   UNL     1      -4.191   1.795  -2.682  0.00  0.00    +0.144 HD
ENDBRANCH  28  30
ENDBRANCH   4  28
TORSDOF 6
