REMARK  Name = ZINC38965509
REMARK  8 active torsions:
REMARK  status: ('A' for Active; 'I' for Inactive)
REMARK    1  A    between atoms: C_1  and  O_2
REMARK    2  A    between atoms: O_2  and  C_3
REMARK    3  A    between atoms: C_6  and  S_9
REMARK    4  A    between atoms: S_9  and  N_12
REMARK    5  A    between atoms: C_14  and  N_24
REMARK    6  A    between atoms: N_24  and  C_25
REMARK    7  A    between atoms: C_28  and  C_31
REMARK    8  A    between atoms: C_31  and  O_33
REMARK                            x       y       z     vdW  Elec       q    Type
REMARK                         _______ _______ _______ _____ _____    ______ ____
ROOT
ATOM      1  N   UNL     1       4.179  -2.653  -4.447  0.00  0.00    -0.110 NA
ATOM      2  C   UNL     1       5.038  -3.317  -5.163  0.00  0.00    +0.192 C 
ATOM      3  C   UNL     1       6.434  -3.575  -4.642  0.00  0.00    +0.237 C 
ATOM      4  N   UNL     1       7.358  -4.333  -5.500  0.00  0.00    -0.359 N 
ATOM      5  C   UNL     1       6.932  -4.744  -6.662  0.00  0.00    +0.063 A 
ATOM      6  C   UNL     1       7.816  -5.505  -7.557  0.00  0.00    +0.027 A 
ATOM      7  C   UNL     1       7.339  -5.915  -8.753  0.00  0.00    +0.002 A 
ATOM      8  C   UNL     1       6.025  -5.632  -9.160  0.00  0.00    +0.002 A 
ATOM      9  C   UNL     1       5.155  -4.939  -8.393  0.00  0.00    +0.030 A 
ATOM     10  C   UNL     1       5.549  -4.460  -7.118  0.00  0.00    +0.089 A 
ATOM     11  N   UNL     1       4.696  -3.789  -6.372  0.00  0.00    -0.226 NA
ATOM     12  H   UNL     1       8.264  -4.522  -5.209  0.00  0.00    +0.162 HD
ENDROOT
BRANCH   1  13
ATOM     13  S   UNL     1       2.651  -2.384  -5.026  0.00  0.00    +0.100 S 
ATOM     14  O   UNL     1       2.018  -3.653  -5.106  0.00  0.00    -0.146 OA
ATOM     15  O   UNL     1       2.788  -1.528  -6.152  0.00  0.00    -0.146 OA
BRANCH  13  19
ATOM     16  C   UNL     1       0.421  -0.022  -1.871  0.00  0.00    +0.120 A 
ATOM     17  C   UNL     1       1.135   0.640  -2.859  0.00  0.00    +0.047 A 
ATOM     18  C   UNL     1       1.814  -0.083  -3.820  0.00  0.00    +0.032 A 
ATOM     19  C   UNL     1       1.783  -1.465  -3.798  0.00  0.00    +0.113 A 
ATOM     20  C   UNL     1       1.072  -2.127  -2.814  0.00  0.00    +0.032 A 
ATOM     21  C   UNL     1       0.396  -1.409  -1.847  0.00  0.00    +0.047 A 
BRANCH  16  23
ATOM     22  C   UNL     1      -0.179   2.112  -1.010  0.00  0.00    +0.277 C 
ATOM     23  O   UNL     1      -0.248   0.687  -0.924  0.00  0.00    -0.495 OA
ENDBRANCH  16  23
ENDBRANCH  13  19
ENDBRANCH   1  13
BRANCH   3  24
ATOM     24  N   UNL     1       7.052  -2.277  -4.358  0.00  0.00    -0.318 N 
ATOM     25  H   UNL     1       6.955  -1.546  -4.987  0.00  0.00    +0.148 HD
BRANCH  24  26
ATOM     26  C   UNL     1       7.776  -2.095  -3.186  0.00  0.00    +0.029 A 
ATOM     27  C   UNL     1       8.225  -0.823  -2.837  0.00  0.00    +0.024 A 
ATOM     28  C   UNL     1       8.939  -0.639  -1.682  0.00  0.00    +0.017 A 
ATOM     29  C   UNL     1       9.218  -1.731  -0.852  0.00  0.00    +0.059 A 
ATOM     30  C   UNL     1       8.766  -3.006  -1.205  0.00  0.00    +0.017 A 
ATOM     31  C   UNL     1       8.047  -3.182  -2.360  0.00  0.00    +0.024 A 
BRANCH  29  32
ATOM     32  C   UNL     1       9.986  -1.537   0.390  0.00  0.00    +0.337 C 
ATOM     33  O   UNL     1      10.378  -0.428   0.696  0.00  0.00    -0.245 OA
BRANCH  32  34
ATOM     34  O   UNL     1      10.254  -2.590   1.188  0.00  0.00    -0.477 OA
ATOM     35  H   UNL     1      10.762  -2.364   1.979  0.00  0.00    +0.295 HD
ENDBRANCH  32  34
ENDBRANCH  29  32
ENDBRANCH  24  26
ENDBRANCH   3  24
TORSDOF 7
