REMARK  Name = ZINC63698436
REMARK  8 active torsions:
REMARK  status: ('A' for Active; 'I' for Inactive)
REMARK    1  A    between atoms: C_1  and  C_2
REMARK    2  A    between atoms: C_7  and  C_11
REMARK    3  A    between atoms: C_7  and  C_12
REMARK    4  A    between atoms: N_13  and  C_15
REMARK    5  A    between atoms: C_18  and  C_21
REMARK    6  A    between atoms: N_23  and  C_24
REMARK    7  A    between atoms: C_24  and  C_25
REMARK    8  A    between atoms: C_25  and  C_26
REMARK                            x       y       z     vdW  Elec       q    Type
REMARK                         _______ _______ _______ _____ _____    ______ ____
ROOT
ATOM      1  C   UNL     1       1.722  -3.182  -0.176  0.00  0.00    +0.048 A 
ATOM      2  C   UNL     1       1.269  -4.495  -0.081  0.00  0.00    +0.025 A 
ATOM      3  C   UNL     1       2.152  -5.540  -0.224  0.00  0.00    +0.015 A 
ATOM      4  C   UNL     1       3.505  -5.283  -0.466  0.00  0.00    +0.037 A 
ATOM      5  C   UNL     1       3.956  -3.963  -0.562  0.00  0.00    +0.015 A 
ATOM      6  C   UNL     1       3.067  -2.922  -0.423  0.00  0.00    +0.025 A 
ENDROOT
BRANCH   1  18
ATOM      7  C   UNL     1      -2.591  -0.753   0.539  0.00  0.00    +0.062 C 
ATOM      8  C   UNL     1      -1.117  -1.002   0.350  0.00  0.00    +0.027 C 
ATOM      9  C   UNL     1      -0.178  -0.060   0.436  0.00  0.00    +0.035 C 
ATOM     10  C   UNL     1       1.154  -0.698   0.049  0.00  0.00    +0.129 C 
ATOM     11  C   UNL     1       2.147  -0.391   1.162  0.00  0.00    +0.036 C 
ATOM     12  C   UNL     1       2.126   1.072   1.576  0.00  0.00    -0.026 C 
ATOM     13  C   UNL     1       1.176   1.939   0.759  0.00  0.00    +0.086 C 
ATOM     14  C   UNL     1      -0.209   1.303   0.791  0.00  0.00    +0.163 C 
ATOM     15  O   UNL     1      -1.226   1.909   1.067  0.00  0.00    -0.292 OA
ATOM     16  C   UNL     1       1.716   1.155   3.048  0.00  0.00    +0.011 C 
ATOM     17  C   UNL     1       3.541   1.637   1.438  0.00  0.00    +0.011 C 
ATOM     18  N   UNL     1       0.827  -2.127  -0.031  0.00  0.00    -0.246 N 
ATOM     19  N   UNL     1      -0.570  -2.216   0.075  0.00  0.00    -0.267 N 
ATOM     20  H   UNL     1      -1.079  -3.035  -0.035  0.00  0.00    +0.170 HD
ENDBRANCH   1  18
BRANCH   4  21
ATOM     21  C   UNL     1       4.454  -6.401  -0.620  0.00  0.00    +0.244 C 
ATOM     22  O   UNL     1       4.061  -7.549  -0.536  0.00  0.00    -0.270 OA
ATOM     23  N   UNL     1       5.758  -6.151  -0.853  0.00  0.00    -0.311 N 
ATOM     24  H   UNL     1       6.072  -5.236  -0.920  0.00  0.00    +0.149 HD
BRANCH  23  25
ATOM     25  C   UNL     1       6.701  -7.262  -1.005  0.00  0.00    +0.109 C 
BRANCH  25  26
ATOM     26  C   UNL     1       8.104  -6.709  -1.260  0.00  0.00    +0.052 C 
BRANCH  26  27
ATOM     27  C   UNL     1       9.074  -7.851  -1.417  0.00  0.00    -0.040 C 
ATOM     28  C   UNL     1       9.485  -8.416  -2.575  0.00  0.00    -0.001 A 
ATOM     29  C   UNL     1       9.163  -8.147  -3.982  0.00  0.00    +0.010 A 
ATOM     30  C   UNL     1       9.745  -8.899  -4.943  0.00  0.00    +0.001 A 
ATOM     31  C   UNL     1      10.646  -9.926  -4.631  0.00  0.00    +0.002 A 
ATOM     32  C   UNL     1      10.992 -10.233  -3.363  0.00  0.00    +0.026 A 
ATOM     33  C   UNL     1      10.440  -9.506  -2.272  0.00  0.00    +0.043 A 
ATOM     34  N   UNL     1      10.613  -9.611  -0.977  0.00  0.00    -0.380 N 
ATOM     35  C   UNL     1       9.790  -8.594  -0.311  0.00  0.00    +0.144 C 
ATOM     36  H   UNL     1      11.190 -10.251  -0.533  0.00  0.00    +0.160 HD
ENDBRANCH  26  27
ENDBRANCH  25  26
ENDBRANCH  23  25
ENDBRANCH   4  21
TORSDOF 5
