REMARK  Name = ZINC51728951
REMARK  8 active torsions:
REMARK  status: ('A' for Active; 'I' for Inactive)
REMARK    1  A    between atoms: C_1  and  C_2
REMARK    2  A    between atoms: C_4  and  N_24
REMARK    3  A    between atoms: C_7  and  N_8
REMARK    4  A    between atoms: C_9  and  C_11
REMARK    5  A    between atoms: C_11  and  C_13
REMARK    6  A    between atoms: C_11  and  N_14
REMARK    7  A    between atoms: C_17  and  C_23
REMARK    8  A    between atoms: C_20  and  C_22
REMARK                            x       y       z     vdW  Elec       q    Type
REMARK                         _______ _______ _______ _____ _____    ______ ____
ROOT
ATOM      1  N   UNL     1      -0.282  -0.153   2.409  0.00  0.00    -0.287 N 
ATOM      2  C   UNL     1      -0.289  -0.791   3.597  0.00  0.00    +0.203 C 
ATOM      3  O   UNL     1      -0.361  -2.002   3.635  0.00  0.00    -0.277 OA
ATOM      4  H   UNL     1      -0.154   0.807   2.376  0.00  0.00    +0.155 HD
ENDROOT
BRANCH   1  11
ATOM      5  C   UNL     1      -1.680   1.094   0.270  0.00  0.00    +0.046 C 
ATOM      6  C   UNL     1      -1.136  -0.307   0.155  0.00  0.00    -0.028 A 
ATOM      7  C   UNL     1      -1.306  -1.019  -1.016  0.00  0.00    +0.028 A 
ATOM      8  C   UNL     1      -0.804  -2.309  -1.122  0.00  0.00    +0.025 A 
ATOM      9  C   UNL     1      -0.132  -2.884  -0.051  0.00  0.00    +0.024 A 
ATOM     10  C   UNL     1       0.037  -2.171   1.119  0.00  0.00    +0.025 A 
ATOM     11  C   UNL     1      -0.459  -0.879   1.223  0.00  0.00    +0.036 A 
BRANCH   8  12
ATOM     12  N   UNL     1      -0.977  -3.031  -2.308  0.00  0.00    -0.358 N 
ATOM     13  H   UNL     1      -1.447  -2.630  -3.056  0.00  0.00    +0.142 HD
ATOM     14  H   UNL     1      -0.627  -3.933  -2.382  0.00  0.00    +0.142 HD
ENDBRANCH   8  12
ENDBRANCH   1  11
BRANCH   2  15
ATOM     15  C   UNL     1      -0.208  -0.001   4.877  0.00  0.00    +0.017 C 
ATOM     16  C   UNL     1       1.046   0.876   4.857  0.00  0.00    -0.004 C 
BRANCH  15  17
ATOM     17  N   UNL     1      -0.142  -0.923   6.019  0.00  0.00    +0.389 N 
ATOM     18  C   UNL     1       1.124  -1.664   5.975  0.00  0.00    -0.077 C 
ATOM     19  C   UNL     1       1.163  -2.683   7.115  0.00  0.00    -0.015 C 
ATOM     20  C   UNL     1       1.045  -1.949   8.454  0.00  0.00    -0.017 C 
ATOM     21  C   UNL     1      -0.243  -1.121   8.459  0.00  0.00    -0.012 C 
ATOM     22  C   UNL     1      -0.230  -0.159   7.269  0.00  0.00    -0.070 C 
ATOM     23  C   UNL     1      -1.515   0.671   7.270  0.00  0.00    -0.013 C 
ATOM     24  C   UNL     1       1.005  -2.967   9.595  0.00  0.00    +0.007 C 
ATOM     25  H   UNL     1      -0.912  -1.574   5.969  0.00  0.00    -0.080 HD
ENDBRANCH  15  17
ENDBRANCH   2  15
TORSDOF 4
