REMARK  Name = ZINC11912044
REMARK  7 active torsions:
REMARK  status: ('A' for Active; 'I' for Inactive)
REMARK    1  A    between atoms: C_1  and  C_2
REMARK    2  A    between atoms: C_6  and  N_11
REMARK    3  A    between atoms: C_12  and  C_14
REMARK    4  A    between atoms: C_17  and  S_27
REMARK    5  A    between atoms: C_20  and  C_21
REMARK    6  A    between atoms: C_20  and  N_66
REMARK    7  A    between atoms: S_27  and  C_28
REMARK                            x       y       z     vdW  Elec       q    Type
REMARK                         _______ _______ _______ _____ _____    ______ ____
ROOT
ATOM      1  C   UNL     1      -0.659   1.883   1.269  0.00  0.00    +0.021 C 
ATOM      2  C   UNL     1       0.038   3.266   1.314  0.00  0.00    +0.006 C 
ATOM      3  C   UNL     1       1.447   2.961   0.756  0.00  0.00    +0.037 C 
ATOM      4  C   UNL     1       1.285   1.665  -0.059  0.00  0.00    -0.063 C 
ATOM      5  N   UNL     1      -0.136   1.307   0.025  0.00  0.00    +0.388 N 
ATOM      6  H   UNL     1      -0.642   1.700  -0.778  0.00  0.00    -0.081 HD
ENDROOT
BRANCH   1   8
ATOM      7  N   UNL     1      -2.823   2.572   2.250  0.00  0.00    -0.287 N 
ATOM      8  C   UNL     1      -2.156   2.043   1.205  0.00  0.00    +0.204 C 
ATOM      9  O   UNL     1      -2.762   1.696   0.213  0.00  0.00    -0.277 OA
ATOM     10  H   UNL     1      -2.333   2.913   3.015  0.00  0.00    +0.155 HD
BRANCH   7  16
ATOM     11  C   UNL     1      -9.535   2.253   5.374  0.00  0.00    +0.073 C 
ATOM     12  C   UNL     1      -8.474   2.409   4.316  0.00  0.00    +0.076 A 
ATOM     13  N   UNL     1      -7.180   2.334   4.451  0.00  0.00    -0.244 NA
ATOM     14  C   UNL     1      -6.332   2.493   3.413  0.00  0.00    +0.080 A 
ATOM     15  C   UNL     1      -4.921   2.435   3.401  0.00  0.00    +0.052 A 
ATOM     16  C   UNL     1      -4.223   2.631   2.232  0.00  0.00    +0.035 A 
ATOM     17  C   UNL     1      -4.880   2.880   1.028  0.00  0.00    +0.024 A 
ATOM     18  C   UNL     1      -6.260   2.937   1.009  0.00  0.00    +0.019 A 
ATOM     19  C   UNL     1      -6.963   2.748   2.174  0.00  0.00    +0.039 A 
ATOM     20  S   UNL     1      -8.681   2.732   2.622  0.00  0.00    -0.072 S 
ENDBRANCH   7  16
ENDBRANCH   1   8
BRANCH   5  21
ATOM     21  C   UNL     1      -0.296  -0.178   0.025  0.00  0.00    -0.074 C 
BRANCH  21  22
ATOM     22  C   UNL     1       0.167  -0.751  -1.316  0.00  0.00    -0.028 C 
ATOM     23  C   UNL     1      -0.740  -0.232  -2.433  0.00  0.00    +0.002 C 
ATOM     24  C   UNL     1      -0.277  -0.805  -3.774  0.00  0.00    +0.000 C 
ATOM     25  C   UNL     1      -0.349  -2.332  -3.728  0.00  0.00    +0.000 C 
ATOM     26  C   UNL     1       0.558  -2.852  -2.611  0.00  0.00    +0.000 C 
ATOM     27  C   UNL     1       0.095  -2.279  -1.270  0.00  0.00    +0.002 C 
ENDBRANCH  21  22
ENDBRANCH   5  21
BRANCH   3  28
ATOM     28  S   UNL     1       2.003   4.311  -0.314  0.00  0.00    -0.086 S 
BRANCH  28  29
ATOM     29  C   UNL     1       3.612   3.726  -0.732  0.00  0.00    +0.167 A 
ATOM     30  N   UNL     1       4.497   4.375  -1.547  0.00  0.00    -0.333 N 
ATOM     31  H   UNL     1       4.347   5.251  -2.006  0.00  0.00    +0.168 HD
ATOM     32  C   UNL     1       5.638   3.593  -1.619  0.00  0.00    +0.067 A 
ATOM     33  C   UNL     1       6.852   3.724  -2.275  0.00  0.00    +0.028 A 
ATOM     34  C   UNL     1       7.812   2.740  -2.147  0.00  0.00    +0.002 A 
ATOM     35  C   UNL     1       7.570   1.621  -1.364  0.00  0.00    +0.002 A 
ATOM     36  C   UNL     1       6.370   1.475  -0.705  0.00  0.00    +0.030 A 
ATOM     37  C   UNL     1       5.388   2.462  -0.825  0.00  0.00    +0.090 A 
ATOM     38  N   UNL     1       4.138   2.601  -0.312  0.00  0.00    -0.222 NA
ENDBRANCH  28  29
ENDBRANCH   3  28
TORSDOF 6
