REMARK  Name = ZINC05273506
REMARK  5 active torsions:
REMARK  status: ('A' for Active; 'I' for Inactive)
REMARK    1  A    between atoms: C_1  and  O_2
REMARK    2  A    between atoms: O_2  and  C_3
REMARK    3  A    between atoms: C_7  and  C_10
REMARK    4  A    between atoms: C_8  and  O_9
REMARK    5  A    between atoms: N_11  and  C_12
REMARK                            x       y       z     vdW  Elec       q    Type
REMARK                         _______ _______ _______ _____ _____    ______ ____
ROOT
ATOM      1  C   UNL     1      -0.073   9.431   0.102  0.00  0.00    +0.162 A 
ATOM      2  C   UNL     1      -0.944  10.106  -0.739  0.00  0.00    +0.049 A 
ATOM      3  C   UNL     1      -1.789   9.404  -1.582  0.00  0.00    +0.004 A 
ATOM      4  C   UNL     1      -1.774   8.026  -1.593  0.00  0.00    +0.013 A 
ATOM      5  C   UNL     1      -0.901   7.330  -0.749  0.00  0.00    +0.038 A 
ATOM      6  C   UNL     1      -0.050   8.041   0.107  0.00  0.00    +0.167 A 
ENDROOT
BRANCH   1   8
ATOM      7  C   UNL     1       0.671  11.554   0.873  0.00  0.00    +0.277 C 
ATOM      8  O   UNL     1       0.753  10.129   0.926  0.00  0.00    -0.491 OA
ENDBRANCH   1   8
BRANCH   6   9
ATOM      9  O   UNL     1       0.798   7.376   0.934  0.00  0.00    -0.503 OA
ATOM     10  H   UNL     1       1.665   7.196   0.545  0.00  0.00    +0.292 HD
ENDBRANCH   6   9
BRANCH   5  11
ATOM     11  C   UNL     1      -0.882   5.859  -0.757  0.00  0.00    +0.123 C 
ATOM     12  N   UNL     1      -0.068   5.214   0.030  0.00  0.00    -0.255 NA
BRANCH  12  13
ATOM     13  C   UNL     1      -0.050   3.846   0.023  0.00  0.00    +0.065 A 
ATOM     14  C   UNL     1       1.167   3.160   0.008  0.00  0.00    +0.028 A 
ATOM     15  C   UNL     1       1.178   1.781   0.000  0.00  0.00    +0.003 A 
ATOM     16  C   UNL     1      -0.013   1.076   0.008  0.00  0.00    +0.015 A 
ATOM     17  C   UNL     1      -1.222   1.748   0.017  0.00  0.00    +0.020 A 
ATOM     18  C   UNL     1      -1.248   3.129   0.031  0.00  0.00    +0.043 A 
ATOM     19 BR   UNL     1      -2.844   0.775   0.020  0.00  0.00    -0.050 Br
ENDBRANCH  12  13
ENDBRANCH   5  11
TORSDOF 4
