REMARK  Name = ZINC39542299
REMARK  6 active torsions:
REMARK  status: ('A' for Active; 'I' for Inactive)
REMARK    1  A    between atoms: C_1  and  C_2
REMARK    2  A    between atoms: C_2  and  C_3
REMARK    3  A    between atoms: C_3  and  C_4
REMARK    4  A    between atoms: C_7  and  C_10
REMARK    5  A    between atoms: N_16  and  C_18
REMARK    6  A    between atoms: C_18  and  C_19
REMARK                            x       y       z     vdW  Elec       q    Type
REMARK                         _______ _______ _______ _____ _____    ______ ____
ROOT
ATOM      1  C   UNL     1      -1.355  -6.312  -0.019  0.00  0.00    +0.155 C 
ATOM      2  C   UNL     1       0.026  -6.830   0.277  0.00  0.00    -0.035 C 
ATOM      3  C   UNL     1      -0.107  -7.535   1.409  0.00  0.00    +0.059 C 
ATOM      4  C   UNL     1       1.069  -8.236   2.054  0.00  0.00    +0.038 C 
ATOM      5  C   UNL     1       2.194  -8.318   1.013  0.00  0.00    -0.072 C 
ATOM      6  N   UNL     1       2.428  -6.994   0.422  0.00  0.00    +0.385 N 
ATOM      7  C   UNL     1       1.311  -6.639  -0.472  0.00  0.00    -0.043 C 
ATOM      8  N   UNL     1      -1.388  -7.503   1.827  0.00  0.00    -0.182 NA
ATOM      9  N   UNL     1      -2.154  -6.852   1.099  0.00  0.00    -0.297 N 
ATOM     10  H   UNL     1      -3.105  -6.719   1.239  0.00  0.00    +0.183 HD
ATOM     11  H   UNL     1       2.500  -6.307   1.158  0.00  0.00    -0.081 HD
ENDROOT
BRANCH   1  15
ATOM     12  C   UNL     1      -1.413  -2.041   0.005  0.00  0.00    -0.047 A 
ATOM     13  C   UNL     1      -1.409  -2.725  -1.196  0.00  0.00    +0.004 A 
ATOM     14  C   UNL     1      -1.391  -4.107  -1.204  0.00  0.00    +0.006 A 
ATOM     15  C   UNL     1      -1.375  -4.805  -0.011  0.00  0.00    -0.020 A 
ATOM     16  C   UNL     1      -1.378  -4.120   1.190  0.00  0.00    +0.006 A 
ATOM     17  C   UNL     1      -1.392  -2.738   1.198  0.00  0.00    +0.004 A 
BRANCH  12  18
ATOM     18  C   UNL     1      -1.433  -0.534   0.013  0.00  0.00    +0.035 C 
BRANCH  18  20
ATOM     19  C   UNL     1      -0.019   1.526   0.010  0.00  0.00    +0.004 C 
ATOM     20  C   UNL     1       0.002  -0.004   0.002  0.00  0.00    +0.001 C 
ENDBRANCH  18  20
ENDBRANCH  12  18
ENDBRANCH   1  15
BRANCH   6  21
ATOM     21  C   UNL     1       3.679  -7.016  -0.346  0.00  0.00    -0.042 C 
BRANCH  21  22
ATOM     22  C   UNL     1       4.838  -7.247   0.589  0.00  0.00    -0.028 C 
ATOM     23  C   UNL     1       5.402  -8.409   0.865  0.00  0.00    +0.089 C 
ATOM     24  N   UNL     1       6.441  -8.271   1.777  0.00  0.00    -0.270 N 
ATOM     25  N   UNL     1       6.417  -6.986   2.302  0.00  0.00    -0.233 N 
ATOM     26  C   UNL     1       5.575  -6.192   1.378  0.00  0.00    +0.234 C 
ATOM     27  N   UNL     1       4.661  -5.402   2.206  0.00  0.00    -0.263 NA
ATOM     28  C   UNL     1       4.994  -5.077   3.419  0.00  0.00    +0.109 C 
ATOM     29  C   UNL     1       6.205  -5.476   4.023  0.00  0.00    +0.036 C 
ATOM     30  C   UNL     1       6.947  -6.463   3.451  0.00  0.00    +0.095 C 
ATOM     31  H   UNL     1       7.080  -8.963   2.010  0.00  0.00    +0.170 HD
ENDBRANCH  21  22
ENDBRANCH   6  21
TORSDOF 5
