REMARK  Name = ZINC22181230
REMARK  9 active torsions:
REMARK  status: ('A' for Active; 'I' for Inactive)
REMARK    1  A    between atoms: C_1  and  C_2
REMARK    2  A    between atoms: C_3  and  C_34
REMARK    3  A    between atoms: C_11  and  C_13
REMARK    4  A    between atoms: C_13  and  C_15
REMARK    5  A    between atoms: C_13  and  S_16
REMARK    6  A    between atoms: S_16  and  C_17
REMARK    7  A    between atoms: N_22  and  C_23
REMARK    8  A    between atoms: C_26  and  O_29
REMARK    9  A    between atoms: O_29  and  C_30
REMARK                            x       y       z     vdW  Elec       q    Type
REMARK                         _______ _______ _______ _____ _____    ______ ____
ROOT
ATOM      1  C   UNL     1      -0.124  -3.777   7.428  0.00  0.00    +0.161 A 
ATOM      2  N   UNL     1       0.091  -5.070   7.271  0.00  0.00    -0.133 NA
ATOM      3  N   UNL     1      -0.221  -5.944   8.286  0.00  0.00    -0.125 NA
ATOM      4  C   UNL     1      -0.733  -5.487   9.412  0.00  0.00    +0.187 A 
ATOM      5  S   UNL     1      -0.796  -3.732   9.083  0.00  0.00    -0.024 S 
ATOM      6  N   UNL     1      -1.117  -6.183  10.552  0.00  0.00    -0.292 N 
ATOM      7  H   UNL     1      -1.562  -5.718  11.277  0.00  0.00    +0.154 HD
ENDROOT
BRANCH   6   8
ATOM      8  C   UNL     1      -0.860  -7.555  10.653  0.00  0.00    +0.033 A 
ATOM      9  C   UNL     1      -1.663  -8.355  11.456  0.00  0.00    +0.027 A 
ATOM     10  C   UNL     1      -1.409  -9.709  11.555  0.00  0.00    +0.048 A 
ATOM     11  C   UNL     1      -0.352 -10.270  10.854  0.00  0.00    +0.130 A 
ATOM     12  C   UNL     1       0.452  -9.472  10.053  0.00  0.00    +0.048 A 
ATOM     13  C   UNL     1       0.195  -8.119   9.947  0.00  0.00    +0.027 A 
BRANCH  11  14
ATOM     14  O   UNL     1      -0.102 -11.603  10.953  0.00  0.00    -0.406 OA
BRANCH  14  15
ATOM     15  C   UNL     1       1.003 -12.113  10.204  0.00  0.00    +0.575 C 
ATOM     16  F   UNL     1       2.179 -11.479  10.618  0.00  0.00    -0.133 F 
ATOM     17  F   UNL     1       1.116 -13.491  10.420  0.00  0.00    -0.133 F 
ATOM     18  F   UNL     1       0.796 -11.869   8.842  0.00  0.00    -0.133 F 
ENDBRANCH  14  15
ENDBRANCH  11  14
ENDBRANCH   6   8
BRANCH   1  19
ATOM     19  S   UNL     1       0.178  -2.450   6.309  0.00  0.00    -0.086 S 
BRANCH  19  20
ATOM     20  C   UNL     1       0.862  -3.264   4.839  0.00  0.00    +0.116 C 
ATOM     21  C   UNL     1       2.210  -3.898   5.187  0.00  0.00    +0.027 C 
BRANCH  20  32
ATOM     22  C   UNL     1       1.774   1.914   0.678  0.00  0.00    +0.045 C 
ATOM     23  C   UNL     1       1.571   0.425   0.560  0.00  0.00    -0.026 A 
ATOM     24  C   UNL     1       1.549  -0.163  -0.646  0.00  0.00    -0.008 A 
ATOM     25  S   UNL     1       1.289  -1.885  -0.261  0.00  0.00    -0.073 S 
ATOM     26  C   UNL     1       1.219  -1.763   1.508  0.00  0.00    +0.116 A 
ATOM     27  C   UNL     1       1.404  -0.389   1.749  0.00  0.00    +0.075 A 
ATOM     28  C   UNL     1       1.397   0.004   3.127  0.00  0.00    +0.260 A 
ATOM     29  O   UNL     1       1.545   1.173   3.438  0.00  0.00    -0.267 OA
ATOM     30  N   UNL     1       1.222  -0.938   4.072  0.00  0.00    -0.309 N 
ATOM     31  H   UNL     1       1.216  -0.678   5.007  0.00  0.00    +0.170 HD
ATOM     32  C   UNL     1       1.054  -2.245   3.745  0.00  0.00    +0.124 A 
ATOM     33  N   UNL     1       1.048  -2.634   2.498  0.00  0.00    -0.225 NA
ATOM     34  C   UNL     1       1.705   0.477  -2.001  0.00  0.00    +0.052 C 
ENDBRANCH  20  32
ENDBRANCH  19  20
ENDBRANCH   1  19
TORSDOF 6
