REMARK  Name = ZINC37311392
REMARK  4 active torsions:
REMARK  status: ('A' for Active; 'I' for Inactive)
REMARK    1  A    between atoms: C_1  and  C_2
REMARK    2  A    between atoms: C_5  and  N_9
REMARK    3  A    between atoms: C_11  and  C_20
REMARK    4  A    between atoms: C_12  and  C_14
REMARK                            x       y       z     vdW  Elec       q    Type
REMARK                         _______ _______ _______ _____ _____    ______ ____
ROOT
ATOM      1  N   UNL     1       0.057  -4.172  -0.022  0.00  0.00    -0.239 N 
ATOM      2  C   UNL     1       0.068  -4.951   1.071  0.00  0.00    +0.126 A 
ATOM      3  C   UNL     1       0.084  -6.270   0.653  0.00  0.00    +0.060 A 
ATOM      4  C   UNL     1       0.084  -6.236  -0.817  0.00  0.00    +0.111 A 
ATOM      5  N   UNL     1       0.061  -4.968  -1.170  0.00  0.00    -0.165 NA
ENDROOT
BRANCH   1  10
ATOM      6  C   UNL     1      -0.018   1.503   0.010  0.00  0.00    +0.045 C 
ATOM      7  C   UNL     1       0.002  -0.004   0.002  0.00  0.00    -0.032 A 
ATOM      8  C   UNL     1       0.006  -0.688  -1.200  0.00  0.00    +0.007 A 
ATOM      9  C   UNL     1       0.024  -2.068  -1.211  0.00  0.00    +0.028 A 
ATOM     10  C   UNL     1       0.039  -2.772  -0.013  0.00  0.00    +0.067 A 
ATOM     11  C   UNL     1       0.036  -2.083   1.192  0.00  0.00    +0.048 A 
ATOM     12  C   UNL     1       0.023  -0.701   1.197  0.00  0.00    +0.046 A 
ATOM     13 CL   UNL     1       0.026   0.161   2.704  0.00  0.00    -0.083 Cl
ENDBRANCH   1  10
BRANCH   4  14
ATOM     14  C   UNL     1       0.099  -7.400  -1.723  0.00  0.00    +0.054 A 
ATOM     15  C   UNL     1       0.104  -7.428  -3.094  0.00  0.00    +0.034 A 
ATOM     16  C   UNL     1       0.119  -8.650  -3.730  0.00  0.00    +0.023 A 
ATOM     17  C   UNL     1       0.127  -9.785  -2.984  0.00  0.00    +0.047 A 
ATOM     18  S   UNL     1       0.122  -9.139  -1.320  0.00  0.00    -0.094 S 
ATOM     19 BR   UNL     1       0.091  -5.822  -4.091  0.00  0.00    -0.049 Br
ENDBRANCH   4  14
BRANCH   3  20
ATOM     20  C   UNL     1       0.100  -7.461   1.503  0.00  0.00    +0.262 C 
ATOM     21  O   UNL     1       0.099  -7.344   2.711  0.00  0.00    -0.296 OA
ENDBRANCH   3  20
TORSDOF 3
