REMARK  Name = ZINC36052994
REMARK  11 active torsions:
REMARK  status: ('A' for Active; 'I' for Inactive)
REMARK    1  A    between atoms: C_1  and  C_2
REMARK    2  A    between atoms: C_7  and  C_8
REMARK    3  A    between atoms: C_10  and  C_30
REMARK    4  A    between atoms: C_11  and  C_29
REMARK    5  A    between atoms: C_15  and  C_18
REMARK    6  A    between atoms: C_19  and  N_21
REMARK    7  A    between atoms: N_21  and  C_22
REMARK    8  A    between atoms: C_22  and  C_23
REMARK    9  A    between atoms: C_30  and  O_32
REMARK   10  A    between atoms: O_32  and  C_33
REMARK   11  A    between atoms: C_33  and  C_34
REMARK                            x       y       z     vdW  Elec       q    Type
REMARK                         _______ _______ _______ _____ _____    ______ ____
ROOT
ATOM      1  C   UNL     1       0.138  -0.332   2.620  0.00  0.00    +0.150 C 
ATOM      2  C   UNL     1      -1.245  -0.123   3.195  0.00  0.00    +0.083 C 
ATOM      3  C   UNL     1      -1.494  -0.603   4.467  0.00  0.00    +0.053 C 
ATOM      4  N   UNL     1      -0.543  -1.223   5.147  0.00  0.00    -0.230 NA
ATOM      5  C   UNL     1       0.679  -1.437   4.706  0.00  0.00    +0.166 C 
ATOM      6  N   UNL     1       1.125  -1.043   3.476  0.00  0.00    -0.267 N 
ATOM      7  C   UNL     1       2.435  -1.342   3.160  0.00  0.00    +0.048 C 
ATOM      8  C   UNL     1       3.169  -1.998   4.085  0.00  0.00    +0.072 C 
ATOM      9  S   UNL     1       2.000  -2.193   5.413  0.00  0.00    -0.060 S 
ATOM     10  C   UNL     1      -2.857  -0.419   5.083  0.00  0.00    +0.066 C 
ENDROOT
BRANCH   1  17
ATOM     11  C   UNL     1       0.556   0.986   0.084  0.00  0.00    +0.044 C 
ATOM     12  C   UNL     1       0.194  -0.477   0.122  0.00  0.00    -0.045 A 
ATOM     13  C   UNL     1       0.068  -1.189  -1.056  0.00  0.00    +0.004 A 
ATOM     14  C   UNL     1      -0.264  -2.531  -1.020  0.00  0.00    +0.000 A 
ATOM     15  C   UNL     1      -0.469  -3.160   0.194  0.00  0.00    +0.000 A 
ATOM     16  C   UNL     1      -0.342  -2.448   1.372  0.00  0.00    +0.006 A 
ATOM     17  C   UNL     1      -0.006  -1.107   1.336  0.00  0.00    -0.019 A 
ENDBRANCH   1  17
BRANCH   7  18
ATOM     18  C   UNL     1       3.011  -0.961   1.862  0.00  0.00    +0.091 C 
ATOM     19  C   UNL     1       4.238  -1.397   1.516  0.00  0.00    +0.239 C 
ATOM     20  O   UNL     1       4.883  -2.297   2.297  0.00  0.00    -0.271 OA
BRANCH  19  21
ATOM     21  N   UNL     1       4.840  -0.925   0.362  0.00  0.00    -0.309 N 
ATOM     22  H   UNL     1       4.411  -0.227  -0.158  0.00  0.00    +0.149 HD
BRANCH  21  23
ATOM     23  C   UNL     1       6.124  -1.479  -0.074  0.00  0.00    +0.136 C 
BRANCH  23  24
ATOM     24  C   UNL     1       6.625  -0.705  -1.295  0.00  0.00    +0.135 C 
ATOM     25  C   UNL     1       7.916  -1.358  -1.835  0.00  0.00    +0.035 C 
ATOM     26  C   UNL     1       8.771  -0.122  -2.228  0.00  0.00    +0.031 C 
ATOM     27  C   UNL     1       8.342   0.891  -1.138  0.00  0.00    +0.160 C 
ATOM     28  O   UNL     1       6.942   0.640  -0.921  0.00  0.00    -0.375 OA
ENDBRANCH  23  24
ENDBRANCH  21  23
ENDBRANCH  19  21
ENDBRANCH   7  18
BRANCH   2  29
ATOM     29  C   UNL     1      -2.241   0.536   2.464  0.00  0.00    +0.339 C 
ATOM     30  O   UNL     1      -3.330   0.746   2.969  0.00  0.00    -0.245 OA
BRANCH  29  31
ATOM     31  O   UNL     1      -1.994   0.938   1.197  0.00  0.00    -0.457 OA
BRANCH  31  32
ATOM     32  C   UNL     1      -3.016   1.696   0.547  0.00  0.00    +0.268 C 
BRANCH  32  33
ATOM     33  C   UNL     1      -2.618   1.951  -0.885  0.00  0.00    -0.010 A 
ATOM     34  C   UNL     1      -1.808   3.027  -1.196  0.00  0.00    +0.007 A 
ATOM     35  C   UNL     1      -1.444   3.260  -2.509  0.00  0.00    +0.000 A 
ATOM     36  C   UNL     1      -1.889   2.417  -3.510  0.00  0.00    +0.000 A 
ATOM     37  C   UNL     1      -2.698   1.341  -3.199  0.00  0.00    +0.000 A 
ATOM     38  C   UNL     1      -3.059   1.105  -1.885  0.00  0.00    +0.007 A 
ENDBRANCH  32  33
ENDBRANCH  31  32
ENDBRANCH  29  31
ENDBRANCH   2  29
TORSDOF 9
