REMARK  Name = ZINC39631459
REMARK  12 active torsions:
REMARK  status: ('A' for Active; 'I' for Inactive)
REMARK    1  A    between atoms: C_1  and  C_2
REMARK    2  A    between atoms: C_2  and  C_4
REMARK    3  A    between atoms: C_2  and  N_11
REMARK    4  A    between atoms: C_4  and  C_5
REMARK    5  A    between atoms: C_5  and  C_6
REMARK    6  A    between atoms: C_6  and  C_7
REMARK    7  A    between atoms: C_7  and  C_8
REMARK    8  A    between atoms: C_7  and  C_9
REMARK    9  A    between atoms: C_7  and  O_10
REMARK   10  A    between atoms: C_12  and  C_14
REMARK   11  A    between atoms: C_25  and  C_27
REMARK   12  A    between atoms: C_29  and  C_34
REMARK                            x       y       z     vdW  Elec       q    Type
REMARK                         _______ _______ _______ _____ _____    ______ ____
ROOT
ATOM      1  C   UNL     1       1.298  -1.376   3.947  0.00  0.00    +0.100 C 
ATOM      2  C   UNL     1       2.312  -0.218   4.077  0.00  0.00    +0.121 C 
ATOM      3  N   UNL     1       1.696   0.712   5.053  0.00  0.00    -0.296 N 
ATOM      4  C   UNL     1       1.083  -0.175   6.070  0.00  0.00    +0.115 C 
ATOM      5  C   UNL     1       0.495  -1.347   5.259  0.00  0.00    -0.004 C 
ATOM      6  C   UNL     1      -0.982  -1.099   4.970  0.00  0.00    -0.010 C 
ATOM      7  C   UNL     1      -1.767  -1.131   6.284  0.00  0.00    -0.082 C 
ATOM      8  N   UNL     1      -1.587  -2.436   6.932  0.00  0.00    +0.379 N 
ATOM      9  C   UNL     1      -0.176  -2.627   7.290  0.00  0.00    -0.082 C 
ATOM     10  C   UNL     1       0.676  -2.658   6.019  0.00  0.00    -0.010 C 
ATOM     11  C   UNL     1       1.694   2.059   5.023  0.00  0.00    +0.247 C 
ATOM     12  O   UNL     1       2.132   2.646   4.053  0.00  0.00    -0.270 OA
ATOM     13  H   UNL     1      -2.153  -2.476   7.766  0.00  0.00    -0.086 HD
ATOM     14  H   UNL     1      -1.874  -3.166   6.298  0.00  0.00    -0.086 HD
ENDROOT
BRANCH  11  15
ATOM     15  C   UNL     1       1.158   2.824   6.169  0.00  0.00    +0.040 A 
ATOM     16  C   UNL     1       0.743   4.145   5.998  0.00  0.00    +0.025 A 
ATOM     17  C   UNL     1       0.244   4.854   7.071  0.00  0.00    +0.058 A 
ATOM     18  C   UNL     1       0.153   4.258   8.316  0.00  0.00    +0.050 A 
ATOM     19  C   UNL     1       0.564   2.947   8.495  0.00  0.00    +0.125 A 
ATOM     20  C   UNL     1       1.061   2.225   7.426  0.00  0.00    +0.051 A 
ATOM     21  F   UNL     1       0.474   2.372   9.714  0.00  0.00    -0.205 F 
BRANCH  17  22
ATOM     22  C   UNL     1      -0.204   6.281   6.886  0.00  0.00    +0.418 C 
ATOM     23  F   UNL     1      -1.559   6.303   6.540  0.00  0.00    -0.166 F 
ATOM     24  F   UNL     1      -0.016   6.987   8.079  0.00  0.00    -0.166 F 
ATOM     25  F   UNL     1       0.547   6.878   5.868  0.00  0.00    -0.166 F 
ENDBRANCH  17  22
ENDBRANCH  11  15
BRANCH   1  27
ATOM     26  N   UNL     1      -0.188  -2.195   2.147  0.00  0.00    -0.312 N 
ATOM     27  C   UNL     1       0.386  -1.146   2.770  0.00  0.00    +0.218 C 
ATOM     28  O   UNL     1       0.168  -0.018   2.382  0.00  0.00    -0.275 OA
ATOM     29  H   UNL     1      -0.014  -3.098   2.457  0.00  0.00    +0.149 HD
BRANCH  26  31
ATOM     30  C   UNL     1      -0.239  -1.858  -0.275  0.00  0.00    +0.028 C 
ATOM     31  C   UNL     1      -1.074  -1.972   1.002  0.00  0.00    +0.070 C 
BRANCH  31  32
ATOM     32  C   UNL     1      -2.046  -3.146   0.873  0.00  0.00    +0.022 C 
BRANCH  32  33
ATOM     33  C   UNL     1      -2.966  -3.184   2.095  0.00  0.00    +0.005 C 
BRANCH  33  34
ATOM     34  C   UNL     1      -3.938  -4.358   1.966  0.00  0.00    +0.034 C 
BRANCH  34  35
ATOM     35  C   UNL     1      -4.857  -4.396   3.188  0.00  0.00    +0.061 C 
ATOM     36  C   UNL     1      -5.745  -5.640   3.121  0.00  0.00    +0.041 C 
ATOM     37  C   UNL     1      -4.011  -4.442   4.462  0.00  0.00    +0.041 C 
BRANCH  35  38
ATOM     38  O   UNL     1      -5.678  -3.226   3.204  0.00  0.00    -0.389 OA
ATOM     39  H   UNL     1      -6.287  -3.183   3.953  0.00  0.00    +0.210 HD
ENDBRANCH  35  38
ENDBRANCH  34  35
ENDBRANCH  33  34
ENDBRANCH  32  33
ENDBRANCH  31  32
ENDBRANCH  26  31
ENDBRANCH   1  27
TORSDOF 9
