REMARK  Name = ZINC19913449
REMARK  6 active torsions:
REMARK  status: ('A' for Active; 'I' for Inactive)
REMARK    1  A    between atoms: C_1  and  O_2
REMARK    2  A    between atoms: O_2  and  C_3
REMARK    3  A    between atoms: C_5  and  C_18
REMARK    4  A    between atoms: C_8  and  O_9
REMARK    5  A    between atoms: O_9  and  C_10
REMARK    6  A    between atoms: C_10  and  C_11
REMARK                            x       y       z     vdW  Elec       q    Type
REMARK                         _______ _______ _______ _____ _____    ______ ____
ROOT
ATOM      1  C   UNL     1       2.403   0.379  -4.230  0.00  0.00    +0.209 C 
ATOM      2  N   UNL     1       3.668  -0.234  -4.675  0.00  0.00    -0.294 N 
ATOM      3  C   UNL     1       3.596  -1.293  -5.569  0.00  0.00    +0.159 C 
ATOM      4  N   UNL     1       2.835  -1.082  -6.719  0.00  0.00    -0.259 N 
ATOM      5  C   UNL     1       1.715  -0.272  -6.548  0.00  0.00    +0.205 A 
ATOM      6  N   UNL     1       1.498   0.432  -5.384  0.00  0.00    -0.288 N 
ATOM      7  C   UNL     1       0.335   1.130  -5.543  0.00  0.00    +0.072 A 
ATOM      8  C   UNL     1      -0.366   2.001  -4.718  0.00  0.00    +0.028 A 
ATOM      9  C   UNL     1      -1.542   2.537  -5.219  0.00  0.00    +0.002 A 
ATOM     10  C   UNL     1      -2.009   2.227  -6.484  0.00  0.00    +0.002 A 
ATOM     11  C   UNL     1      -1.330   1.364  -7.325  0.00  0.00    +0.030 A 
ATOM     12  C   UNL     1      -0.140   0.810  -6.841  0.00  0.00    +0.091 A 
ATOM     13  N   UNL     1       0.746  -0.048  -7.394  0.00  0.00    -0.214 NA
ATOM     14  N   UNL     1       4.206  -2.422  -5.347  0.00  0.00    -0.375 N 
ATOM     15  H   UNL     1       3.069  -1.471  -7.576  0.00  0.00    +0.158 HD
ATOM     16  H   UNL     1       4.729  -2.540  -4.538  0.00  0.00    +0.158 HD
ATOM     17  H   UNL     1       4.522   0.091  -4.352  0.00  0.00    +0.151 HD
ATOM     18  H   UNL     1       4.138  -3.145  -5.990  0.00  0.00    +0.158 HD
ENDROOT
BRANCH   1  21
ATOM     19  C   UNL     1       0.606  -0.608  -1.056  0.00  0.00    +0.162 A 
ATOM     20  C   UNL     1       1.173   0.159  -2.062  0.00  0.00    +0.056 A 
ATOM     21  C   UNL     1       1.787  -0.456  -3.137  0.00  0.00    -0.003 A 
ATOM     22  C   UNL     1       1.837  -1.836  -3.212  0.00  0.00    +0.011 A 
ATOM     23  C   UNL     1       1.273  -2.606  -2.212  0.00  0.00    +0.050 A 
ATOM     24  C   UNL     1       0.662  -1.996  -1.129  0.00  0.00    +0.162 A 
BRANCH  19  26
ATOM     25  C   UNL     1      -0.017   1.425   0.010  0.00  0.00    +0.277 C 
ATOM     26  O   UNL     1       0.002  -0.004   0.002  0.00  0.00    -0.491 OA
ENDBRANCH  19  26
BRANCH  24  27
ATOM     27  O   UNL     1       0.112  -2.753  -0.142  0.00  0.00    -0.484 OA
BRANCH  27  28
ATOM     28  C   UNL     1       0.206  -4.171  -0.283  0.00  0.00    +0.264 C 
BRANCH  28  29
ATOM     29  C   UNL     1      -0.453  -4.838   0.897  0.00  0.00    -0.010 A 
ATOM     30  C   UNL     1       0.286  -5.128   2.029  0.00  0.00    +0.008 A 
ATOM     31  C   UNL     1      -0.319  -5.740   3.111  0.00  0.00    +0.015 A 
ATOM     32  C   UNL     1      -1.663  -6.062   3.061  0.00  0.00    +0.018 A 
ATOM     33  C   UNL     1      -2.402  -5.771   1.929  0.00  0.00    +0.015 A 
ATOM     34  C   UNL     1      -1.798  -5.155   0.849  0.00  0.00    +0.008 A 
ATOM     35 BR   UNL     1      -2.490  -6.899   4.542  0.00  0.00    -0.050 Br
ENDBRANCH  28  29
ENDBRANCH  27  28
ENDBRANCH  24  27
ENDBRANCH   1  21
TORSDOF 5
