REMARK  Name = ZINC40428365
REMARK  7 active torsions:
REMARK  status: ('A' for Active; 'I' for Inactive)
REMARK    1  A    between atoms: C_1  and  C_2
REMARK    2  A    between atoms: C_2  and  N_3
REMARK    3  A    between atoms: C_7  and  C_9
REMARK    4  A    between atoms: C_9  and  N_10
REMARK    5  A    between atoms: C_11  and  C_13
REMARK    6  A    between atoms: C_19  and  C_21
REMARK    7  A    between atoms: C_21  and  C_22
REMARK                            x       y       z     vdW  Elec       q    Type
REMARK                         _______ _______ _______ _____ _____    ______ ____
ROOT
ATOM      1  C   UNL     1      -3.475  -1.268  -3.862  0.00  0.00    +0.135 A 
ATOM      2  C   UNL     1      -4.281  -1.489  -4.943  0.00  0.00    +0.081 A 
ATOM      3  S   UNL     1      -5.624  -0.535  -4.599  0.00  0.00    -0.060 S 
ATOM      4  C   UNL     1      -5.076   0.126  -3.035  0.00  0.00    +0.165 A 
ATOM      5  N   UNL     1      -3.898  -0.447  -2.897  0.00  0.00    -0.220 NA
ATOM      6  N   UNL     1      -5.725   1.010  -2.183  0.00  0.00    -0.264 N 
ATOM      7  C   UNL     1      -6.944   1.485  -2.506  0.00  0.00    +0.223 C 
ATOM      8  O   UNL     1      -7.475   1.140  -3.540  0.00  0.00    -0.275 OA
ATOM      9  H   UNL     1      -5.300   1.286  -1.355  0.00  0.00    +0.157 HD
ENDROOT
BRANCH   1  11
ATOM     10  N   UNL     1      -1.379  -1.708  -2.686  0.00  0.00    -0.312 N 
ATOM     11  C   UNL     1      -2.164  -1.930  -3.759  0.00  0.00    +0.263 C 
ATOM     12  O   UNL     1      -1.788  -2.676  -4.644  0.00  0.00    -0.269 OA
ATOM     13  H   UNL     1      -1.678  -1.113  -1.981  0.00  0.00    +0.149 HD
BRANCH  10  14
ATOM     14  C   UNL     1      -0.074  -2.367  -2.584  0.00  0.00    +0.089 C 
BRANCH  14  19
ATOM     15  N   UNL     1       0.690  -0.478  -1.207  0.00  0.00    +0.382 N 
ATOM     16  C   UNL     1       2.115  -0.088  -1.153  0.00  0.00    -0.078 C 
ATOM     17  C   UNL     1       2.844  -1.331  -0.584  0.00  0.00    -0.020 C 
ATOM     18  C   UNL     1       2.053  -2.489  -1.246  0.00  0.00    -0.016 C 
ATOM     19  C   UNL     1       0.608  -1.948  -1.280  0.00  0.00    -0.051 C 
ATOM     20  H   UNL     1       0.259  -0.072  -2.024  0.00  0.00    -0.081 HD
BRANCH  15  22
ATOM     21  C   UNL     1      -0.019   1.526   0.010  0.00  0.00    -0.017 C 
ATOM     22  C   UNL     1       0.002  -0.004   0.002  0.00  0.00    -0.082 C 
ENDBRANCH  15  22
ENDBRANCH  14  19
ENDBRANCH  10  14
ENDBRANCH   1  11
BRANCH   7  23
ATOM     23  C   UNL     1      -7.648   2.445  -1.581  0.00  0.00    +0.131 C 
BRANCH  23  24
ATOM     24  C   UNL     1      -8.984   2.820  -2.169  0.00  0.00    -0.039 A 
ATOM     25  C   UNL     1      -9.085   3.911  -3.012  0.00  0.00    +0.005 A 
ATOM     26  C   UNL     1     -10.310   4.256  -3.552  0.00  0.00    +0.020 A 
ATOM     27  C   UNL     1     -11.435   3.509  -3.248  0.00  0.00    +0.041 A 
ATOM     28  C   UNL     1     -11.332   2.418  -2.404  0.00  0.00    +0.020 A 
ATOM     29  C   UNL     1     -10.106   2.070  -1.870  0.00  0.00    +0.005 A 
ATOM     30 CL   UNL     1     -12.973   3.942  -3.925  0.00  0.00    -0.084 Cl
ENDBRANCH  23  24
ENDBRANCH   7  23
TORSDOF 6
