REMARK  Name = ZINC06938405
REMARK  7 active torsions:
REMARK  status: ('A' for Active; 'I' for Inactive)
REMARK    1  A    between atoms: C_1  and  C_2
REMARK    2  A    between atoms: C_2  and  C_3
REMARK    3  A    between atoms: C_3  and  C_5
REMARK    4  A    between atoms: C_3  and  C_6
REMARK    5  A    between atoms: C_9  and  O_12
REMARK    6  A    between atoms: O_12  and  C_13
REMARK    7  A    between atoms: C_13  and  C_14
REMARK                            x       y       z     vdW  Elec       q    Type
REMARK                         _______ _______ _______ _____ _____    ______ ____
ROOT
ATOM      1  C   UNL     1       2.544  -6.656   0.989  0.00  0.00    +0.324 C 
ENDROOT
BRANCH   1   2
ATOM      2  C   UNL     1       2.474  -8.160   0.914  0.00  0.00    +0.256 C 
ATOM      3  O   UNL     1       1.397  -8.715   0.864  0.00  0.00    -0.272 OA
ATOM      4  N   UNL     1       3.608  -8.887   0.903  0.00  0.00    -0.268 N 
ATOM      5  C   UNL     1       3.543 -10.280   0.941  0.00  0.00    +0.125 A 
ATOM      6  C   UNL     1       4.716 -11.021   1.036  0.00  0.00    +0.045 A 
ATOM      7  C   UNL     1       4.638 -12.402   1.072  0.00  0.00    +0.019 A 
ATOM      8  C   UNL     1       3.384 -12.996   1.012  0.00  0.00    +0.032 A 
ATOM      9  C   UNL     1       2.261 -12.198   0.918  0.00  0.00    +0.127 A 
ATOM     10  N   UNL     1       2.367 -10.883   0.891  0.00  0.00    -0.239 NA
ATOM     11  I   UNL     1       3.198 -15.083   1.062  0.00  0.00    -0.042 I 
ATOM     12  H   UNL     1       4.469  -8.443   0.869  0.00  0.00    +0.156 HD
ENDBRANCH   1   2
BRANCH   1  13
ATOM     13  O   UNL     1       1.220  -6.117   0.987  0.00  0.00    -0.483 OA
BRANCH  13  17
ATOM     14  C   UNL     1       0.870  -2.011   1.182  0.00  0.00    -0.044 A 
ATOM     15  C   UNL     1      -0.265  -2.798   1.118  0.00  0.00    +0.007 A 
ATOM     16  C   UNL     1      -0.150  -4.173   1.053  0.00  0.00    +0.046 A 
ATOM     17  C   UNL     1       1.105  -4.764   1.051  0.00  0.00    +0.121 A 
ATOM     18  C   UNL     1       2.242  -3.972   1.115  0.00  0.00    +0.046 A 
ATOM     19  C   UNL     1       2.123  -2.597   1.174  0.00  0.00    +0.007 A 
BRANCH  14  20
ATOM     20  C   UNL     1       0.743  -0.511   1.254  0.00  0.00    +0.016 C 
ATOM     21  C   UNL     1      -0.041  -0.126   2.510  0.00  0.00    +0.012 C 
BRANCH  20  23
ATOM     22  C   UNL     1      -0.019   1.527   0.025  0.00  0.00    +0.004 C 
ATOM     23  C   UNL     1       0.002  -0.003   0.015  0.00  0.00    +0.004 C 
ENDBRANCH  20  23
ENDBRANCH  14  20
ENDBRANCH  13  17
ENDBRANCH   1  13
TORSDOF 5
