REMARK  Name = ZINC35087347
REMARK  6 active torsions:
REMARK  status: ('A' for Active; 'I' for Inactive)
REMARK    1  A    between atoms: C_3  and  N_11
REMARK    2  A    between atoms: C_6  and  C_7
REMARK    3  A    between atoms: N_14  and  C_17
REMARK    4  A    between atoms: C_17  and  C_18
REMARK    5  A    between atoms: N_20  and  C_21
REMARK    6  A    between atoms: C_32  and  O_34
REMARK                            x       y       z     vdW  Elec       q    Type
REMARK                         _______ _______ _______ _____ _____    ______ ____
ROOT
ATOM      1  N   UNL     1       3.594   1.999  -0.022  0.00  0.00    -0.319 N 
ATOM      2  C   UNL     1       4.863   1.255  -0.044  0.00  0.00    +0.088 C 
ATOM      3  C   UNL     1       5.736   1.818  -1.170  0.00  0.00    -0.059 C 
ATOM      4  N   UNL     1       5.887   3.268  -0.993  0.00  0.00    +0.387 N 
ATOM      5  C   UNL     1       4.583   3.928  -1.137  0.00  0.00    -0.059 C 
ATOM      6  C   UNL     1       3.652   3.469  -0.015  0.00  0.00    +0.088 C 
ATOM      7  H   UNL     1       6.258   3.457  -0.073  0.00  0.00    -0.081 HD
ENDROOT
BRANCH   1  10
ATOM      8  C   UNL     1      -0.005   1.366   0.226  0.00  0.00    +0.017 A 
ATOM      9  C   UNL     1       1.202   2.042   0.221  0.00  0.00    +0.044 A 
ATOM     10  C   UNL     1       2.374   1.332  -0.013  0.00  0.00    +0.121 A 
ATOM     11  N   UNL     1       2.339   0.026  -0.229  0.00  0.00    -0.240 NA
ATOM     12  C   UNL     1       1.203  -0.645  -0.230  0.00  0.00    +0.125 A 
ATOM     13  C   UNL     1       0.002  -0.003  -0.004  0.00  0.00    +0.073 A 
BRANCH  13  14
ATOM     14  C   UNL     1      -1.289  -0.781  -0.007  0.00  0.00    +0.419 C 
ATOM     15  F   UNL     1      -1.816  -0.805  -1.303  0.00  0.00    -0.166 F 
ATOM     16  F   UNL     1      -1.046  -2.091   0.421  0.00  0.00    -0.166 F 
ATOM     17  F   UNL     1      -2.204  -0.170   0.858  0.00  0.00    -0.166 F 
ENDBRANCH  13  14
ENDBRANCH   1  10
BRANCH   4  18
ATOM     18  C   UNL     1       6.812   3.790  -2.007  0.00  0.00    +0.019 C 
BRANCH  18  19
ATOM     19  C   UNL     1       7.064   5.254  -1.752  0.00  0.00    +0.197 C 
ATOM     20  O   UNL     1       6.525   5.808  -0.817  0.00  0.00    -0.278 OA
ATOM     21  N   UNL     1       7.887   5.948  -2.562  0.00  0.00    -0.311 N 
ATOM     22  H   UNL     1       8.318   5.505  -3.310  0.00  0.00    +0.149 HD
BRANCH  21  23
ATOM     23  C   UNL     1       8.132   7.371  -2.314  0.00  0.00    +0.108 C 
ATOM     24  C   UNL     1       7.026   8.200  -2.970  0.00  0.00    +0.013 C 
ATOM     25  C   UNL     1       7.019   7.939  -4.478  0.00  0.00    +0.009 C 
ATOM     26  C   UNL     1       8.374   8.335  -5.070  0.00  0.00    -0.008 C 
ATOM     27  C   UNL     1       8.629   9.821  -4.810  0.00  0.00    +0.007 C 
ATOM     28  C   UNL     1       8.635  10.082  -3.303  0.00  0.00    -0.008 C 
ATOM     29  C   UNL     1       7.281   9.686  -2.711  0.00  0.00    +0.009 C 
ATOM     30  C   UNL     1       9.741   9.253  -2.646  0.00  0.00    +0.040 C 
ATOM     31  C   UNL     1       9.486   7.767  -2.906  0.00  0.00    +0.085 C 
ATOM     32  C   UNL     1       9.479   7.506  -4.413  0.00  0.00    +0.040 C 
BRANCH  31  33
ATOM     33  O   UNL     1      10.518   6.992  -2.293  0.00  0.00    -0.387 OA
ATOM     34  H   UNL     1      11.406   7.190  -2.620  0.00  0.00    +0.210 HD
ENDBRANCH  31  33
ENDBRANCH  21  23
ENDBRANCH  18  19
ENDBRANCH   4  18
TORSDOF 6
