REMARK  Name = ZINC01091226
REMARK  9 active torsions:
REMARK  status: ('A' for Active; 'I' for Inactive)
REMARK    1  A    between atoms: C_1  and  C_2
REMARK    2  A    between atoms: C_3  and  N_15
REMARK    3  A    between atoms: N_6  and  C_9
REMARK    4  A    between atoms: N_7  and  C_8
REMARK    5  A    between atoms: C_16  and  C_31
REMARK    6  A    between atoms: C_19  and  C_20
REMARK    7  A    between atoms: C_23  and  O_28
REMARK    8  A    between atoms: C_24  and  O_26
REMARK    9  A    between atoms: O_26  and  C_27
REMARK                            x       y       z     vdW  Elec       q    Type
REMARK                         _______ _______ _______ _____ _____    ______ ____
ROOT
ATOM      1  N   UNL     1       4.258  -0.167  -0.618  0.00  0.00    -0.212 N 
ATOM      2  C   UNL     1       3.082  -0.773  -0.994  0.00  0.00    +0.140 C 
ATOM      3  N   UNL     1       3.123  -2.058  -0.759  0.00  0.00    -0.226 NA
ATOM      4  C   UNL     1       4.328  -2.377  -0.206  0.00  0.00    +0.129 C 
ATOM      5  C   UNL     1       4.757  -3.629   0.183  0.00  0.00    +0.041 C 
ATOM      6  C   UNL     1       5.079  -1.113  -0.111  0.00  0.00    +0.275 C 
ATOM      7  O   UNL     1       6.204  -0.955   0.327  0.00  0.00    -0.268 OA
ENDROOT
BRANCH   1  10
ATOM      8  C   UNL     1       6.308   1.002  -2.572  0.00  0.00    +0.067 C 
ATOM      9  C   UNL     1       5.450   1.755  -1.587  0.00  0.00    +0.060 A 
ATOM     10  C   UNL     1       4.554   1.206  -0.738  0.00  0.00    +0.130 A 
ATOM     11  C   UNL     1       3.959   2.256   0.009  0.00  0.00    +0.294 A 
ATOM     12  O   UNL     1       3.103   2.132   0.866  0.00  0.00    -0.264 OA
ATOM     13  N   UNL     1       4.516   3.415  -0.399  0.00  0.00    -0.216 N 
ATOM     14  N   UNL     1       5.447   3.112  -1.401  0.00  0.00    -0.282 N 
ATOM     15  C   UNL     1       6.276   4.081  -2.123  0.00  0.00    +0.171 C 
BRANCH  13  16
ATOM     16  C   UNL     1       4.213   4.690   0.087  0.00  0.00    +0.067 A 
ATOM     17  C   UNL     1       4.188   4.926   1.456  0.00  0.00    +0.028 A 
ATOM     18  C   UNL     1       3.894   6.189   1.932  0.00  0.00    +0.002 A 
ATOM     19  C   UNL     1       3.613   7.215   1.048  0.00  0.00    +0.000 A 
ATOM     20  C   UNL     1       3.631   6.982  -0.315  0.00  0.00    +0.002 A 
ATOM     21  C   UNL     1       3.930   5.723  -0.798  0.00  0.00    +0.028 A 
ENDBRANCH  13  16
ENDBRANCH   1  10
BRANCH   5  22
ATOM     22  C   UNL     1       6.015  -3.776   0.918  0.00  0.00    -0.019 A 
ATOM     23  C   UNL     1       6.377  -2.830   1.889  0.00  0.00    +0.012 A 
ATOM     24  C   UNL     1       7.558  -2.974   2.581  0.00  0.00    +0.050 A 
ATOM     25  C   UNL     1       8.398  -4.048   2.314  0.00  0.00    +0.158 A 
ATOM     26  C   UNL     1       8.048  -4.990   1.347  0.00  0.00    +0.162 A 
ATOM     27  C   UNL     1       6.864  -4.859   0.650  0.00  0.00    +0.057 A 
BRANCH  26  28
ATOM     28  O   UNL     1       8.874  -6.039   1.090  0.00  0.00    -0.491 OA
ATOM     29  C   UNL     1       8.454  -6.966   0.087  0.00  0.00    +0.277 C 
ENDBRANCH  26  28
BRANCH  25  30
ATOM     30  O   UNL     1       9.564  -4.180   2.997  0.00  0.00    -0.503 OA
ATOM     31  H   UNL     1      10.317  -3.741   2.579  0.00  0.00    +0.292 HD
ENDBRANCH  25  30
ENDBRANCH   5  22
BRANCH   2  32
ATOM     32  C   UNL     1       1.930  -0.068  -1.591  0.00  0.00    +0.016 A 
ATOM     33  C   UNL     1       0.670  -0.671  -1.608  0.00  0.00    +0.011 A 
ATOM     34  C   UNL     1      -0.401  -0.007  -2.168  0.00  0.00    +0.001 A 
ATOM     35  C   UNL     1      -0.231   1.254  -2.711  0.00  0.00    +0.000 A 
ATOM     36  C   UNL     1       1.014   1.858  -2.697  0.00  0.00    +0.001 A 
ATOM     37  C   UNL     1       2.095   1.205  -2.141  0.00  0.00    +0.011 A 
ENDBRANCH   2  32
TORSDOF 6
