REMARK  Name = ZINC38661899
REMARK  12 active torsions:
REMARK  status: ('A' for Active; 'I' for Inactive)
REMARK    1  A    between atoms: C_1  and  C_2
REMARK    2  A    between atoms: C_7  and  C_9
REMARK    3  A    between atoms: C_7  and  C_10
REMARK    4  A    between atoms: N_11  and  C_13
REMARK    5  A    between atoms: C_13  and  C_14
REMARK    6  A    between atoms: C_14  and  C_15
REMARK    7  A    between atoms: N_17  and  C_18
REMARK    8  A    between atoms: C_22  and  O_32
REMARK    9  A    between atoms: C_26  and  C_28
REMARK   10  A    between atoms: C_28  and  O_30
REMARK   11  A    between atoms: O_30  and  C_31
REMARK   12  A    between atoms: O_32  and  C_33
REMARK                            x       y       z     vdW  Elec       q    Type
REMARK                         _______ _______ _______ _____ _____    ______ ____
ROOT
ATOM      1  C   UNL     1      -4.539  -3.631  -0.096  0.00  0.00    +0.215 C 
ATOM      2  O   UNL     1      -3.933  -4.681  -0.079  0.00  0.00    -0.276 OA
ATOM      3  N   UNL     1      -5.846  -3.603   0.233  0.00  0.00    -0.286 N 
ATOM      4  H   UNL     1      -6.318  -2.756   0.271  0.00  0.00    +0.155 HD
ENDROOT
BRANCH   3   5
ATOM      5  C   UNL     1      -6.504  -4.763   0.513  0.00  0.00    +0.053 C 
ATOM      6  C   UNL     1      -7.871  -4.943   0.613  0.00  0.00    +0.018 A 
ATOM      7  C   UNL     1      -8.963  -4.053   0.471  0.00  0.00    +0.015 A 
ATOM      8  C   UNL     1     -10.228  -4.510   0.626  0.00  0.00    +0.046 A 
ATOM      9  C   UNL     1     -10.491  -5.855   0.928  0.00  0.00    +0.122 A 
ATOM     10  C   UNL     1      -9.488  -6.764   1.078  0.00  0.00    +0.071 A 
ATOM     11  C   UNL     1      -8.141  -6.357   0.929  0.00  0.00    +0.048 A 
ATOM     12  N   UNL     1      -7.011  -7.031   1.024  0.00  0.00    -0.367 N 
ATOM     13  C   UNL     1      -5.889  -6.121   0.771  0.00  0.00    +0.234 C 
ATOM     14  H   UNL     1      -6.934  -7.977   1.224  0.00  0.00    +0.161 HD
BRANCH  13  15
ATOM     15  C   UNL     1      -4.990  -6.062   1.979  0.00  0.00    +0.335 C 
ATOM     16  O   UNL     1      -5.380  -6.480   3.043  0.00  0.00    -0.248 OA
BRANCH  15  17
ATOM     17  O   UNL     1      -3.755  -5.546   1.872  0.00  0.00    -0.466 OA
ATOM     18  C   UNL     1      -2.958  -5.522   3.057  0.00  0.00    +0.280 C 
ENDBRANCH  15  17
ENDBRANCH  13  15
BRANCH   9  19
ATOM     19  O   UNL     1     -11.777  -6.261   1.074  0.00  0.00    -0.495 OA
ATOM     20  C   UNL     1     -12.792  -5.269   0.907  0.00  0.00    +0.277 C 
ENDBRANCH   9  19
ENDBRANCH   3   5
BRANCH   1  21
ATOM     21  C   UNL     1      -3.832  -2.358  -0.484  0.00  0.00    +0.077 C 
BRANCH  21  22
ATOM     22  C   UNL     1      -2.369  -2.666  -0.808  0.00  0.00    -0.069 C 
BRANCH  22  32
ATOM     23  C   UNL     1      -0.258   1.673   0.133  0.00  0.00    +0.009 C 
ATOM     24  C   UNL     1      -0.226   0.154  -0.090  0.00  0.00    -0.048 C 
ATOM     25  C   UNL     1       0.325  -0.227  -1.492  0.00  0.00    -0.011 C 
ATOM     26  C   UNL     1      -0.293  -1.647  -1.628  0.00  0.00    -0.068 C 
ATOM     27  C   UNL     1       0.474  -2.575  -0.707  0.00  0.00    -0.009 C 
ATOM     28  C   UNL     1       0.799  -2.060   0.678  0.00  0.00    -0.036 C 
ATOM     29  C   UNL     1       0.649  -0.574   0.932  0.00  0.00    +0.011 C 
ATOM     30  C   UNL     1      -0.027  -2.837   1.720  0.00  0.00    +0.011 C 
ATOM     31  C   UNL     1       2.282  -2.419   0.960  0.00  0.00    +0.011 C 
ATOM     32  N   UNL     1      -1.685  -1.435  -1.184  0.00  0.00    +0.382 N 
ATOM     33  C   UNL     1      -1.638  -0.475  -0.065  0.00  0.00    -0.072 C 
ATOM     34  H   UNL     1      -2.201  -0.998  -1.950  0.00  0.00    -0.081 HD
ENDBRANCH  22  32
ENDBRANCH  21  22
ENDBRANCH   1  21
TORSDOF 7
