REMARK  Name = ZINC00759184
REMARK  6 active torsions:
REMARK  status: ('A' for Active; 'I' for Inactive)
REMARK    1  A    between atoms: C_1  and  C_2
REMARK    2  A    between atoms: C_3  and  C_18
REMARK    3  A    between atoms: C_4  and  C_10
REMARK    4  A    between atoms: C_18  and  O_20
REMARK    5  A    between atoms: O_20  and  C_21
REMARK    6  A    between atoms: C_21  and  C_22
REMARK                            x       y       z     vdW  Elec       q    Type
REMARK                         _______ _______ _______ _____ _____    ______ ____
ROOT
ATOM      1  C   UNL     1       3.125   6.968  -2.989  0.00  0.00    +0.061 C 
ATOM      2  C   UNL     1       2.850   6.421  -1.612  0.00  0.00    +0.021 C 
ATOM      3  C   UNL     1       2.653   5.095  -1.451  0.00  0.00    +0.078 C 
ATOM      4  C   UNL     1       2.379   4.587  -0.050  0.00  0.00    +0.144 C 
ATOM      5  N   UNL     1       2.350   5.589   1.029  0.00  0.00    -0.288 N 
ATOM      6  C   UNL     1       2.565   6.881   0.710  0.00  0.00    +0.304 C 
ATOM      7  O   UNL     1       2.544   7.715   1.594  0.00  0.00    -0.252 OA
ATOM      8  N   UNL     1       2.803   7.275  -0.547  0.00  0.00    -0.273 N 
ATOM      9  H   UNL     1       2.155   5.276   2.065  0.00  0.00    +0.151 HD
ATOM     10  H   UNL     1       2.966   8.352  -0.698  0.00  0.00    +0.156 HD
ENDROOT
BRANCH   4  11
ATOM     11  C   UNL     1       1.048   3.881  -0.064  0.00  0.00    -0.021 A 
ATOM     12  C   UNL     1      -0.124   4.613  -0.012  0.00  0.00    +0.007 A 
ATOM     13  C   UNL     1      -1.345   3.966  -0.025  0.00  0.00    +0.022 A 
ATOM     14  C   UNL     1      -1.396   2.585  -0.095  0.00  0.00    +0.059 A 
ATOM     15  C   UNL     1      -0.223   1.852  -0.142  0.00  0.00    +0.060 A 
ATOM     16  C   UNL     1       0.999   2.501  -0.130  0.00  0.00    +0.027 A 
ATOM     17 CL   UNL     1      -0.285   0.119  -0.223  0.00  0.00    -0.082 Cl
ATOM     18 CL   UNL     1      -2.930   1.773  -0.118  0.00  0.00    -0.082 Cl
ENDBRANCH   4  11
BRANCH   3  19
ATOM     19  C   UNL     1       2.701   4.210  -2.554  0.00  0.00    +0.339 C 
ATOM     20  O   UNL     1       2.817   4.649  -3.682  0.00  0.00    -0.245 OA
BRANCH  19  21
ATOM     21  O   UNL     1       2.618   2.878  -2.353  0.00  0.00    -0.461 OA
BRANCH  21  22
ATOM     22  C   UNL     1       2.674   2.043  -3.512  0.00  0.00    +0.236 C 
BRANCH  22  23
ATOM     23  C   UNL     1       2.566   0.576  -3.089  0.00  0.00    +0.027 C 
ATOM     24  C   UNL     1       3.791   0.194  -2.256  0.00  0.00    +0.007 C 
ATOM     25  C   UNL     1       3.683  -1.272  -1.833  0.00  0.00    +0.000 C 
ATOM     26  C   UNL     1       3.617  -2.158  -3.079  0.00  0.00    +0.000 C 
ATOM     27  C   UNL     1       2.392  -1.776  -3.912  0.00  0.00    +0.000 C 
ATOM     28  C   UNL     1       2.500  -0.310  -4.335  0.00  0.00    +0.007 C 
ENDBRANCH  22  23
ENDBRANCH  21  22
ENDBRANCH  19  21
ENDBRANCH   3  19
TORSDOF 5
