REMARK  Name = ZINC33719598
REMARK  7 active torsions:
REMARK  status: ('A' for Active; 'I' for Inactive)
REMARK    1  A    between atoms: C_6  and  C_7
REMARK    2  A    between atoms: C_7  and  N_8
REMARK    3  A    between atoms: N_8  and  C_9
REMARK    4  A    between atoms: N_8  and  C_17
REMARK    5  A    between atoms: C_9  and  C_10
REMARK    6  A    between atoms: C_17  and  N_19
REMARK    7  A    between atoms: N_19  and  C_20
REMARK                            x       y       z     vdW  Elec       q    Type
REMARK                         _______ _______ _______ _____ _____    ______ ____
ROOT
ATOM      1  N   UNL     1      -1.727  -1.016  -1.368  0.00  0.00    -0.308 N 
ENDROOT
BRANCH   1   2
ATOM      2  C   UNL     1      -2.522  -0.123  -1.991  0.00  0.00    +0.133 C 
ATOM      3  S   UNL     1      -3.026   1.293  -1.172  0.00  0.00    -0.019 S 
BRANCH   2   4
ATOM      4  N   UNL     1      -2.920  -0.346  -3.259  0.00  0.00    -0.324 N 
ATOM      5  H   UNL     1      -2.635  -1.148  -3.724  0.00  0.00    +0.148 HD
BRANCH   4   6
ATOM      6  C   UNL     1      -3.784   0.624  -3.937  0.00  0.00    +0.072 C 
ATOM      7  C   UNL     1      -5.246   0.371  -3.514  0.00  0.00    +0.022 C 
ATOM      8  C   UNL     1      -6.042   1.621  -3.773  0.00  0.00    +0.002 C 
ATOM      9  C   UNL     1      -6.737   1.604  -5.148  0.00  0.00    +0.000 C 
ATOM     10  C   UNL     1      -5.837   1.041  -6.265  0.00  0.00    +0.000 C 
ATOM     11  C   UNL     1      -4.420   1.536  -6.167  0.00  0.00    +0.002 C 
ATOM     12  C   UNL     1      -3.594   0.502  -5.374  0.00  0.00    +0.022 C 
ENDBRANCH   4   6
ENDBRANCH   2   4
ENDBRANCH   1   2
BRANCH   1  13
ATOM     13  C   UNL     1      -1.294  -0.774   0.010  0.00  0.00    +0.142 C 
BRANCH  13  19
ATOM     14  C   UNL     1      -0.017   1.378   0.010  0.00  0.00    +0.009 A 
ATOM     15  C   UNL     1       1.170   2.088   0.002  0.00  0.00    +0.050 A 
ATOM     16  C   UNL     1       2.380   1.416  -0.013  0.00  0.00    +0.166 A 
ATOM     17  C   UNL     1       2.399   0.023  -0.021  0.00  0.00    +0.167 A 
ATOM     18  C   UNL     1       1.207  -0.682  -0.014  0.00  0.00    +0.054 A 
ATOM     19  C   UNL     1       0.002  -0.004   0.002  0.00  0.00    -0.026 A 
ATOM     20  O   UNL     1       3.698  -0.395  -0.036  0.00  0.00    -0.453 OA
ATOM     21  C   UNL     1       4.466   0.750  -0.450  0.00  0.00    +0.466 C 
ATOM     22  O   UNL     1       3.668   1.870  -0.024  0.00  0.00    -0.453 OA
ENDBRANCH  13  19
ENDBRANCH   1  13
BRANCH   1  23
ATOM     23  C   UNL     1      -1.295  -2.227  -2.070  0.00  0.00    +0.111 C 
BRANCH  23  24
ATOM     24  C   UNL     1      -2.310  -3.346  -1.825  0.00  0.00    +0.010 C 
ATOM     25  C   UNL     1      -1.806  -4.647  -2.462  0.00  0.00    +0.009 C 
ATOM     26  C   UNL     1      -2.746  -5.783  -2.052  0.00  0.00    +0.027 C 
ATOM     27  C   UNL     1      -4.173  -5.386  -2.294  0.00  0.00    -0.031 C 
ATOM     28  C   UNL     1      -4.565  -4.165  -2.472  0.00  0.00    -0.031 C 
ATOM     29  C   UNL     1      -3.649  -2.976  -2.467  0.00  0.00    +0.032 C 
ENDBRANCH  23  24
ENDBRANCH   1  23
TORSDOF 7
