REMARK  Name = ZINC06743278
REMARK  9 active torsions:
REMARK  status: ('A' for Active; 'I' for Inactive)
REMARK    1  A    between atoms: C_1  and  C_2
REMARK    2  A    between atoms: C_4  and  C_31
REMARK    3  A    between atoms: C_5  and  C_9
REMARK    4  A    between atoms: C_6  and  O_8
REMARK    5  A    between atoms: N_17  and  C_28
REMARK    6  A    between atoms: C_18  and  C_20
REMARK    7  A    between atoms: C_23  and  O_26
REMARK    8  A    between atoms: O_26  and  C_27
REMARK    9  A    between atoms: C_28  and  C_29
REMARK                            x       y       z     vdW  Elec       q    Type
REMARK                         _______ _______ _______ _____ _____    ______ ____
ROOT
ATOM      1  C   UNL     1      -0.230  -4.713  -0.111  0.00  0.00    +0.102 A 
ATOM      2  C   UNL     1       0.044  -5.348   1.105  0.00  0.00    +0.035 A 
ATOM      3  C   UNL     1       0.104  -6.698   0.820  0.00  0.00    +0.126 A 
ATOM      4  N   UNL     1      -0.131  -6.814  -0.521  0.00  0.00    -0.272 N 
ATOM      5  H   UNL     1      -0.151  -7.650  -1.013  0.00  0.00    +0.189 HD
ATOM      6  N   UNL     1      -0.326  -5.651  -1.033  0.00  0.00    -0.173 NA
ATOM      7  C   UNL     1       0.389  -7.425   2.062  0.00  0.00    +0.266 C 
ATOM      8  O   UNL     1       0.504  -8.633   2.149  0.00  0.00    -0.268 OA
ATOM      9  N   UNL     1       0.505  -6.567   3.091  0.00  0.00    -0.281 N 
ATOM     10  C   UNL     1       0.300  -5.205   2.580  0.00  0.00    +0.142 C 
ENDROOT
BRANCH   1  15
ATOM     11  C   UNL     1      -0.854   0.956  -0.939  0.00  0.00    +0.044 C 
ATOM     12  C   UNL     1      -0.688  -0.526  -0.721  0.00  0.00    -0.047 A 
ATOM     13  C   UNL     1      -1.619  -1.407  -1.242  0.00  0.00    +0.007 A 
ATOM     14  C   UNL     1      -1.475  -2.766  -1.047  0.00  0.00    -0.037 A 
ATOM     15  C   UNL     1      -0.389  -3.253  -0.324  0.00  0.00    +0.047 A 
ATOM     16  C   UNL     1       0.550  -2.361   0.201  0.00  0.00    +0.127 A 
ATOM     17  C   UNL     1       0.397  -0.999  -0.007  0.00  0.00    +0.049 A 
ATOM     18  C   UNL     1      -2.492  -3.721  -1.616  0.00  0.00    +0.044 C 
BRANCH  16  19
ATOM     19  O   UNL     1       1.613  -2.827   0.907  0.00  0.00    -0.506 OA
ATOM     20  H   UNL     1       2.414  -2.946   0.380  0.00  0.00    +0.292 HD
ENDBRANCH  16  19
ENDBRANCH   1  15
BRANCH  10  21
ATOM     21  C   UNL     1      -0.889  -4.572   3.255  0.00  0.00    -0.022 A 
ATOM     22  C   UNL     1      -2.044  -5.307   3.450  0.00  0.00    +0.009 A 
ATOM     23  C   UNL     1      -3.136  -4.729   4.067  0.00  0.00    +0.046 A 
ATOM     24  C   UNL     1      -3.073  -3.410   4.493  0.00  0.00    +0.120 A 
ATOM     25  C   UNL     1      -1.913  -2.675   4.296  0.00  0.00    +0.046 A 
ATOM     26  C   UNL     1      -0.822  -3.259   3.683  0.00  0.00    +0.009 A 
BRANCH  24  27
ATOM     27  O   UNL     1      -4.146  -2.839   5.100  0.00  0.00    -0.495 OA
ATOM     28  C   UNL     1      -4.011  -1.477   5.511  0.00  0.00    +0.277 C 
ENDBRANCH  24  27
ENDBRANCH  10  21
BRANCH   9  29
ATOM     29  C   UNL     1       0.786  -6.928   4.483  0.00  0.00    +0.135 C 
BRANCH  29  30
ATOM     30  C   UNL     1       2.276  -6.938   4.708  0.00  0.00    -0.016 C 
ATOM     31  C   UNL     1       2.798  -6.213   5.667  0.00  0.00    +0.005 C 
ENDBRANCH  29  30
ENDBRANCH   9  29
TORSDOF 6
