REMARK  Name = ZINC37294952
REMARK  6 active torsions:
REMARK  status: ('A' for Active; 'I' for Inactive)
REMARK    1  A    between atoms: C_1  and  C_2
REMARK    2  A    between atoms: C_6  and  C_21
REMARK    3  A    between atoms: C_8  and  N_11
REMARK    4  A    between atoms: N_11  and  C_12
REMARK    5  A    between atoms: C_21  and  C_22
REMARK    6  A    between atoms: C_21  and  C_23
REMARK                            x       y       z     vdW  Elec       q    Type
REMARK                         _______ _______ _______ _____ _____    ______ ____
ROOT
ATOM      1  N   UNL     1      -0.605  -2.551   1.249  0.00  0.00    +0.383 N 
ATOM      2  H   UNL     1      -1.184  -2.166   0.518  0.00  0.00    -0.085 HD
ATOM      3  H   UNL     1      -0.515  -3.547   1.117  0.00  0.00    -0.085 HD
ENDROOT
BRANCH   1   4
ATOM      4  C   UNL     1      -1.221  -2.282   2.555  0.00  0.00    -0.069 C 
ATOM      5  C   UNL     1      -2.655  -2.816   2.561  0.00  0.00    +0.003 C 
ATOM      6  C   UNL     1      -3.306  -2.503   3.912  0.00  0.00    +0.108 C 
ATOM      7  N   UNL     1      -2.457  -3.043   4.982  0.00  0.00    -0.286 N 
ATOM      8  C   UNL     1      -1.037  -2.666   5.016  0.00  0.00    +0.108 C 
ATOM      9  C   UNL     1      -0.412  -2.976   3.653  0.00  0.00    +0.003 C 
ATOM     10  C   UNL     1      -2.970  -3.869   5.916  0.00  0.00    +0.300 C 
ATOM     11  O   UNL     1      -4.124  -4.242   5.829  0.00  0.00    -0.253 OA
ATOM     12  N   UNL     1      -2.204  -4.282   6.945  0.00  0.00    -0.313 N 
ATOM     13  H   UNL     1      -1.264  -4.044   6.976  0.00  0.00    +0.146 HD
ATOM     14  H   UNL     1      -2.592  -4.817   7.655  0.00  0.00    +0.146 HD
ENDBRANCH   1   4
BRANCH   1  20
ATOM     15  C   UNL     1      -0.407   1.612   0.194  0.00  0.00    +0.007 C 
ATOM     16  C   UNL     1      -0.262   0.091   0.108  0.00  0.00    -0.016 C 
ATOM     17  C   UNL     1       0.425  -0.282  -1.207  0.00  0.00    +0.003 C 
ATOM     18  C   UNL     1       0.570  -1.802  -1.293  0.00  0.00    +0.002 C 
ATOM     19  C   UNL     1       1.413  -2.302  -0.118  0.00  0.00    -0.022 C 
ATOM     20  C   UNL     1       0.725  -1.929   1.197  0.00  0.00    -0.068 C 
ATOM     21  C   UNL     1       0.580  -0.408   1.283  0.00  0.00    -0.012 C 
BRANCH  19  22
ATOM     22  C   UNL     1       1.558  -3.823  -0.204  0.00  0.00    -0.016 C 
ATOM     23  C   UNL     1       2.245  -4.196  -1.518  0.00  0.00    +0.007 C 
ATOM     24  C   UNL     1       2.400  -4.322   0.972  0.00  0.00    +0.007 C 
ENDBRANCH  19  22
ENDBRANCH   1  20
TORSDOF 3
