REMARK  Name = ZINC39929438
REMARK  7 active torsions:
REMARK  status: ('A' for Active; 'I' for Inactive)
REMARK    1  A    between atoms: N_9  and  C_27
REMARK    2  A    between atoms: C_14  and  N_24
REMARK    3  A    between atoms: C_15  and  N_16
REMARK    4  A    between atoms: N_16  and  C_17
REMARK    5  A    between atoms: C_27  and  C_28
REMARK    6  A    between atoms: C_28  and  C_29
REMARK    7  A    between atoms: C_29  and  O_30
REMARK                            x       y       z     vdW  Elec       q    Type
REMARK                         _______ _______ _______ _____ _____    ______ ____
ROOT
ATOM      1  C   UNL     1       1.710   1.383  -3.184  0.00  0.00    +0.001 A 
ATOM      2  C   UNL     1       2.304   2.118  -2.182  0.00  0.00    +0.010 A 
ATOM      3  C   UNL     1       2.886   1.466  -1.086  0.00  0.00    +0.007 A 
ATOM      4  C   UNL     1       2.851   0.058  -1.030  0.00  0.00    +0.008 A 
ATOM      5  C   UNL     1       2.237  -0.681  -2.066  0.00  0.00    +0.046 A 
ATOM      6  C   UNL     1       1.671  -0.003  -3.138  0.00  0.00    +0.014 A 
ATOM      7  C   UNL     1       2.221  -2.147  -1.973  0.00  0.00    +0.254 C 
ATOM      8  O   UNL     1       1.699  -2.804  -2.853  0.00  0.00    -0.270 OA
ATOM      9  N   UNL     1       2.783  -2.768  -0.918  0.00  0.00    -0.234 N 
ATOM     10  C   UNL     1       3.374  -2.093   0.085  0.00  0.00    +0.254 C 
ATOM     11  O   UNL     1       3.867  -2.702   1.016  0.00  0.00    -0.270 OA
ATOM     12  C   UNL     1       3.431  -0.628   0.063  0.00  0.00    +0.048 A 
ATOM     13  C   UNL     1       4.036   0.102   1.083  0.00  0.00    +0.048 A 
ATOM     14  C   UNL     1       4.070   1.483   1.028  0.00  0.00    +0.149 A 
ATOM     15  C   UNL     1       3.508   2.178  -0.033  0.00  0.00    +0.070 A 
ENDROOT
BRANCH  14  16
ATOM     16  N   UNL     1       4.719   2.236   2.125  0.00  0.00    +0.058 N 
ATOM     17  O   UNL     1       5.122   1.652   3.104  0.00  0.00    -0.126 OA
ATOM     18  O   UNL     1       4.845   3.436   2.043  0.00  0.00    -0.126 OA
ENDBRANCH  14  16
BRANCH  15  19
ATOM     19  N   UNL     1       3.557   3.559  -0.063  0.00  0.00    -0.312 N 
ATOM     20  H   UNL     1       4.330   4.009  -0.437  0.00  0.00    +0.152 HD
BRANCH  19  21
ATOM     21  C   UNL     1       2.492   4.307   0.447  0.00  0.00    +0.031 A 
ATOM     22  C   UNL     1       1.445   3.671   1.101  0.00  0.00    +0.024 A 
ATOM     23  C   UNL     1       0.395   4.413   1.604  0.00  0.00    +0.017 A 
ATOM     24  C   UNL     1       0.384   5.789   1.456  0.00  0.00    +0.018 A 
ATOM     25  C   UNL     1       1.425   6.425   0.804  0.00  0.00    +0.017 A 
ATOM     26  C   UNL     1       2.481   5.689   0.304  0.00  0.00    +0.024 A 
ATOM     27 BR   UNL     1      -1.056   6.801   2.146  0.00  0.00    -0.050 Br
ENDBRANCH  19  21
ENDBRANCH  15  19
BRANCH   9  28
ATOM     28  C   UNL     1       2.747  -4.231  -0.859  0.00  0.00    +0.119 C 
BRANCH  28  29
ATOM     29  C   UNL     1       3.993  -4.799  -1.542  0.00  0.00    +0.047 C 
BRANCH  29  30
ATOM     30  C   UNL     1       3.956  -6.327  -1.480  0.00  0.00    +0.157 C 
BRANCH  30  31
ATOM     31  O   UNL     1       5.120  -6.858  -2.119  0.00  0.00    -0.395 OA
ATOM     32  H   UNL     1       5.163  -7.824  -2.117  0.00  0.00    +0.209 HD
ENDBRANCH  30  31
ENDBRANCH  29  30
ENDBRANCH  28  29
ENDBRANCH   9  28
TORSDOF 7
