REMARK  Name = ZINC34907197
REMARK  4 active torsions:
REMARK  status: ('A' for Active; 'I' for Inactive)
REMARK    1  A    between atoms: N_9  and  C_10
REMARK    2  A    between atoms: C_18  and  N_21
REMARK    3  A    between atoms: C_22  and  C_24
REMARK    4  A    between atoms: C_24  and  C_25
REMARK                            x       y       z     vdW  Elec       q    Type
REMARK                         _______ _______ _______ _____ _____    ______ ____
ROOT
ATOM      1  C   UNL     1      -0.196   1.193  -0.024  0.00  0.00    +0.002 A 
ATOM      2  C   UNL     1       0.931   1.999  -0.065  0.00  0.00    +0.002 A 
ATOM      3  C   UNL     1       2.192   1.438  -0.079  0.00  0.00    +0.028 A 
ATOM      4  C   UNL     1       2.333   0.059  -0.052  0.00  0.00    +0.068 A 
ATOM      5  C   UNL     1       1.195  -0.762  -0.011  0.00  0.00    +0.065 A 
ATOM      6  C   UNL     1      -0.074  -0.178   0.003  0.00  0.00    +0.028 A 
ATOM      7  N   UNL     1       1.631  -2.049   0.008  0.00  0.00    -0.327 N 
ATOM      8  C   UNL     1       2.940  -2.071  -0.019  0.00  0.00    +0.177 A 
ATOM      9  N   UNL     1       3.424  -0.795  -0.056  0.00  0.00    -0.310 N 
ATOM     10  N   UNL     1       3.714  -3.212  -0.010  0.00  0.00    -0.301 N 
ATOM     11  C   UNL     1       3.208  -4.592   0.102  0.00  0.00    +0.110 C 
ATOM     12  C   UNL     1       4.309  -5.471  -0.543  0.00  0.00    +0.043 C 
ATOM     13  C   UNL     1       5.599  -4.739  -0.087  0.00  0.00    +0.092 C 
ATOM     14  C   UNL     1       5.180  -3.254  -0.118  0.00  0.00    +0.130 C 
ATOM     15  H   UNL     1       1.059  -2.833   0.037  0.00  0.00    +0.169 HD
ENDROOT
BRANCH   9  16
ATOM     16  C   UNL     1       4.835  -0.402  -0.095  0.00  0.00    +0.090 C 
ATOM     17  C   UNL     1       5.193   0.408   1.169  0.00  0.00    +0.025 C 
ATOM     18  C   UNL     1       6.182   1.486   0.662  0.00  0.00    +0.002 C 
ATOM     19  C   UNL     1       5.597   1.863  -0.722  0.00  0.00    +0.002 C 
ATOM     20  C   UNL     1       5.092   0.524  -1.297  0.00  0.00    +0.025 C 
ENDBRANCH   9  16
BRANCH  13  21
ATOM     21  N   UNL     1       6.695  -4.988  -1.027  0.00  0.00    -0.311 N 
ATOM     22  C   UNL     1       7.471  -6.081  -0.883  0.00  0.00    +0.218 C 
ATOM     23  O   UNL     1       7.261  -6.858   0.024  0.00  0.00    -0.275 OA
ATOM     24  H   UNL     1       6.863  -4.366  -1.752  0.00  0.00    +0.149 HD
BRANCH  22  25
ATOM     25  C   UNL     1       8.598  -6.337  -1.850  0.00  0.00    +0.138 C 
BRANCH  25  26
ATOM     26  C   UNL     1       9.304  -7.613  -1.471  0.00  0.00    -0.001 A 
ATOM     27  C   UNL     1       9.054  -8.881  -1.880  0.00  0.00    +0.011 A 
ATOM     28  C   UNL     1       9.840  -9.909  -1.396  0.00  0.00    +0.008 A 
ATOM     29  C   UNL     1      10.840  -9.619  -0.527  0.00  0.00    +0.045 A 
ATOM     30  S   UNL     1      10.693  -7.847  -0.374  0.00  0.00    -0.101 S 
ENDBRANCH  25  26
ENDBRANCH  22  25
ENDBRANCH  13  21
TORSDOF 4
