REMARK  Name = ZINC42270174
REMARK  10 active torsions:
REMARK  status: ('A' for Active; 'I' for Inactive)
REMARK    1  A    between atoms: C_1  and  C_2
REMARK    2  A    between atoms: C_2  and  C_3
REMARK    3  A    between atoms: C_2  and  C_4
REMARK    4  A    between atoms: C_4  and  N_5
REMARK    5  A    between atoms: N_5  and  C_6
REMARK    6  A    between atoms: N_5  and  S_9
REMARK    7  A    between atoms: C_6  and  C_7
REMARK    8  A    between atoms: C_6  and  C_8
REMARK    9  A    between atoms: S_9  and  C_12
REMARK   10  A    between atoms: C_13  and  N_20
REMARK                            x       y       z     vdW  Elec       q    Type
REMARK                         _______ _______ _______ _____ _____    ______ ____
ROOT
ATOM      1  S   UNL     1      -2.740   1.395  -1.248  0.00  0.00    +0.064 S 
ATOM      2  O   UNL     1      -3.707   1.303  -2.285  0.00  0.00    -0.153 OA
ATOM      3  O   UNL     1      -3.067   1.842   0.061  0.00  0.00    -0.153 OA
ENDROOT
BRANCH   1   4
ATOM      4  C   UNL     1      -1.466   2.459  -1.840  0.00  0.00    +0.144 A 
ATOM      5  C   UNL     1      -0.548   3.006  -0.952  0.00  0.00    +0.054 A 
ATOM      6  C   UNL     1       0.455   3.843  -1.422  0.00  0.00    +0.044 A 
ATOM      7  C   UNL     1       0.537   4.131  -2.772  0.00  0.00    +0.044 A 
ATOM      8  C   UNL     1      -0.378   3.585  -3.654  0.00  0.00    +0.042 A 
ATOM      9  C   UNL     1      -1.375   2.745  -3.189  0.00  0.00    +0.070 A 
ATOM     10 CL   UNL     1      -2.517   2.057  -4.301  0.00  0.00    -0.081 Cl
ATOM     11 CL   UNL     1       1.790   5.178  -3.360  0.00  0.00    -0.083 Cl
BRANCH   5  12
ATOM     12  N   UNL     1      -0.635   2.714   0.411  0.00  0.00    -0.356 N 
ATOM     13  H   UNL     1      -1.259   2.041   0.725  0.00  0.00    +0.142 HD
ATOM     14  H   UNL     1      -0.070   3.184   1.044  0.00  0.00    +0.142 HD
ENDBRANCH   5  12
ENDBRANCH   1   4
BRANCH   1  15
ATOM     15  N   UNL     1      -2.079  -0.115  -1.082  0.00  0.00    -0.174 NA
BRANCH  15  16
ATOM     16  C   UNL     1      -1.973  -1.000  -2.244  0.00  0.00    +0.074 C 
ATOM     17  C   UNL     1      -0.497  -1.256  -2.556  0.00  0.00    +0.025 C 
ATOM     18  C   UNL     1      -2.668  -2.328  -1.940  0.00  0.00    +0.025 C 
ENDBRANCH  15  16
BRANCH  15  19
ATOM     19  C   UNL     1      -1.602  -0.565   0.228  0.00  0.00    +0.112 C 
BRANCH  19  21
ATOM     20  C   UNL     1      -3.702  -1.841   0.676  0.00  0.00    +0.008 C 
ATOM     21  C   UNL     1      -2.790  -0.720   1.178  0.00  0.00    -0.001 C 
ATOM     22  C   UNL     1      -2.281  -1.066   2.579  0.00  0.00    +0.008 C 
ENDBRANCH  19  21
ENDBRANCH  15  19
ENDBRANCH   1  15
TORSDOF 6
