REMARK  Name = ZINC38683829
REMARK  15 active torsions:
REMARK  status: ('A' for Active; 'I' for Inactive)
REMARK    1  A    between atoms: C_1  and  C_2
REMARK    2  A    between atoms: C_2  and  C_3
REMARK    3  A    between atoms: C_3  and  O_4
REMARK    4  A    between atoms: O_4  and  C_5
REMARK    5  A    between atoms: C_8  and  C_14
REMARK    6  A    between atoms: C_10  and  O_11
REMARK    7  A    between atoms: O_11  and  C_12
REMARK    8  A    between atoms: C_12  and  C_13
REMARK    9  A    between atoms: C_19  and  O_28
REMARK   10  A    between atoms: C_23  and  N_27
REMARK   11  A    between atoms: C_24  and  C_25
REMARK   12  A    between atoms: O_28  and  C_29
REMARK   13  A    between atoms: C_29  and  C_31
REMARK   14  A    between atoms: C_32  and  C_33
REMARK   15  A    between atoms: C_36  and  C_39
REMARK                            x       y       z     vdW  Elec       q    Type
REMARK                         _______ _______ _______ _____ _____    ______ ____
ROOT
ATOM      1  C   UNL     1       3.366  -4.541   5.521  0.00  0.00    +0.098 C 
ATOM      2  C   UNL     1       4.805  -4.098   5.564  0.00  0.00    +0.008 A 
ATOM      3  C   UNL     1       5.727  -4.699   4.726  0.00  0.00    +0.012 A 
ATOM      4  C   UNL     1       7.051  -4.306   4.751  0.00  0.00    +0.047 A 
ATOM      5  C   UNL     1       7.460  -3.303   5.620  0.00  0.00    +0.135 A 
ATOM      6  C   UNL     1       6.539  -2.698   6.459  0.00  0.00    +0.093 A 
ATOM      7  C   UNL     1       5.208  -3.095   6.432  0.00  0.00    +0.138 A 
ATOM      8  O   UNL     1       4.319  -2.493   7.260  0.00  0.00    -0.441 OA
ATOM      9  C   UNL     1       3.150  -3.094   7.538  0.00  0.00    +0.199 C 
ATOM     10  C   UNL     1       2.645  -4.070   6.753  0.00  0.00    +0.098 C 
ENDROOT
BRANCH   1  14
ATOM     11  C   UNL     1       1.480  -2.889   2.057  0.00  0.00    +0.162 A 
ATOM     12  C   UNL     1       2.021  -2.052   3.020  0.00  0.00    +0.050 A 
ATOM     13  C   UNL     1       2.630  -2.589   4.139  0.00  0.00    +0.008 A 
ATOM     14  C   UNL     1       2.701  -3.961   4.300  0.00  0.00    -0.031 A 
ATOM     15  C   UNL     1       2.163  -4.801   3.343  0.00  0.00    +0.054 A 
ATOM     16  C   UNL     1       1.546  -4.269   2.222  0.00  0.00    +0.162 A 
BRANCH  11  17
ATOM     17  O   UNL     1       0.880  -2.362   0.957  0.00  0.00    -0.488 OA
BRANCH  17  18
ATOM     18  C   UNL     1       0.849  -0.937   0.854  0.00  0.00    +0.229 C 
BRANCH  18  20
ATOM     19  C   UNL     1       0.106   0.992  -0.550  0.00  0.00    +0.007 C 
ATOM     20  C   UNL     1       0.139  -0.534  -0.441  0.00  0.00    +0.038 C 
ENDBRANCH  18  20
ENDBRANCH  17  18
ENDBRANCH  11  17
BRANCH  16  21
ATOM     21  O   UNL     1       1.011  -5.094   1.283  0.00  0.00    -0.489 OA
BRANCH  21  22
ATOM     22  C   UNL     1       1.116  -6.499   1.518  0.00  0.00    +0.226 C 
ATOM     23  C   UNL     1       0.462  -7.260   0.363  0.00  0.00    +0.048 C 
ENDBRANCH  21  22
ENDBRANCH  16  21
ENDBRANCH   1  14
BRANCH   9  24
ATOM     24  N   UNL     1       2.448  -2.703   8.652  0.00  0.00    -0.328 N 
ATOM     25  H   UNL     1       2.799  -2.003   9.225  0.00  0.00    +0.145 HD
ATOM     26  H   UNL     1       1.603  -3.127   8.866  0.00  0.00    +0.145 HD
ENDBRANCH   9  24
BRANCH  10  27
ATOM     27  C   UNL     1       1.392  -4.669   7.103  0.00  0.00    +0.101 C 
ATOM     28  N   UNL     1       0.398  -5.144   7.382  0.00  0.00    -0.191 NA
ENDBRANCH  10  27
BRANCH   5  29
ATOM     29  O   UNL     1       8.762  -2.916   5.646  0.00  0.00    -0.423 OA
BRANCH  29  30
ATOM     30  C   UNL     1       9.248  -2.253   4.576  0.00  0.00    +0.337 C 
ATOM     31  O   UNL     1       8.502  -1.927   3.672  0.00  0.00    -0.245 OA
BRANCH  30  32
ATOM     32  C   UNL     1      10.671  -1.926   4.503  0.00  0.00    +0.092 C 
ATOM     33  C   UNL     1      11.157  -1.263   3.433  0.00  0.00    +0.015 C 
BRANCH  33  34
ATOM     34  C   UNL     1      12.590  -0.934   3.359  0.00  0.00    -0.025 A 
ATOM     35  C   UNL     1      13.452  -1.312   4.394  0.00  0.00    +0.008 A 
ATOM     36  C   UNL     1      14.793  -1.000   4.317  0.00  0.00    +0.004 A 
ATOM     37  C   UNL     1      15.286  -0.315   3.220  0.00  0.00    -0.050 A 
ATOM     38  C   UNL     1      14.439   0.063   2.193  0.00  0.00    +0.004 A 
ATOM     39  C   UNL     1      13.097  -0.247   2.252  0.00  0.00    +0.008 A 
ATOM     40  C   UNL     1      16.753   0.022   3.145  0.00  0.00    +0.044 C 
ENDBRANCH  33  34
ENDBRANCH  30  32
ENDBRANCH  29  30
ENDBRANCH   5  29
TORSDOF 12
