REMARK  Name = ZINC38971464
REMARK  6 active torsions:
REMARK  status: ('A' for Active; 'I' for Inactive)
REMARK    1  A    between atoms: C_1  and  C_2
REMARK    2  A    between atoms: C_6  and  S_8
REMARK    3  A    between atoms: S_8  and  N_11
REMARK    4  A    between atoms: C_13  and  N_23
REMARK    5  A    between atoms: N_23  and  C_24
REMARK    6  A    between atoms: C_29  and  C_30
REMARK                            x       y       z     vdW  Elec       q    Type
REMARK                         _______ _______ _______ _____ _____    ______ ____
ROOT
ATOM      1  N   UNL     1       1.672  -2.769   3.015  0.00  0.00    -0.110 NA
ATOM      2  C   UNL     1       1.889  -3.585   4.004  0.00  0.00    +0.192 C 
ATOM      3  C   UNL     1       3.301  -3.960   4.393  0.00  0.00    +0.237 C 
ATOM      4  N   UNL     1       3.479  -4.887   5.521  0.00  0.00    -0.359 N 
ATOM      5  C   UNL     1       2.417  -5.339   6.129  0.00  0.00    +0.063 A 
ATOM      6  C   UNL     1       2.541  -6.268   7.263  0.00  0.00    +0.027 A 
ATOM      7  C   UNL     1       1.418  -6.713   7.867  0.00  0.00    +0.002 A 
ATOM      8  C   UNL     1       0.141  -6.313   7.441  0.00  0.00    +0.002 A 
ATOM      9  C   UNL     1      -0.052  -5.463   6.409  0.00  0.00    +0.030 A 
ATOM     10  C   UNL     1       1.056  -4.933   5.701  0.00  0.00    +0.089 A 
ATOM     11  N   UNL     1       0.863  -4.101   4.698  0.00  0.00    -0.226 NA
ATOM     12  H   UNL     1       4.366  -5.157   5.807  0.00  0.00    +0.162 HD
ENDROOT
BRANCH   1  13
ATOM     13  S   UNL     1       0.121  -2.360   2.603  0.00  0.00    +0.100 S 
ATOM     14  O   UNL     1      -0.406  -1.616   3.693  0.00  0.00    -0.146 OA
ATOM     15  O   UNL     1      -0.497  -3.546   2.121  0.00  0.00    -0.146 OA
BRANCH  13  21
ATOM     16  C   UNL     1       0.465   2.465   0.623  0.00  0.00    +0.044 C 
ATOM     17  C   UNL     1       0.376   0.980   0.384  0.00  0.00    -0.049 A 
ATOM     18  C   UNL     1       0.371   0.486  -0.907  0.00  0.00    +0.003 A 
ATOM     19  C   UNL     1       0.290  -0.876  -1.127  0.00  0.00    +0.002 A 
ATOM     20  C   UNL     1       0.213  -1.745  -0.054  0.00  0.00    +0.029 A 
ATOM     21  C   UNL     1       0.219  -1.252   1.237  0.00  0.00    +0.113 A 
ATOM     22  C   UNL     1       0.305   0.110   1.456  0.00  0.00    +0.032 A 
ENDBRANCH  13  21
ENDBRANCH   1  13
BRANCH   3  23
ATOM     23  N   UNL     1       4.020  -2.725   4.713  0.00  0.00    -0.318 N 
ATOM     24  H   UNL     1       3.593  -2.040   5.250  0.00  0.00    +0.148 HD
BRANCH  23  25
ATOM     25  C   UNL     1       5.322  -2.533   4.242  0.00  0.00    +0.032 A 
ATOM     26  C   UNL     1       5.983  -3.562   3.583  0.00  0.00    +0.024 A 
ATOM     27  C   UNL     1       7.269  -3.369   3.119  0.00  0.00    +0.017 A 
ATOM     28  C   UNL     1       7.900  -2.152   3.311  0.00  0.00    +0.018 A 
ATOM     29  C   UNL     1       7.244  -1.125   3.967  0.00  0.00    +0.020 A 
ATOM     30  C   UNL     1       5.955  -1.311   4.428  0.00  0.00    -0.029 A 
ATOM     31  C   UNL     1       5.240  -0.190   5.137  0.00  0.00    +0.046 C 
ATOM     32 BR   UNL     1       9.661  -1.892   2.674  0.00  0.00    -0.050 Br
ENDBRANCH  23  25
ENDBRANCH   3  23
TORSDOF 4
