REMARK  Name = ZINC05236854
REMARK  9 active torsions:
REMARK  status: ('A' for Active; 'I' for Inactive)
REMARK    1  A    between atoms: C_1  and  O_2
REMARK    2  A    between atoms: O_2  and  C_3
REMARK    3  A    between atoms: C_7  and  C_19
REMARK    4  A    between atoms: C_8  and  O_9
REMARK    5  A    between atoms: O_9  and  C_10
REMARK    6  A    between atoms: C_10  and  C_11
REMARK    7  A    between atoms: N_20  and  N_21
REMARK    8  A    between atoms: N_21  and  C_22
REMARK    9  A    between atoms: C_22  and  N_24
REMARK                            x       y       z     vdW  Elec       q    Type
REMARK                         _______ _______ _______ _____ _____    ______ ____
ROOT
ATOM      1  C   UNL     1      -3.766  -1.618  -1.488  0.00  0.00    +0.162 A 
ATOM      2  C   UNL     1      -4.854  -2.469  -1.608  0.00  0.00    +0.049 A 
ATOM      3  C   UNL     1      -5.503  -2.936  -0.478  0.00  0.00    +0.004 A 
ATOM      4  C   UNL     1      -5.072  -2.560   0.777  0.00  0.00    +0.013 A 
ATOM      5  C   UNL     1      -3.974  -1.707   0.913  0.00  0.00    +0.040 A 
ATOM      6  C   UNL     1      -3.321  -1.231  -0.231  0.00  0.00    +0.171 A 
ENDROOT
BRANCH   1   8
ATOM      7  C   UNL     1      -3.643  -1.603  -3.864  0.00  0.00    +0.277 C 
ATOM      8  O   UNL     1      -3.133  -1.163  -2.603  0.00  0.00    -0.491 OA
ENDBRANCH   1   8
BRANCH   5   9
ATOM      9  C   UNL     1      -3.508  -1.307   2.253  0.00  0.00    +0.142 C 
ATOM     10  N   UNL     1      -4.178  -1.663   3.306  0.00  0.00    -0.188 NA
BRANCH  10  11
ATOM     11  N   UNL     1      -3.796  -1.195   4.570  0.00  0.00    -0.219 N 
ATOM     12  H   UNL     1      -2.980  -0.463   4.662  0.00  0.00    +0.176 HD
BRANCH  11  13
ATOM     13  C   UNL     1      -4.427  -1.643   5.673  0.00  0.00    +0.147 C 
ATOM     14  S   UNL     1      -4.052  -0.976   7.205  0.00  0.00    -0.017 S 
BRANCH  13  15
ATOM     15  N   UNL     1      -5.353  -2.617   5.571  0.00  0.00    -0.339 N 
ATOM     16  H   UNL     1      -5.869  -2.983   6.472  0.00  0.00    +0.144 HD
ATOM     17  H   UNL     1      -5.594  -3.046   4.587  0.00  0.00    +0.144 HD
ENDBRANCH  13  15
ENDBRANCH  11  13
ENDBRANCH  10  11
ENDBRANCH   5   9
BRANCH   6  18
ATOM     18  O   UNL     1      -2.255  -0.397  -0.110  0.00  0.00    -0.483 OA
BRANCH  18  19
ATOM     19  C   UNL     1      -2.533   1.000   0.002  0.00  0.00    +0.266 C 
BRANCH  19  20
ATOM     20  C   UNL     1      -1.238   1.771   0.003  0.00  0.00    +0.008 A 
ATOM     21  C   UNL     1      -0.031   1.096   0.014  0.00  0.00    +0.010 A 
ATOM     22  C   UNL     1       1.156   1.803   0.009  0.00  0.00    +0.020 A 
ATOM     23  C   UNL     1       1.139   3.187  -0.001  0.00  0.00    +0.042 A 
ATOM     24  C   UNL     1      -0.068   3.862  -0.006  0.00  0.00    +0.040 A 
ATOM     25  C   UNL     1      -1.257   3.155  -0.001  0.00  0.00    +0.049 A 
ATOM     26 CL   UNL     1      -2.772   4.002  -0.008  0.00  0.00    -0.083 Cl
ATOM     27 CL   UNL     1       2.631   4.074  -0.007  0.00  0.00    -0.083 Cl
ENDBRANCH  19  20
ENDBRANCH  18  19
ENDBRANCH   6  18
TORSDOF 8
