REMARK  Name = ZINC06631226
REMARK  8 active torsions:
REMARK  status: ('A' for Active; 'I' for Inactive)
REMARK    1  A    between atoms: C_1  and  C_2
REMARK    2  A    between atoms: C_2  and  O_3
REMARK    3  A    between atoms: O_3  and  C_4
REMARK    4  A    between atoms: N_13  and  C_14
REMARK    5  A    between atoms: C_16  and  C_29
REMARK    6  A    between atoms: N_18  and  C_21
REMARK    7  A    between atoms: C_24  and  C_28
REMARK    8  A    between atoms: C_25  and  C_27
REMARK                            x       y       z     vdW  Elec       q    Type
REMARK                         _______ _______ _______ _____ _____    ______ ____
ROOT
ATOM      1  C   UNL     1      -2.914  -8.811  -0.469  0.00  0.00    +0.089 C 
ATOM      2  C   UNL     1      -3.353 -10.079  -0.131  0.00  0.00    +0.075 C 
ATOM      3  C   UNL     1      -4.739 -10.517   0.096  0.00  0.00    +0.070 C 
ATOM      4  N   UNL     1      -4.708 -11.780   0.389  0.00  0.00    -0.176 NA
ATOM      5  N   UNL     1      -3.402 -12.270   0.386  0.00  0.00    -0.156 N 
ATOM      6  C   UNL     1      -2.538 -11.284   0.072  0.00  0.00    +0.273 C 
ATOM      7  O   UNL     1      -1.325 -11.374  -0.022  0.00  0.00    -0.268 OA
ATOM      8  C   UNL     1      -5.971  -9.654   0.005  0.00  0.00    +0.068 C 
ENDROOT
BRANCH   1  18
ATOM      9  C   UNL     1      -1.617  -2.013  -1.718  0.00  0.00    +0.122 A 
ATOM     10  C   UNL     1      -0.502  -2.799  -1.442  0.00  0.00    +0.048 A 
ATOM     11  C   UNL     1      -0.614  -4.129  -1.183  0.00  0.00    +0.032 A 
ATOM     12  C   UNL     1      -1.877  -4.766  -1.185  0.00  0.00    +0.081 A 
ATOM     13  C   UNL     1      -2.991  -3.944  -1.468  0.00  0.00    +0.044 A 
ATOM     14  C   UNL     1      -2.874  -2.600  -1.723  0.00  0.00    +0.063 A 
ATOM     15  S   UNL     1      -4.343  -5.093  -1.375  0.00  0.00    -0.052 S 
ATOM     16  C   UNL     1      -3.377  -6.544  -0.979  0.00  0.00    +0.163 A 
ATOM     17  N   UNL     1      -2.155  -6.067  -0.949  0.00  0.00    -0.225 NA
ATOM     18  N   UNL     1      -3.809  -7.841  -0.759  0.00  0.00    -0.299 N 
ATOM     19  H   UNL     1      -4.754  -8.053  -0.814  0.00  0.00    +0.154 HD
BRANCH   9  20
ATOM     20  O   UNL     1      -1.476  -0.685  -1.974  0.00  0.00    -0.492 OA
BRANCH  20  22
ATOM     21  C   UNL     1      -0.191   1.341  -2.258  0.00  0.00    +0.048 C 
ATOM     22  C   UNL     1      -0.149  -0.157  -1.950  0.00  0.00    +0.225 C 
ENDBRANCH  20  22
ENDBRANCH   9  20
ENDBRANCH   1  18
BRANCH   5  23
ATOM     23  C   UNL     1      -3.042 -13.595   0.664  0.00  0.00    +0.061 A 
ATOM     24  C   UNL     1      -1.705 -13.972   0.638  0.00  0.00    +0.026 A 
ATOM     25  C   UNL     1      -1.353 -15.279   0.914  0.00  0.00    +0.005 A 
ATOM     26  C   UNL     1      -2.329 -16.211   1.214  0.00  0.00    -0.047 A 
ATOM     27  C   UNL     1      -3.660 -15.839   1.240  0.00  0.00    -0.046 A 
ATOM     28  C   UNL     1      -4.019 -14.532   0.972  0.00  0.00    +0.029 A 
ATOM     29  C   UNL     1      -4.721 -16.858   1.568  0.00  0.00    +0.044 C 
ATOM     30  C   UNL     1      -1.941 -17.636   1.514  0.00  0.00    +0.044 C 
ENDBRANCH   5  23
TORSDOF 4
