REMARK  Name = ZINC64788607
REMARK  7 active torsions:
REMARK  status: ('A' for Active; 'I' for Inactive)
REMARK    1  A    between atoms: C_1  and  C_2
REMARK    2  A    between atoms: C_2  and  O_3
REMARK    3  A    between atoms: O_3  and  C_4
REMARK    4  A    between atoms: C_9  and  C_10
REMARK    5  A    between atoms: N_21  and  C_24
REMARK    6  A    between atoms: C_29  and  O_30
REMARK    7  A    between atoms: O_30  and  C_31
REMARK                            x       y       z     vdW  Elec       q    Type
REMARK                         _______ _______ _______ _____ _____    ______ ____
ROOT
ATOM      1  C   UNL     1       1.990  -1.397  -3.491  0.00  0.00    +0.112 C 
ATOM      2  C   UNL     1       3.397  -0.905  -3.072  0.00  0.00    +0.078 C 
ATOM      3  C   UNL     1       4.137  -0.881  -4.397  0.00  0.00    +0.038 C 
ATOM      4  N   UNL     1       3.413  -1.584  -5.289  0.00  0.00    -0.283 N 
ATOM      5  N   UNL     1       2.282  -2.122  -4.750  0.00  0.00    -0.235 NA
ATOM      6  C   UNL     1       5.342  -0.249  -4.645  0.00  0.00    +0.118 C 
ATOM      7  C   UNL     1       6.054   0.490  -3.588  0.00  0.00    +0.258 C 
ATOM      8  N   UNL     1       7.225   1.082  -3.902  0.00  0.00    -0.235 N 
ATOM      9  C   UNL     1       7.738   1.008  -5.138  0.00  0.00    +0.320 C 
ATOM     10  O   UNL     1       8.797   1.563  -5.356  0.00  0.00    -0.251 OA
ATOM     11  N   UNL     1       7.146   0.352  -6.146  0.00  0.00    -0.186 N 
ATOM     12  C   UNL     1       5.973  -0.292  -5.976  0.00  0.00    +0.265 C 
ATOM     13  O   UNL     1       5.448  -0.887  -6.898  0.00  0.00    -0.269 OA
ATOM     14  O   UNL     1       5.598   0.566  -2.463  0.00  0.00    -0.270 OA
ATOM     15  H   UNL     1       2.398  -3.110  -4.579  0.00  0.00    +0.145 HD
ATOM     16  H   UNL     1       7.706   1.573  -3.218  0.00  0.00    +0.159 HD
ATOM     17  H   UNL     1       3.669  -1.695  -6.218  0.00  0.00    +0.166 HD
ENDROOT
BRANCH   1  23
ATOM     18  C   UNL     1       0.566  -1.833  -1.474  0.00  0.00    +0.125 A 
ATOM     19  C   UNL     1       0.033  -2.693  -0.525  0.00  0.00    +0.046 A 
ATOM     20  C   UNL     1       0.352  -4.037  -0.554  0.00  0.00    +0.004 A 
ATOM     21  C   UNL     1       1.202  -4.525  -1.530  0.00  0.00    +0.001 A 
ATOM     22  C   UNL     1       1.734  -3.671  -2.477  0.00  0.00    +0.009 A 
ATOM     23  C   UNL     1       1.414  -2.327  -2.455  0.00  0.00    +0.013 A 
BRANCH  18  24
ATOM     24  O   UNL     1       0.253  -0.511  -1.447  0.00  0.00    -0.492 OA
BRANCH  24  26
ATOM     25  C   UNL     1      -0.860   1.433  -0.541  0.00  0.00    +0.048 C 
ATOM     26  C   UNL     1      -0.626  -0.073  -0.409  0.00  0.00    +0.225 C 
ENDBRANCH  24  26
ENDBRANCH  18  24
ENDBRANCH   1  23
BRANCH  11  27
ATOM     27  C   UNL     1       7.763   0.332  -7.406  0.00  0.00    +0.087 A 
ATOM     28  C   UNL     1       8.653  -0.683  -7.728  0.00  0.00    +0.028 A 
ATOM     29  C   UNL     1       9.259  -0.702  -8.970  0.00  0.00    +0.002 A 
ATOM     30  C   UNL     1       8.981   0.289  -9.894  0.00  0.00    +0.004 A 
ATOM     31  C   UNL     1       8.095   1.303  -9.580  0.00  0.00    +0.047 A 
ATOM     32  C   UNL     1       7.479   1.326  -8.339  0.00  0.00    +0.142 A 
BRANCH  32  33
ATOM     33  O   UNL     1       6.604   2.319  -8.031  0.00  0.00    -0.493 OA
ATOM     34  C   UNL     1       6.361   3.305  -9.037  0.00  0.00    +0.277 C 
ENDBRANCH  32  33
ENDBRANCH  11  27
TORSDOF 5
