REMARK  Name = ZINC35555371
REMARK  7 active torsions:
REMARK  status: ('A' for Active; 'I' for Inactive)
REMARK    1  A    between atoms: C_1  and  C_2
REMARK    2  A    between atoms: C_2  and  O_3
REMARK    3  A    between atoms: O_3  and  C_4
REMARK    4  A    between atoms: C_12  and  C_14
REMARK    5  A    between atoms: C_19  and  N_38
REMARK    6  A    between atoms: N_27  and  C_30
REMARK    7  A    between atoms: C_35  and  C_36
REMARK                            x       y       z     vdW  Elec       q    Type
REMARK                         _______ _______ _______ _____ _____    ______ ____
ROOT
ATOM      1  C   UNL     1      -6.421  -5.361  -1.268  0.00  0.00    +0.101 C 
ATOM      2  C   UNL     1      -5.818  -6.040  -0.039  0.00  0.00    +0.051 C 
ATOM      3  C   UNL     1      -6.079  -7.522  -0.129  0.00  0.00    -0.023 A 
ATOM      4  C   UNL     1      -5.194  -8.407   0.457  0.00  0.00    +0.038 A 
ATOM      5  C   UNL     1      -5.418  -9.768   0.371  0.00  0.00    +0.127 A 
ATOM      6  C   UNL     1      -6.528 -10.247  -0.302  0.00  0.00    +0.034 A 
ATOM      7  C   UNL     1      -7.416  -9.366  -0.885  0.00  0.00    +0.025 A 
ATOM      8  C   UNL     1      -7.195  -7.995  -0.795  0.00  0.00    +0.033 A 
ATOM      9  N   UNL     1      -8.132  -7.123  -1.377  0.00  0.00    -0.323 N 
ATOM     10  C   UNL     1      -7.915  -5.687  -1.363  0.00  0.00    +0.103 C 
ATOM     11  C   UNL     1      -8.482  -4.981  -2.584  0.00  0.00    +0.128 C 
ATOM     12  N   UNL     1      -9.682  -5.611  -3.097  0.00  0.00    -0.326 N 
ATOM     13  C   UNL     1      -9.833  -7.054  -3.182  0.00  0.00    +0.124 C 
ATOM     14  C   UNL     1      -9.338  -7.738  -1.929  0.00  0.00    +0.124 C 
ENDROOT
BRANCH   1  23
ATOM     15  C   UNL     1      -2.369  -1.613  -3.965  0.00  0.00    +0.403 C 
ATOM     16  O   UNL     1      -2.260  -0.403  -3.956  0.00  0.00    -0.226 OA
ATOM     17  N   UNL     1      -3.501  -2.191  -3.518  0.00  0.00    -0.264 N 
ATOM     18  C   UNL     1      -3.644  -3.654  -3.517  0.00  0.00    +0.130 C 
ATOM     19  C   UNL     1      -3.995  -4.111  -2.096  0.00  0.00    +0.127 C 
ATOM     20  N   UNL     1      -5.109  -3.291  -1.601  0.00  0.00    -0.298 N 
ATOM     21  C   UNL     1      -4.966  -1.828  -1.601  0.00  0.00    +0.127 C 
ATOM     22  C   UNL     1      -4.612  -1.371  -3.017  0.00  0.00    +0.130 C 
ATOM     23  C   UNL     1      -6.241  -3.869  -1.154  0.00  0.00    +0.221 C 
ATOM     24  O   UNL     1      -7.115  -3.189  -0.660  0.00  0.00    -0.275 OA
BRANCH  15  25
ATOM     25  O   UNL     1      -1.357  -2.376  -4.421  0.00  0.00    -0.451 OA
BRANCH  25  27
ATOM     26  C   UNL     1       0.844  -2.721  -5.356  0.00  0.00    +0.048 C 
ATOM     27  C   UNL     1      -0.187  -1.696  -4.879  0.00  0.00    +0.230 C 
ENDBRANCH  25  27
ENDBRANCH  15  25
ENDBRANCH   1  23
BRANCH  12  28
ATOM     28  C   UNL     1     -10.730  -4.803  -3.524  0.00  0.00    +0.047 A 
ATOM     29  C   UNL     1     -10.795  -4.386  -4.847  0.00  0.00    +0.024 A 
ATOM     30  C   UNL     1     -11.836  -3.584  -5.269  0.00  0.00    +0.002 A 
ATOM     31  C   UNL     1     -12.823  -3.190  -4.380  0.00  0.00    +0.001 A 
ATOM     32  C   UNL     1     -12.776  -3.594  -3.063  0.00  0.00    +0.021 A 
ATOM     33  C   UNL     1     -11.732  -4.411  -2.622  0.00  0.00    +0.073 A 
BRANCH  33  34
ATOM     34  C   UNL     1     -11.680  -4.840  -1.257  0.00  0.00    +0.101 C 
ATOM     35  N   UNL     1     -11.639  -5.181  -0.174  0.00  0.00    -0.191 NA
ENDBRANCH  33  34
ENDBRANCH  12  28
BRANCH   5  36
ATOM     36  N   UNL     1      -4.470 -10.715   0.999  0.00  0.00    +0.056 N 
ATOM     37  O   UNL     1      -3.500 -10.298   1.587  0.00  0.00    -0.126 OA
ATOM     38  O   UNL     1      -4.666 -11.906   0.924  0.00  0.00    -0.126 OA
ENDBRANCH   5  36
TORSDOF 6
