REMARK  Name = ZINC05457835
REMARK  10 active torsions:
REMARK  status: ('A' for Active; 'I' for Inactive)
REMARK    1  A    between atoms: C_1  and  C_2
REMARK    2  A    between atoms: C_2  and  C_3
REMARK    3  A    between atoms: C_3  and  O_4
REMARK    4  A    between atoms: O_4  and  C_5
REMARK    5  A    between atoms: C_8  and  C_11
REMARK    6  A    between atoms: C_18  and  N_32
REMARK    7  A    between atoms: C_19  and  C_30
REMARK    8  A    between atoms: C_20  and  C_22
REMARK    9  A    between atoms: C_25  and  S_28
REMARK   10  A    between atoms: S_28  and  C_29
REMARK                            x       y       z     vdW  Elec       q    Type
REMARK                         _______ _______ _______ _____ _____    ______ ____
ROOT
ATOM      1  C   UNL     1      -6.679  -4.826   0.185  0.00  0.00    +0.100 A 
ATOM      2  C   UNL     1      -6.847  -5.912  -0.680  0.00  0.00    +0.054 A 
ATOM      3  C   UNL     1      -8.129  -6.361  -0.550  0.00  0.00    +0.223 A 
ATOM      4  N   UNL     1      -8.745  -5.586   0.366  0.00  0.00    -0.246 N 
ATOM      5  H   UNL     1      -9.664  -5.674   0.662  0.00  0.00    +0.192 HD
ATOM      6  N   UNL     1      -7.820  -4.632   0.819  0.00  0.00    -0.171 NA
ATOM      7  O   UNL     1      -8.613  -7.410  -1.261  0.00  0.00    -0.423 OA
ATOM      8  C   UNL     1      -7.885  -7.842  -2.311  0.00  0.00    +0.200 C 
ATOM      9  C   UNL     1      -6.603  -7.478  -2.538  0.00  0.00    +0.098 C 
ATOM     10  C   UNL     1      -5.854  -6.543  -1.621  0.00  0.00    +0.102 C 
ENDROOT
BRANCH   1  14
ATOM     11  C   UNL     1      -3.115  -2.560   0.696  0.00  0.00    +0.121 A 
ATOM     12  C   UNL     1      -3.520  -2.937  -0.577  0.00  0.00    +0.046 A 
ATOM     13  C   UNL     1      -4.675  -3.672  -0.746  0.00  0.00    +0.013 A 
ATOM     14  C   UNL     1      -5.436  -4.036   0.363  0.00  0.00    +0.003 A 
ATOM     15  C   UNL     1      -5.027  -3.656   1.640  0.00  0.00    +0.013 A 
ATOM     16  C   UNL     1      -3.869  -2.925   1.803  0.00  0.00    +0.046 A 
BRANCH  11  17
ATOM     17  O   UNL     1      -1.977  -1.836   0.859  0.00  0.00    -0.492 OA
BRANCH  17  18
ATOM     18  C   UNL     1      -1.251  -1.494  -0.323  0.00  0.00    +0.229 C 
BRANCH  18  20
ATOM     19  C   UNL     1       0.769  -0.319  -1.208  0.00  0.00    +0.007 C 
ATOM     20  C   UNL     1      -0.009  -0.685   0.057  0.00  0.00    +0.038 C 
ENDBRANCH  18  20
ENDBRANCH  17  18
ENDBRANCH  11  17
ENDBRANCH   1  14
BRANCH  10  21
ATOM     21  C   UNL     1      -4.828  -7.317  -0.834  0.00  0.00    -0.034 A 
ATOM     22  C   UNL     1      -5.234  -8.309   0.040  0.00  0.00    +0.005 A 
ATOM     23  C   UNL     1      -4.296  -9.019   0.763  0.00  0.00    +0.015 A 
ATOM     24  C   UNL     1      -2.944  -8.737   0.611  0.00  0.00    +0.008 A 
ATOM     25  C   UNL     1      -2.540  -7.740  -0.268  0.00  0.00    +0.015 A 
ATOM     26  C   UNL     1      -3.483  -7.037  -0.992  0.00  0.00    +0.005 A 
BRANCH  24  27
ATOM     27  S   UNL     1      -1.744  -9.641   1.533  0.00  0.00    -0.129 S 
ATOM     28  C   UNL     1      -0.161  -8.930   1.007  0.00  0.00    +0.090 C 
ENDBRANCH  24  27
ENDBRANCH  10  21
BRANCH   8  29
ATOM     29  N   UNL     1      -8.480  -8.701  -3.201  0.00  0.00    -0.328 N 
ATOM     30  H   UNL     1      -9.399  -8.980  -3.065  0.00  0.00    +0.145 HD
ATOM     31  H   UNL     1      -7.982  -9.029  -3.966  0.00  0.00    +0.145 HD
ENDBRANCH   8  29
BRANCH   9  32
ATOM     32  C   UNL     1      -5.932  -8.000  -3.690  0.00  0.00    +0.101 C 
ATOM     33  N   UNL     1      -5.399  -8.413  -4.605  0.00  0.00    -0.191 NA
ENDBRANCH   9  32
TORSDOF 8
