REMARK  Name = ZINC38688822
REMARK  7 active torsions:
REMARK  status: ('A' for Active; 'I' for Inactive)
REMARK    1  A    between atoms: C_1  and  C_2
REMARK    2  A    between atoms: C_5  and  S_8
REMARK    3  A    between atoms: S_8  and  C_9
REMARK    4  A    between atoms: C_9  and  C_10
REMARK    5  A    between atoms: C_12  and  C_23
REMARK    6  A    between atoms: N_25  and  N_26
REMARK    7  A    between atoms: C_27  and  C_28
REMARK                            x       y       z     vdW  Elec       q    Type
REMARK                         _______ _______ _______ _____ _____    ______ ____
ROOT
ATOM      1  C   UNL     1       0.097  -6.505   1.872  0.00  0.00    +0.147 C 
ATOM      2  C   UNL     1       0.053  -6.922   3.357  0.00  0.00    +0.239 C 
ATOM      3  N   UNL     1       1.315  -7.646   3.559  0.00  0.00    -0.156 NA
ATOM      4  N   UNL     1       1.976  -7.687   2.527  0.00  0.00    -0.077 NA
ATOM      5  N   UNL     1       1.390  -7.055   1.423  0.00  0.00    -0.177 N 
ATOM      6  C   UNL     1       1.927  -6.960   0.141  0.00  0.00    +0.228 A 
ATOM      7  C   UNL     1       3.212  -7.516  -0.296  0.00  0.00    +0.204 A 
ATOM      8  N   UNL     1       3.375  -7.228  -1.557  0.00  0.00    -0.032 NA
ATOM      9  O   UNL     1       2.241  -6.495  -1.986  0.00  0.00    -0.239 OA
ATOM     10  N   UNL     1       1.369  -6.366  -0.877  0.00  0.00    -0.030 NA
ATOM     11  N   UNL     1       4.103  -8.227   0.499  0.00  0.00    -0.338 N 
ATOM     12  H   UNL     1       3.895  -8.393   1.432  0.00  0.00    +0.144 HD
ATOM     13  H   UNL     1       4.933  -8.558   0.121  0.00  0.00    +0.144 HD
ENDROOT
BRANCH   2  14
ATOM     14  C   UNL     1      -0.011  -5.707   4.246  0.00  0.00    +0.261 C 
ATOM     15  O   UNL     1       0.993  -5.300   4.789  0.00  0.00    -0.272 OA
ATOM     16  N   UNL     1      -1.185  -5.074   4.438  0.00  0.00    -0.205 N 
ATOM     17  H   UNL     1      -1.989  -5.400   4.003  0.00  0.00    +0.177 HD
BRANCH  16  18
ATOM     18  N   UNL     1      -1.245  -3.944   5.264  0.00  0.00    -0.188 NA
ATOM     19  C   UNL     1      -2.385  -3.328   5.450  0.00  0.00    +0.136 C 
BRANCH  19  20
ATOM     20  C   UNL     1      -2.445  -2.198   6.277  0.00  0.00    +0.000 C 
ATOM     21  C   UNL     1      -3.571  -1.436   6.583  0.00  0.00    +0.004 A 
ATOM     22  C   UNL     1      -4.925  -1.536   6.194  0.00  0.00    +0.010 A 
ATOM     23  C   UNL     1      -5.826  -0.633   6.656  0.00  0.00    +0.001 A 
ATOM     24  C   UNL     1      -5.450   0.404   7.515  0.00  0.00    +0.002 A 
ATOM     25  C   UNL     1      -4.170   0.561   7.929  0.00  0.00    +0.026 A 
ATOM     26  C   UNL     1      -3.169  -0.345   7.488  0.00  0.00    +0.043 A 
ATOM     27  N   UNL     1      -1.878  -0.408   7.740  0.00  0.00    -0.380 N 
ATOM     28  C   UNL     1      -1.302  -1.554   7.030  0.00  0.00    +0.150 C 
ATOM     29  H   UNL     1      -1.387   0.205   8.310  0.00  0.00    +0.160 HD
ENDBRANCH  19  20
ENDBRANCH  16  18
ENDBRANCH   2  14
BRANCH   1  30
ATOM     30  C   UNL     1       0.077  -4.981   1.735  0.00  0.00    +0.101 C 
BRANCH  30  31
ATOM     31  S   UNL     1       0.062  -4.533  -0.023  0.00  0.00    -0.123 S 
BRANCH  31  36
ATOM     32  C   UNL     1      -0.018   1.503   0.010  0.00  0.00    +0.044 C 
ATOM     33  C   UNL     1       0.002  -0.004   0.002  0.00  0.00    -0.050 A 
ATOM     34  C   UNL     1       0.006  -0.687  -1.200  0.00  0.00    +0.004 A 
ATOM     35  C   UNL     1       0.024  -2.068  -1.212  0.00  0.00    +0.015 A 
ATOM     36  C   UNL     1       0.039  -2.771  -0.013  0.00  0.00    +0.008 A 
ATOM     37  C   UNL     1       0.036  -2.081   1.193  0.00  0.00    +0.015 A 
ATOM     38  C   UNL     1       0.023  -0.700   1.197  0.00  0.00    +0.004 A 
ENDBRANCH  31  36
ENDBRANCH  30  31
ENDBRANCH   1  30
TORSDOF 6
