REMARK  Name = ZINC01916147
REMARK  16 active torsions:
REMARK  status: ('A' for Active; 'I' for Inactive)
REMARK    1  A    between atoms: C_1  and  C_2
REMARK    2  A    between atoms: C_2  and  C_3
REMARK    3  A    between atoms: C_3  and  C_4
REMARK    4  A    between atoms: C_4  and  N_67
REMARK    5  A    between atoms: C_5  and  C_6
REMARK    6  A    between atoms: C_5  and  N_67
REMARK    7  A    between atoms: C_6  and  C_7
REMARK    8  A    between atoms: C_7  and  C_8
REMARK    9  A    between atoms: C_9  and  C_10
REMARK   10  A    between atoms: C_9  and  N_67
REMARK   11  A    between atoms: C_11  and  O_34
REMARK   12  A    between atoms: C_17  and  C_30
REMARK   13  A    between atoms: C_18  and  O_21
REMARK   14  A    between atoms: O_21  and  C_22
REMARK   15  A    between atoms: C_24  and  C_29
REMARK   16  A    between atoms: C_27  and  C_28
REMARK                            x       y       z     vdW  Elec       q    Type
REMARK                         _______ _______ _______ _____ _____    ______ ____
ROOT
ATOM      1  C   UNL     1       0.233   5.382   0.036  0.00  0.00    +0.020 A 
ATOM      2  C   UNL     1      -0.976   6.055   0.104  0.00  0.00    +0.122 A 
ATOM      3  C   UNL     1      -2.179   5.355   0.091  0.00  0.00    +0.046 A 
ATOM      4  C   UNL     1      -2.184   3.991   0.011  0.00  0.00    +0.019 A 
ATOM      5  C   UNL     1      -0.975   3.298  -0.059  0.00  0.00    +0.068 A 
ATOM      6  C   UNL     1       0.245   3.997  -0.046  0.00  0.00    +0.144 A 
ATOM      7  O   UNL     1       1.407   3.317  -0.114  0.00  0.00    -0.447 OA
ATOM      8  C   UNL     1       1.453   1.980  -0.195  0.00  0.00    +0.254 A 
ATOM      9  C   UNL     1       0.345   1.212  -0.215  0.00  0.00    +0.222 A 
ATOM     10  C   UNL     1      -0.937   1.828  -0.153  0.00  0.00    +0.235 A 
ATOM     11  O   UNL     1      -1.962   1.166  -0.174  0.00  0.00    -0.283 OA
ENDROOT
BRANCH   8  12
ATOM     12  C   UNL     1       2.799   1.307  -0.267  0.00  0.00    +0.454 C 
ATOM     13  F   UNL     1       3.185   1.177  -1.605  0.00  0.00    -0.163 F 
ATOM     14  F   UNL     1       3.744   2.079   0.418  0.00  0.00    -0.163 F 
ATOM     15  F   UNL     1       2.719   0.040   0.321  0.00  0.00    -0.163 F 
ENDBRANCH   8  12
BRANCH   2  16
ATOM     16  O   UNL     1      -0.987   7.410   0.185  0.00  0.00    -0.506 OA
ATOM     17  H   UNL     1      -1.097   7.854  -0.666  0.00  0.00    +0.292 HD
ENDBRANCH   2  16
BRANCH   1  18
ATOM     18  C   UNL     1       1.529   6.151   0.051  0.00  0.00    -0.036 C 
BRANCH  18  19
ATOM     19  N   UNL     1       2.011   6.292  -1.339  0.00  0.00    +0.383 N 
ATOM     20  H   UNL     1       1.877   5.401  -1.831  0.00  0.00    -0.081 HD
BRANCH  19  21
ATOM     21  C   UNL     1       1.244   7.346  -2.036  0.00  0.00    -0.078 C 
BRANCH  21  22
ATOM     22  C   UNL     1       1.476   8.705  -1.373  0.00  0.00    -0.019 C 
BRANCH  22  24
ATOM     23  C   UNL     1       0.820  11.116  -1.378  0.00  0.00    +0.004 C 
ATOM     24  C   UNL     1       0.588   9.756  -2.041  0.00  0.00    -0.005 C 
ENDBRANCH  22  24
ENDBRANCH  21  22
ENDBRANCH  19  21
BRANCH  19  25
ATOM     25  C   UNL     1       3.450   6.629  -1.343  0.00  0.00    -0.078 C 
BRANCH  25  26
ATOM     26  C   UNL     1       3.999   6.430  -2.757  0.00  0.00    -0.019 C 
BRANCH  26  27
ATOM     27  C   UNL     1       5.516   6.628  -2.749  0.00  0.00    -0.005 C 
ATOM     28  C   UNL     1       6.064   6.429  -4.163  0.00  0.00    +0.004 C 
ENDBRANCH  26  27
ENDBRANCH  25  26
ENDBRANCH  19  25
ENDBRANCH  18  19
ENDBRANCH   1  18
BRANCH   9  29
ATOM     29  O   UNL     1       0.452  -0.142  -0.298  0.00  0.00    -0.448 OA
BRANCH  29  30
ATOM     30  C   UNL     1       0.530  -0.848   0.860  0.00  0.00    +0.132 A 
ATOM     31  C   UNL     1       0.506  -0.187   2.080  0.00  0.00    +0.050 A 
ATOM     32  C   UNL     1       0.581  -0.907   3.256  0.00  0.00    -0.047 A 
ATOM     33  C   UNL     1       0.689  -2.286   3.219  0.00  0.00    +0.004 A 
ATOM     34  C   UNL     1       0.719  -2.946   2.004  0.00  0.00    +0.007 A 
ATOM     35  C   UNL     1       0.639  -2.231   0.825  0.00  0.00    -0.008 A 
ATOM     36  C   UNL     1       0.672  -2.951  -0.498  0.00  0.00    +0.047 C 
ATOM     37  C   UNL     1       0.550  -0.191   4.582  0.00  0.00    +0.044 C 
ENDBRANCH  29  30
ENDBRANCH   9  29
TORSDOF 12
