REMARK  Name = ZINC20578819
REMARK  3 active torsions:
REMARK  status: ('A' for Active; 'I' for Inactive)
REMARK    1  A    between atoms: C_7  and  C_15
REMARK    2  A    between atoms: C_21  and  C_23
REMARK    3  A    between atoms: N_28  and  C_30
REMARK                            x       y       z     vdW  Elec       q    Type
REMARK                         _______ _______ _______ _____ _____    ______ ____
ROOT
ATOM      1  C   UNL     1       4.266   2.071   1.378  0.00  0.00    +0.231 C 
ATOM      2  O   UNL     1       3.702   1.488   2.280  0.00  0.00    -0.274 OA
ATOM      3  N   UNL     1       5.439   2.694   1.609  0.00  0.00    -0.263 N 
ATOM      4  C   UNL     1       6.002   2.669   2.881  0.00  0.00    +0.188 A 
ATOM      5  N   UNL     1       5.557   2.098   3.987  0.00  0.00    -0.126 NA
ATOM      6  N   UNL     1       6.194   2.167   5.075  0.00  0.00    -0.144 NA
ATOM      7  C   UNL     1       7.337   2.819   5.144  0.00  0.00    +0.109 A 
ATOM      8  S   UNL     1       7.487   3.372   3.450  0.00  0.00    -0.035 S 
ATOM      9  H   UNL     1       5.951   3.223   0.791  0.00  0.00    +0.157 HD
ENDROOT
BRANCH   1  16
ATOM     10  C   UNL     1       1.211  -0.769   0.025  0.00  0.00    +0.001 A 
ATOM     11  C   UNL     1      -0.004  -0.108   0.045  0.00  0.00    +0.004 A 
ATOM     12  C   UNL     1      -0.039   1.272   0.052  0.00  0.00    +0.046 A 
ATOM     13  C   UNL     1       1.146   2.000   0.037  0.00  0.00    +0.133 A 
ATOM     14  C   UNL     1       2.361   1.335   0.016  0.00  0.00    +0.011 A 
ATOM     15  C   UNL     1       2.389  -0.049   0.010  0.00  0.00    +0.008 A 
ATOM     16  C   UNL     1       3.657   2.099   0.000  0.00  0.00    +0.142 C 
ATOM     17  C   UNL     1       3.425   3.527  -0.411  0.00  0.00    +0.011 A 
ATOM     18  C   UNL     1       4.496   4.293  -0.836  0.00  0.00    +0.008 A 
ATOM     19  C   UNL     1       4.304   5.607  -1.216  0.00  0.00    +0.001 A 
ATOM     20  C   UNL     1       3.038   6.163  -1.173  0.00  0.00    +0.004 A 
ATOM     21  C   UNL     1       1.966   5.404  -0.751  0.00  0.00    +0.046 A 
ATOM     22  C   UNL     1       2.155   4.080  -0.367  0.00  0.00    +0.133 A 
ATOM     23  O   UNL     1       1.090   3.353   0.045  0.00  0.00    -0.455 OA
ENDBRANCH   1  16
BRANCH   7  24
ATOM     24  C   UNL     1       8.260   3.032   6.317  0.00  0.00    +0.073 C 
ATOM     25  C   UNL     1       8.678   1.682   6.944  0.00  0.00    +0.108 C 
ATOM     26  C   UNL     1       8.726   1.963   8.431  0.00  0.00    +0.220 C 
ATOM     27  O   UNL     1       9.274   1.260   9.253  0.00  0.00    -0.275 OA
ATOM     28  N   UNL     1       8.074   3.106   8.706  0.00  0.00    -0.271 N 
ATOM     29  C   UNL     1       7.517   3.709   7.489  0.00  0.00    +0.124 C 
BRANCH  28  30
ATOM     30  C   UNL     1       7.942   3.651   9.989  0.00  0.00    +0.036 A 
ATOM     31  C   UNL     1       8.397   2.944  11.095  0.00  0.00    +0.026 A 
ATOM     32  C   UNL     1       8.270   3.485  12.359  0.00  0.00    +0.040 A 
ATOM     33  C   UNL     1       7.682   4.728  12.526  0.00  0.00    +0.124 A 
ATOM     34  C   UNL     1       7.223   5.432  11.425  0.00  0.00    +0.040 A 
ATOM     35  C   UNL     1       7.352   4.896  10.159  0.00  0.00    +0.026 A 
ATOM     36  F   UNL     1       7.555   5.253  13.764  0.00  0.00    -0.205 F 
ENDBRANCH  28  30
ENDBRANCH   7  24
TORSDOF 3
