REMARK  Name = ZINC36206111
REMARK  14 active torsions:
REMARK  status: ('A' for Active; 'I' for Inactive)
REMARK    1  A    between atoms: C_1  and  C_2
REMARK    2  A    between atoms: C_2  and  C_3
REMARK    3  A    between atoms: C_2  and  O_4
REMARK    4  A    between atoms: O_4  and  C_5
REMARK    5  A    between atoms: C_5  and  C_6
REMARK    6  A    between atoms: C_6  and  C_8
REMARK    7  A    between atoms: C_6  and  O_37
REMARK    8  A    between atoms: C_8  and  N_9
REMARK    9  A    between atoms: N_9  and  C_10
REMARK   10  A    between atoms: N_9  and  C_18
REMARK   11  A    between atoms: C_10  and  C_11
REMARK   12  A    between atoms: C_11  and  N_12
REMARK   13  A    between atoms: C_18  and  C_19
REMARK   14  A    between atoms: C_25  and  C_30
REMARK                            x       y       z     vdW  Elec       q    Type
REMARK                         _______ _______ _______ _____ _____    ______ ____
ROOT
ATOM      1  N   UNL     1       0.668  -1.685   5.478  0.00  0.00    +0.387 N 
ATOM      2  H   UNL     1       1.278  -2.418   5.148  0.00  0.00    -0.081 HD
ENDROOT
BRANCH   1   3
ATOM      3  C   UNL     1      -0.354  -1.404   4.460  0.00  0.00    -0.044 C 
BRANCH   3   4
ATOM      4  C   UNL     1       0.327  -1.079   3.129  0.00  0.00    +0.124 C 
BRANCH   4   5
ATOM      5  O   UNL     1       1.024  -2.233   2.656  0.00  0.00    -0.391 OA
ATOM      6  H   UNL     1       0.456  -3.002   2.506  0.00  0.00    +0.210 HD
ENDBRANCH   4   5
BRANCH   4   7
ATOM      7  C   UNL     1      -0.730  -0.666   2.103  0.00  0.00    +0.189 C 
BRANCH   7   8
ATOM      8  O   UNL     1      -0.086  -0.251   0.897  0.00  0.00    -0.375 OA
BRANCH   8  10
ATOM      9  C   UNL     1      -1.260   1.659  -0.007  0.00  0.00    +0.037 C 
ATOM     10  C   UNL     1      -0.989   0.159  -0.133  0.00  0.00    +0.112 C 
ATOM     11  C   UNL     1      -0.369  -0.135  -1.500  0.00  0.00    +0.037 C 
ENDBRANCH   8  10
ENDBRANCH   7   8
ENDBRANCH   4   7
ENDBRANCH   3   4
ENDBRANCH   1   3
BRANCH   1  12
ATOM     12  C   UNL     1       1.454  -0.470   5.730  0.00  0.00    -0.063 C 
BRANCH  12  13
ATOM     13  C   UNL     1       2.598  -0.794   6.693  0.00  0.00    +0.066 C 
BRANCH  13  14
ATOM     14  N   UNL     1       3.455   0.389   6.851  0.00  0.00    -0.300 NA
ATOM     15  C   UNL     1       4.145   0.711   5.594  0.00  0.00    +0.112 C 
ATOM     16  C   UNL     1       4.978   1.982   5.786  0.00  0.00    +0.175 C 
ATOM     17  O   UNL     1       5.890   1.788   6.870  0.00  0.00    -0.377 OA
ATOM     18  C   UNL     1       5.252   1.472   8.111  0.00  0.00    +0.175 C 
ATOM     19  C   UNL     1       4.422   0.197   7.942  0.00  0.00    +0.112 C 
ENDBRANCH  13  14
ENDBRANCH  12  13
ENDBRANCH   1  12
BRANCH   1  20
ATOM     20  C   UNL     1       0.015  -2.113   6.722  0.00  0.00    -0.003 C 
BRANCH  20  21
ATOM     21  C   UNL     1      -0.651  -3.447   6.506  0.00  0.00    +0.094 A 
ATOM     22  N   UNL     1      -1.421  -3.976   7.492  0.00  0.00    -0.312 N 
ATOM     23  H   UNL     1      -1.531  -3.487   8.323  0.00  0.00    +0.170 HD
ATOM     24  C   UNL     1      -2.034  -5.165   7.340  0.00  0.00    +0.260 A 
ATOM     25  O   UNL     1      -2.722  -5.625   8.234  0.00  0.00    -0.267 OA
ATOM     26  C   UNL     1      -1.866  -5.879   6.111  0.00  0.00    +0.080 A 
ATOM     27  C   UNL     1      -2.419  -7.167   5.709  0.00  0.00    +0.004 A 
ATOM     28  C   UNL     1      -2.119  -7.650   4.479  0.00  0.00    +0.056 A 
ATOM     29  S   UNL     1      -1.065  -6.390   3.787  0.00  0.00    -0.076 S 
ATOM     30  C   UNL     1      -1.053  -5.255   5.150  0.00  0.00    +0.116 A 
ATOM     31  N   UNL     1      -0.483  -4.073   5.372  0.00  0.00    -0.229 NA
BRANCH  27  32
ATOM     32  C   UNL     1      -3.294  -7.933   6.628  0.00  0.00    -0.016 A 
ATOM     33  C   UNL     1      -2.897  -8.158   7.946  0.00  0.00    +0.010 A 
ATOM     34  C   UNL     1      -3.715  -8.871   8.798  0.00  0.00    +0.020 A 
ATOM     35  C   UNL     1      -4.928  -9.363   8.347  0.00  0.00    +0.041 A 
ATOM     36  C   UNL     1      -5.327  -9.142   7.039  0.00  0.00    +0.020 A 
ATOM     37  C   UNL     1      -4.519  -8.425   6.181  0.00  0.00    +0.010 A 
ATOM     38 CL   UNL     1      -5.953 -10.259   9.424  0.00  0.00    -0.084 Cl
ENDBRANCH  27  32
ENDBRANCH  20  21
ENDBRANCH   1  20
TORSDOF 12
