REMARK  Name = ZINC38653638
REMARK  6 active torsions:
REMARK  status: ('A' for Active; 'I' for Inactive)
REMARK    1  A    between atoms: C_1  and  C_2
REMARK    2  A    between atoms: C_4  and  C_31
REMARK    3  A    between atoms: C_12  and  C_14
REMARK    4  A    between atoms: C_14  and  S_15
REMARK    5  A    between atoms: S_15  and  C_16
REMARK    6  A    between atoms: C_16  and  C_17
REMARK                            x       y       z     vdW  Elec       q    Type
REMARK                         _______ _______ _______ _____ _____    ______ ____
ROOT
ATOM      1  C   UNL     1       0.125  -7.989   3.172  0.00  0.00    +0.165 C 
ENDROOT
BRANCH   1  13
ATOM      2  C   UNL     1      -0.018   1.503   0.010  0.00  0.00    +0.044 C 
ATOM      3  C   UNL     1       0.002  -0.004   0.002  0.00  0.00    -0.049 A 
ATOM      4  C   UNL     1       0.006  -0.698  -1.199  0.00  0.00    +0.009 A 
ATOM      5  C   UNL     1       0.024  -2.068  -1.235  0.00  0.00    -0.024 A 
ATOM      6  C   UNL     1       0.040  -2.822  -0.038  0.00  0.00    +0.083 A 
ATOM      7  C   UNL     1       0.036  -2.081   1.166  0.00  0.00    +0.041 A 
ATOM      8  C   UNL     1       0.023  -0.709   1.191  0.00  0.00    +0.020 A 
ATOM      9  S   UNL     1       0.059  -3.361   2.397  0.00  0.00    -0.052 S 
ATOM     10  C   UNL     1       0.073  -4.752   1.275  0.00  0.00    +0.165 A 
ATOM     11  N   UNL     1       0.059  -4.165   0.101  0.00  0.00    -0.224 NA
ATOM     12  N   UNL     1       0.093  -6.106   1.569  0.00  0.00    -0.264 N 
ATOM     13  C   UNL     1       0.104  -6.517   2.853  0.00  0.00    +0.228 C 
ATOM     14  O   UNL     1       0.097  -5.701   3.750  0.00  0.00    -0.275 OA
ATOM     15  C   UNL     1       0.027  -2.779  -2.563  0.00  0.00    +0.046 C 
ATOM     16  H   UNL     1       0.099  -6.758   0.851  0.00  0.00    +0.157 HD
ENDBRANCH   1  13
BRANCH   1  17
ATOM     17  S   UNL     1       0.136  -8.217   4.972  0.00  0.00    -0.144 S 
BRANCH  17  18
ATOM     18  C   UNL     1       0.162 -10.018   5.186  0.00  0.00    +0.143 C 
BRANCH  18  19
ATOM     19  C   UNL     1       0.172 -10.349   6.656  0.00  0.00    +0.133 C 
ATOM     20  N   UNL     1       0.157  -9.360   7.517  0.00  0.00    -0.161 NA
ATOM     21  C   UNL     1       0.158  -9.552   8.840  0.00  0.00    +0.271 C 
ATOM     22  O   UNL     1       0.150  -8.608   9.611  0.00  0.00    -0.268 OA
ATOM     23  C   UNL     1       0.168 -10.960   9.345  0.00  0.00    +0.071 C 
ATOM     24  C   UNL     1       0.049 -11.395  10.612  0.00  0.00    -0.042 C 
ATOM     25  C   UNL     1      -0.396 -10.926  11.995  0.00  0.00    +0.033 C 
ATOM     26  C   UNL     1      -1.089 -12.140  12.649  0.00  0.00    +0.006 C 
ATOM     27  C   UNL     1      -0.921 -13.314  11.650  0.00  0.00    +0.019 C 
ATOM     28  C   UNL     1       0.317 -12.884  10.840  0.00  0.00    +0.079 C 
ATOM     29  S   UNL     1       0.256 -13.535   9.132  0.00  0.00    -0.097 S 
ATOM     30  C   UNL     1       0.203 -11.981   8.275  0.00  0.00    +0.111 C 
ATOM     31  N   UNL     1       0.191 -11.624   7.013  0.00  0.00    -0.227 NA
ENDBRANCH  18  19
ENDBRANCH  17  18
ENDBRANCH   1  17
TORSDOF 4
