REMARK  Name = ZINC13063859
REMARK  11 active torsions:
REMARK  status: ('A' for Active; 'I' for Inactive)
REMARK    1  A    between atoms: C_1  and  C_2
REMARK    2  A    between atoms: C_2  and  C_3
REMARK    3  A    between atoms: C_3  and  C_5
REMARK    4  A    between atoms: C_3  and  N_66
REMARK    5  A    between atoms: N_9  and  C_10
REMARK    6  A    between atoms: C_10  and  C_11
REMARK    7  A    between atoms: C_17  and  C_18
REMARK    8  A    between atoms: C_17  and  N_66
REMARK    9  A    between atoms: C_24  and  C_25
REMARK   10  A    between atoms: C_24  and  N_66
REMARK   11  A    between atoms: C_30  and  C_37
REMARK                            x       y       z     vdW  Elec       q    Type
REMARK                         _______ _______ _______ _____ _____    ______ ____
ROOT
ATOM      1  N   UNL     1       5.955   2.268  -1.950  0.00  0.00    +0.392 N 
ATOM      2  H   UNL     1       6.504   3.069  -1.616  0.00  0.00    -0.080 HD
ENDROOT
BRANCH   1   3
ATOM      3  C   UNL     1       4.624   2.297  -1.307  0.00  0.00    +0.003 C 
BRANCH   3   4
ATOM      4  C   UNL     1       3.841   1.058  -1.657  0.00  0.00    +0.138 A 
ATOM      5  N   UNL     1       4.284  -0.175  -1.650  0.00  0.00    -0.115 NA
ATOM      6  N   UNL     1       3.317  -0.947  -2.013  0.00  0.00    -0.023 NA
ATOM      7  N   UNL     1       2.268  -0.238  -2.246  0.00  0.00    -0.044 NA
ATOM      8  N   UNL     1       2.550   1.003  -2.035  0.00  0.00    -0.226 N 
BRANCH   8   9
ATOM      9  C   UNL     1       1.638   2.140  -2.184  0.00  0.00    +0.182 C 
BRANCH   9  10
ATOM     10  C   UNL     1       0.928   2.389  -0.878  0.00  0.00    -0.026 A 
ATOM     11  C   UNL     1       1.478   3.250   0.054  0.00  0.00    +0.005 A 
ATOM     12  C   UNL     1       0.828   3.478   1.252  0.00  0.00    +0.000 A 
ATOM     13  C   UNL     1      -0.370   2.843   1.521  0.00  0.00    +0.000 A 
ATOM     14  C   UNL     1      -0.923   1.987   0.586  0.00  0.00    +0.000 A 
ATOM     15  C   UNL     1      -0.272   1.758  -0.612  0.00  0.00    +0.005 A 
ENDBRANCH   9  10
ENDBRANCH   8   9
ENDBRANCH   3   4
BRANCH   3  17
ATOM     16  C   UNL     1       5.529   3.672   0.572  0.00  0.00    +0.002 C 
ATOM     17  C   UNL     1       4.809   2.372   0.210  0.00  0.00    -0.011 C 
ENDBRANCH   3  17
ENDBRANCH   1   3
BRANCH   1  18
ATOM     18  C   UNL     1       5.809   2.364  -3.418  0.00  0.00    -0.042 C 
BRANCH  18  19
ATOM     19  C   UNL     1       5.429   3.778  -3.775  0.00  0.00    -0.064 A 
ATOM     20  C   UNL     1       4.104   4.102  -3.997  0.00  0.00    +0.002 A 
ATOM     21  C   UNL     1       3.754   5.400  -4.320  0.00  0.00    +0.000 A 
ATOM     22  C   UNL     1       4.731   6.371  -4.431  0.00  0.00    +0.000 A 
ATOM     23  C   UNL     1       6.058   6.046  -4.214  0.00  0.00    +0.000 A 
ATOM     24  C   UNL     1       6.406   4.749  -3.886  0.00  0.00    +0.002 A 
ENDBRANCH  18  19
ENDBRANCH   1  18
BRANCH   1  25
ATOM     25  C   UNL     1       6.661   1.019  -1.593  0.00  0.00    -0.036 C 
BRANCH  25  26
ATOM     26  C   UNL     1       8.122   1.178  -1.924  0.00  0.00    +0.001 A 
ATOM     27  C   UNL     1       8.991   1.589  -0.967  0.00  0.00    +0.017 A 
ATOM     28  C   UNL     1      10.404   1.734  -1.321  0.00  0.00    -0.001 A 
ATOM     29  C   UNL     1      11.347   2.154  -0.376  0.00  0.00    +0.010 A 
ATOM     30  C   UNL     1      12.658   2.278  -0.738  0.00  0.00    +0.004 A 
ATOM     31  C   UNL     1      13.064   1.991  -2.035  0.00  0.00    -0.048 A 
ATOM     32  C   UNL     1      12.152   1.576  -2.981  0.00  0.00    +0.029 A 
ATOM     33  C   UNL     1      10.811   1.442  -2.636  0.00  0.00    +0.049 A 
ATOM     34  N   UNL     1       9.878   1.028  -3.562  0.00  0.00    -0.322 N 
ATOM     35  H   UNL     1      10.161   0.827  -4.468  0.00  0.00    +0.169 HD
ATOM     36  C   UNL     1       8.583   0.893  -3.227  0.00  0.00    +0.251 A 
ATOM     37  O   UNL     1       7.787   0.520  -4.070  0.00  0.00    -0.268 OA
ATOM     38  C   UNL     1      14.516   2.136  -2.411  0.00  0.00    +0.044 C 
ENDBRANCH  25  26
ENDBRANCH   1  25
TORSDOF 9
