REMARK  Name = ZINC36629382
REMARK  6 active torsions:
REMARK  status: ('A' for Active; 'I' for Inactive)
REMARK    1  A    between atoms: C_1  and  N_2
REMARK    2  A    between atoms: C_8  and  N_13
REMARK    3  A    between atoms: C_9  and  C_10
REMARK    4  A    between atoms: C_14  and  C_16
REMARK    5  A    between atoms: C_16  and  O_17
REMARK    6  A    between atoms: O_17  and  C_18
REMARK                            x       y       z     vdW  Elec       q    Type
REMARK                         _______ _______ _______ _____ _____    ______ ____
ROOT
ATOM      1  C   UNL     1      -0.018   1.465   0.010  0.00  0.00    -0.096 C 
ATOM      2  N   UNL     1       0.002  -0.004   0.002  0.00  0.00    +0.381 N 
ATOM      3  C   UNL     1      -1.376  -0.512   0.008  0.00  0.00    -0.074 C 
ATOM      4  C   UNL     1      -1.389  -2.010  -0.313  0.00  0.00    +0.018 C 
ATOM      5  C   UNL     1      -0.409  -2.698   0.626  0.00  0.00    -0.027 A 
ATOM      6  C   UNL     1       0.522  -1.973   1.288  0.00  0.00    -0.021 A 
ATOM      7  S   UNL     1       1.416  -3.159   2.244  0.00  0.00    -0.079 S 
ATOM      8  C   UNL     1       0.605  -4.560   1.793  0.00  0.00    +0.084 A 
ATOM      9  C   UNL     1      -0.363  -4.120   0.903  0.00  0.00    +0.068 A 
ATOM     10  C   UNL     1       0.715  -0.492   1.197  0.00  0.00    -0.036 C 
ATOM     11  H   UNL     1       0.475  -0.329  -0.828  0.00  0.00    -0.082 HD
ENDROOT
BRANCH   9  12
ATOM     12  C   UNL     1      -1.299  -5.053   0.268  0.00  0.00    +0.244 C 
ATOM     13  O   UNL     1      -1.013  -5.574  -0.794  0.00  0.00    -0.270 OA
ATOM     14  N   UNL     1      -2.476  -5.334   0.861  0.00  0.00    -0.325 N 
ATOM     15  H   UNL     1      -2.704  -4.919   1.707  0.00  0.00    +0.145 HD
ATOM     16  H   UNL     1      -3.096  -5.952   0.441  0.00  0.00    +0.145 HD
ENDBRANCH   9  12
BRANCH   8  17
ATOM     17  N   UNL     1       0.848  -5.858   2.215  0.00  0.00    -0.277 N 
ATOM     18  C   UNL     1       1.839  -6.107   3.094  0.00  0.00    +0.255 C 
ATOM     19  O   UNL     1       2.519  -5.196   3.515  0.00  0.00    -0.272 OA
ATOM     20  H   UNL     1       0.305  -6.588   1.878  0.00  0.00    +0.155 HD
BRANCH  18  21
ATOM     21  C   UNL     1       2.103  -7.518   3.552  0.00  0.00    +0.324 C 
BRANCH  21  22
ATOM     22  O   UNL     1       3.195  -7.523   4.475  0.00  0.00    -0.483 OA
BRANCH  22  23
ATOM     23  C   UNL     1       3.564  -8.726   4.987  0.00  0.00    +0.122 A 
ATOM     24  C   UNL     1       2.881  -9.882   4.596  0.00  0.00    +0.046 A 
ATOM     25  C   UNL     1       3.227 -11.100   5.091  0.00  0.00    +0.012 A 
ATOM     26  C   UNL     1       4.286 -11.204   6.010  0.00  0.00    -0.018 A 
ATOM     27  C   UNL     1       4.670 -12.447   6.542  0.00  0.00    +0.008 A 
ATOM     28  C   UNL     1       5.700 -12.511   7.429  0.00  0.00    +0.001 A 
ATOM     29  C   UNL     1       6.383 -11.360   7.820  0.00  0.00    +0.001 A 
ATOM     30  C   UNL     1       6.039 -10.140   7.327  0.00  0.00    +0.008 A 
ATOM     31  C   UNL     1       4.980 -10.034   6.408  0.00  0.00    -0.014 A 
ATOM     32  C   UNL     1       4.601  -8.791   5.874  0.00  0.00    +0.054 A 
ENDBRANCH  22  23
ENDBRANCH  21  22
ENDBRANCH  18  21
ENDBRANCH   8  17
TORSDOF 5
