REMARK  Name = ZINC28867316
REMARK  4 active torsions:
REMARK  status: ('A' for Active; 'I' for Inactive)
REMARK    1  A    between atoms: C_1  and  C_2
REMARK    2  A    between atoms: C_3  and  C_25
REMARK    3  A    between atoms: C_6  and  C_22
REMARK    4  A    between atoms: C_12  and  C_16
REMARK                            x       y       z     vdW  Elec       q    Type
REMARK                         _______ _______ _______ _____ _____    ______ ____
ROOT
ATOM      1  C   UNL     1      -1.210  -0.900   0.009  0.00  0.00    +0.065 C 
ATOM      2  C   UNL     1       0.002  -0.004   0.002  0.00  0.00    +0.034 A 
ATOM      3  C   UNL     1       1.288  -0.418  -0.013  0.00  0.00    +0.041 A 
ATOM      4  N   UNL     1       2.072   0.705  -0.014  0.00  0.00    -0.301 N 
ATOM      5  C   UNL     1       3.421   0.882  -0.025  0.00  0.00    +0.108 A 
ATOM      6  C   UNL     1       3.953   2.137  -0.026  0.00  0.00    +0.086 A 
ATOM      7  C   UNL     1       3.101   3.275  -0.014  0.00  0.00    +0.014 A 
ATOM      8  C   UNL     1       1.757   3.101   0.003  0.00  0.00    +0.166 A 
ATOM      9  C   UNL     1       1.228   1.784  -0.000  0.00  0.00    +0.159 A 
ATOM     10  N   UNL     1      -0.016   1.331   0.009  0.00  0.00    -0.340 N 
ATOM     11  O   UNL     1       0.892   4.148   0.024  0.00  0.00    -0.480 OA
ATOM     12  C   UNL     1       1.390   5.436  -0.343  0.00  0.00    +0.204 C 
ATOM     13  C   UNL     1       2.692   5.686   0.429  0.00  0.00    +0.054 C 
ATOM     14  C   UNL     1       3.723   4.648  -0.024  0.00  0.00    +0.044 C 
ATOM     15  C   UNL     1       1.768  -1.846  -0.025  0.00  0.00    +0.066 C 
ATOM     16  H   UNL     1      -0.976   1.869   0.021  0.00  0.00    +0.167 HD
ENDROOT
BRANCH  12  17
ATOM     17  C   UNL     1       0.377   6.493   0.013  0.00  0.00    -0.007 A 
ATOM     18  C   UNL     1      -0.348   6.388   1.185  0.00  0.00    +0.007 A 
ATOM     19  C   UNL     1      -1.274   7.360   1.514  0.00  0.00    +0.000 A 
ATOM     20  C   UNL     1      -1.482   8.432   0.666  0.00  0.00    +0.000 A 
ATOM     21  C   UNL     1      -0.761   8.534  -0.509  0.00  0.00    +0.000 A 
ATOM     22  C   UNL     1       0.168   7.564  -0.835  0.00  0.00    +0.007 A 
ENDBRANCH  12  17
BRANCH   6  23
ATOM     23  C   UNL     1       5.417   2.315  -0.039  0.00  0.00    +0.388 C 
ATOM     24  O   UNL     1       5.893   3.433  -0.040  0.00  0.00    -0.241 OA
ATOM     25  O   UNL     1       6.226   1.238  -0.051  0.00  0.00    -0.241 OA
ENDBRANCH   6  23
TORSDOF 2
