REMARK  Name = ZINC14033489
REMARK  11 active torsions:
REMARK  status: ('A' for Active; 'I' for Inactive)
REMARK    1  A    between atoms: C_1  and  C_2
REMARK    2  A    between atoms: C_4  and  C_34
REMARK    3  A    between atoms: C_6  and  N_8
REMARK    4  A    between atoms: N_8  and  S_9
REMARK    5  A    between atoms: S_9  and  C_12
REMARK    6  A    between atoms: C_15  and  N_18
REMARK    7  A    between atoms: C_19  and  C_21
REMARK    8  A    between atoms: C_21  and  C_23
REMARK    9  A    between atoms: C_21  and  O_24
REMARK   10  A    between atoms: O_24  and  C_25
REMARK   11  A    between atoms: C_30  and  N_31
REMARK                            x       y       z     vdW  Elec       q    Type
REMARK                         _______ _______ _______ _____ _____    ______ ____
ROOT
ATOM      1  C   UNL     1      -0.487   4.638   0.692  0.00  0.00    +0.109 A 
ATOM      2  C   UNL     1       0.762   4.771   1.268  0.00  0.00    +0.030 A 
ATOM      3  C   UNL     1       1.578   5.828   0.916  0.00  0.00    +0.025 A 
ATOM      4  C   UNL     1       1.137   6.765  -0.010  0.00  0.00    +0.034 A 
ATOM      5  C   UNL     1      -0.121   6.631  -0.583  0.00  0.00    +0.025 A 
ATOM      6  C   UNL     1      -0.929   5.569  -0.230  0.00  0.00    +0.030 A 
ENDROOT
BRANCH   4   7
ATOM      7  N   UNL     1       1.959   7.840  -0.365  0.00  0.00    -0.282 N 
ATOM      8  C   UNL     1       1.413   9.033  -0.672  0.00  0.00    +0.258 C 
ATOM      9  O   UNL     1       0.217   9.201  -0.555  0.00  0.00    -0.271 OA
ATOM     10  H   UNL     1       2.922   7.727  -0.390  0.00  0.00    +0.155 HD
BRANCH   8  11
ATOM     11  C   UNL     1       2.287  10.159  -1.162  0.00  0.00    +0.256 C 
ATOM     12  C   UNL     1       2.895   9.780  -2.514  0.00  0.00    +0.062 C 
BRANCH  11  13
ATOM     13  O   UNL     1       1.501  11.343  -1.308  0.00  0.00    -0.478 OA
BRANCH  13  14
ATOM     14  C   UNL     1       2.155  12.531  -1.226  0.00  0.00    +0.152 A 
ATOM     15  C   UNL     1       3.539  12.557  -1.124  0.00  0.00    +0.048 A 
ATOM     16  C   UNL     1       4.202  13.766  -1.042  0.00  0.00    +0.004 A 
ATOM     17  C   UNL     1       3.488  14.950  -1.061  0.00  0.00    +0.002 A 
ATOM     18  C   UNL     1       2.109  14.927  -1.163  0.00  0.00    +0.036 A 
ATOM     19  C   UNL     1       1.442  13.721  -1.250  0.00  0.00    +0.168 A 
BRANCH  19  20
ATOM     20  N   UNL     1      -0.034  13.697  -1.365  0.00  0.00    +0.060 N 
ATOM     21  O   UNL     1      -0.660  14.742  -1.386  0.00  0.00    -0.126 OA
ATOM     22  O   UNL     1      -0.622  12.633  -1.438  0.00  0.00    -0.126 OA
ENDBRANCH  19  20
ENDBRANCH  13  14
ENDBRANCH  11  13
ENDBRANCH   8  11
ENDBRANCH   4   7
BRANCH   1  23
ATOM     23  S   UNL     1      -1.522   3.283   1.139  0.00  0.00    +0.072 S 
ATOM     24  O   UNL     1      -2.847   3.646   0.773  0.00  0.00    -0.150 OA
ATOM     25  O   UNL     1      -1.170   2.925   2.468  0.00  0.00    -0.150 OA
BRANCH  23  26
ATOM     26  N   UNL     1      -1.099   2.005   0.175  0.00  0.00    -0.216 N 
ATOM     27  H   UNL     1      -1.731   1.654  -0.471  0.00  0.00    +0.174 HD
BRANCH  26  33
ATOM     28  C   UNL     1       3.439   1.368  -1.602  0.00  0.00    +0.044 C 
ATOM     29  C   UNL     1       2.388   1.103  -0.555  0.00  0.00    -0.048 A 
ATOM     30  C   UNL     1       2.678   0.286   0.522  0.00  0.00    +0.006 A 
ATOM     31  C   UNL     1       1.716   0.040   1.486  0.00  0.00    -0.048 A 
ATOM     32  C   UNL     1       0.464   0.610   1.375  0.00  0.00    +0.028 A 
ATOM     33  C   UNL     1       0.169   1.431   0.293  0.00  0.00    +0.049 A 
ATOM     34  C   UNL     1       1.137   1.676  -0.672  0.00  0.00    +0.028 A 
ATOM     35  C   UNL     1       2.037  -0.851   2.658  0.00  0.00    +0.044 C 
ENDBRANCH  26  33
ENDBRANCH  23  26
ENDBRANCH   1  23
TORSDOF 8
