REMARK  Name = ZINC48561076
REMARK  3 active torsions:
REMARK  status: ('A' for Active; 'I' for Inactive)
REMARK    1  A    between atoms: C_1  and  N_2
REMARK    2  A    between atoms: N_2  and  C_3
REMARK    3  A    between atoms: C_3  and  C_4
REMARK                            x       y       z     vdW  Elec       q    Type
REMARK                         _______ _______ _______ _____ _____    ______ ____
ROOT
ATOM      1  C   UNL     1      -0.018   1.461   0.010  0.00  0.00    +0.131 C 
ATOM      2  N   UNL     1       0.002  -0.004   0.002  0.00  0.00    -0.313 N 
ATOM      3  C   UNL     1       0.000  -0.690  -1.202  0.00  0.00    +0.128 A 
ATOM      4  C   UNL     1       0.090   0.001  -2.411  0.00  0.00    +0.084 A 
ATOM      5  C   UNL     1       0.085  -0.725  -3.588  0.00  0.00    +0.136 A 
ATOM      6  N   UNL     1      -0.005  -2.047  -3.533  0.00  0.00    -0.203 NA
ATOM      7  C   UNL     1      -0.089  -2.676  -2.370  0.00  0.00    +0.216 A 
ATOM      8  N   UNL     1      -0.082  -2.017  -1.221  0.00  0.00    -0.200 NA
ATOM      9  N   UNL     1      -0.181  -4.057  -2.355  0.00  0.00    -0.327 N 
ATOM     10 CL   UNL     1       0.194   0.085  -5.119  0.00  0.00    -0.062 Cl
ATOM     11  H   UNL     1      -0.184  -4.552  -3.189  0.00  0.00    +0.145 HD
ATOM     12  H   UNL     1      -0.243  -4.530  -1.510  0.00  0.00    +0.145 HD
ENDROOT
BRANCH   2  13
ATOM     13  C   UNL     1       0.024  -0.743   1.267  0.00  0.00    +0.148 C 
BRANCH  13  14
ATOM     14  C   UNL     1      -1.389  -1.016   1.714  0.00  0.00    +0.008 A 
ATOM     15  C   UNL     1      -2.180  -2.082   1.440  0.00  0.00    +0.028 A 
ATOM     16  C   UNL     1      -3.459  -2.120   1.964  0.00  0.00    +0.025 A 
ATOM     17  C   UNL     1      -3.883  -1.090   2.737  0.00  0.00    +0.060 A 
ATOM     18  S   UNL     1      -2.452  -0.023   2.748  0.00  0.00    -0.099 S 
ATOM     19 BR   UNL     1      -4.599  -3.587   1.609  0.00  0.00    -0.050 Br
ENDBRANCH  13  14
ENDBRANCH   2  13
TORSDOF 2
