REMARK  Name = ZINC20876509
REMARK  9 active torsions:
REMARK  status: ('A' for Active; 'I' for Inactive)
REMARK    1  A    between atoms: C_4  and  C_7
REMARK    2  A    between atoms: C_7  and  C_9
REMARK    3  A    between atoms: C_7  and  O_28
REMARK    4  A    between atoms: C_9  and  N_10
REMARK    5  A    between atoms: N_10  and  C_11
REMARK    6  A    between atoms: C_11  and  C_12
REMARK    7  A    between atoms: C_15  and  O_19
REMARK    8  A    between atoms: O_19  and  C_20
REMARK    9  A    between atoms: C_20  and  C_21
REMARK                            x       y       z     vdW  Elec       q    Type
REMARK                         _______ _______ _______ _____ _____    ______ ____
ROOT
ATOM      1  C   UNL     1      -5.310   4.331   1.939  0.00  0.00    -0.032 A 
ATOM      2  C   UNL     1      -4.855   4.081   0.657  0.00  0.00    +0.008 A 
ATOM      3  C   UNL     1      -3.660   3.414   0.464  0.00  0.00    +0.047 A 
ATOM      4  C   UNL     1      -2.917   2.995   1.558  0.00  0.00    +0.135 A 
ATOM      5  C   UNL     1      -3.378   3.243   2.843  0.00  0.00    +0.060 A 
ATOM      6  C   UNL     1      -4.571   3.915   3.030  0.00  0.00    +0.023 A 
ATOM      7 BR   UNL     1      -2.371   2.667   4.337  0.00  0.00    -0.047 Br
ENDROOT
BRANCH   1   8
ATOM      8  C   UNL     1      -6.614   5.058   2.146  0.00  0.00    +0.116 C 
BRANCH   8   9
ATOM      9  N   UNL     1      -7.712   4.085   2.209  0.00  0.00    -0.309 NA
ATOM     10  H   UNL     1      -7.525   3.395   3.045  0.00  0.00    +0.122 HD
BRANCH   9  11
ATOM     11  C   UNL     1      -9.002   4.759   2.410  0.00  0.00    +0.117 C 
BRANCH  11  12
ATOM     12  C   UNL     1     -10.119   3.716   2.471  0.00  0.00    +0.158 C 
BRANCH  12  16
ATOM     13  C   UNL     1     -13.900   5.689   2.707  0.00  0.00    +0.000 A 
ATOM     14  C   UNL     1     -13.454   5.193   1.496  0.00  0.00    +0.000 A 
ATOM     15  C   UNL     1     -12.231   4.554   1.420  0.00  0.00    +0.006 A 
ATOM     16  C   UNL     1     -11.453   4.412   2.554  0.00  0.00    -0.018 A 
ATOM     17  C   UNL     1     -11.901   4.904   3.765  0.00  0.00    +0.006 A 
ATOM     18  C   UNL     1     -13.123   5.547   3.841  0.00  0.00    +0.000 A 
ENDBRANCH  12  16
BRANCH  12  19
ATOM     19  O   UNL     1      -9.939   2.891   3.624  0.00  0.00    -0.386 OA
ATOM     20  H   UNL     1      -9.018   2.301   3.740  0.00  0.00    +0.210 HD
ENDBRANCH  12  19
ENDBRANCH  11  12
ENDBRANCH   9  11
ENDBRANCH   8   9
ENDBRANCH   1   8
BRANCH   4  21
ATOM     21  O   UNL     1      -1.741   2.339   1.370  0.00  0.00    -0.486 OA
BRANCH  21  22
ATOM     22  C   UNL     1      -1.332   2.114   0.020  0.00  0.00    +0.264 C 
BRANCH  22  23
ATOM     23  C   UNL     1      -0.017   1.378   0.010  0.00  0.00    -0.010 A 
ATOM     24  C   UNL     1       1.171   2.086   0.002  0.00  0.00    +0.008 A 
ATOM     25  C   UNL     1       2.377   1.412  -0.013  0.00  0.00    +0.020 A 
ATOM     26  C   UNL     1       2.397   0.029  -0.021  0.00  0.00    +0.041 A 
ATOM     27  C   UNL     1       1.208  -0.679  -0.013  0.00  0.00    +0.020 A 
ATOM     28  C   UNL     1       0.002  -0.004   0.002  0.00  0.00    +0.008 A 
ATOM     29 CL   UNL     1       3.912  -0.818  -0.039  0.00  0.00    -0.084 Cl
ENDBRANCH  22  23
ENDBRANCH  21  22
ENDBRANCH   4  21
TORSDOF 9
