REMARK  Name = ZINC02122125
REMARK  4 active torsions:
REMARK  status: ('A' for Active; 'I' for Inactive)
REMARK    1  A    between atoms: C_1  and  C_2
REMARK    2  A    between atoms: C_11  and  C_12
REMARK    3  A    between atoms: C_11  and  N_49
REMARK    4  A    between atoms: C_12  and  C_13
REMARK                            x       y       z     vdW  Elec       q    Type
REMARK                         _______ _______ _______ _____ _____    ______ ____
ROOT
ATOM      1  C   UNL     1      -7.508  -3.698   1.162  0.00  0.00    +0.051 C 
ATOM      2  C   UNL     1      -7.580  -2.262   0.713  0.00  0.00    +0.034 A 
ATOM      3  C   UNL     1      -8.764  -1.759   0.192  0.00  0.00    +0.146 A 
ATOM      4  C   UNL     1      -8.815  -0.421  -0.223  0.00  0.00    +0.026 A 
ATOM      5  C   UNL     1      -7.686   0.389  -0.112  0.00  0.00    +0.017 A 
ATOM      6  C   UNL     1      -6.516  -0.123   0.406  0.00  0.00    -0.021 A 
ATOM      7  C   UNL     1      -6.461  -1.449   0.821  0.00  0.00    +0.125 A 
ATOM      8  O   UNL     1      -5.315  -1.968   1.337  0.00  0.00    -0.509 OA
ATOM      9  C   UNL     1      -4.107  -1.241   1.102  0.00  0.00    +0.157 C 
ATOM     10  C   UNL     1      -5.304   0.768   0.512  0.00  0.00    -0.034 C 
ATOM     11  C   UNL     1     -10.075   0.112  -0.775  0.00  0.00    -0.000 A 
ATOM     12  C   UNL     1     -10.193   1.429  -1.204  0.00  0.00    +0.009 A 
ATOM     13  C   UNL     1     -11.397   1.874  -1.711  0.00  0.00    +0.001 A 
ATOM     14  C   UNL     1     -12.487   1.020  -1.797  0.00  0.00    +0.001 A 
ATOM     15  C   UNL     1     -12.389  -0.289  -1.377  0.00  0.00    +0.015 A 
ATOM     16  C   UNL     1     -11.182  -0.758  -0.861  0.00  0.00    +0.067 A 
ATOM     17  C   UNL     1     -11.023  -2.144  -0.399  0.00  0.00    +0.345 A 
ATOM     18  O   UNL     1     -11.962  -2.914  -0.462  0.00  0.00    -0.245 OA
ATOM     19  O   UNL     1      -9.846  -2.563   0.093  0.00  0.00    -0.421 OA
ATOM     20  N   UNL     1      -4.348   0.171   1.463  0.00  0.00    +0.405 N 
ATOM     21  H   UNL     1      -4.745   0.212   2.409  0.00  0.00    -0.076 HD
ENDROOT
BRANCH  20  22
ATOM     22  C   UNL     1      -3.074   0.925   1.442  0.00  0.00    -0.069 C 
BRANCH  22  23
ATOM     23  C   UNL     1      -2.514   0.979   0.019  0.00  0.00    +0.018 C 
BRANCH  23  24
ATOM     24  C   UNL     1      -1.219   1.750   0.017  0.00  0.00    -0.031 A 
ATOM     25  C   UNL     1      -0.013   1.076   0.008  0.00  0.00    +0.006 A 
ATOM     26  C   UNL     1       1.175   1.783   0.000  0.00  0.00    +0.020 A 
ATOM     27  C   UNL     1       1.157   3.166   0.008  0.00  0.00    +0.042 A 
ATOM     28  C   UNL     1      -0.050   3.842   0.023  0.00  0.00    +0.040 A 
ATOM     29  C   UNL     1      -1.238   3.134   0.031  0.00  0.00    +0.045 A 
ATOM     30 CL   UNL     1      -2.754   3.981   0.049  0.00  0.00    -0.083 Cl
ATOM     31 CL   UNL     1       2.648   4.054  -0.001  0.00  0.00    -0.083 Cl
ENDBRANCH  23  24
ENDBRANCH  22  23
ENDBRANCH  20  22
TORSDOF 3
