REMARK  Name = ZINC05001205
REMARK  7 active torsions:
REMARK  status: ('A' for Active; 'I' for Inactive)
REMARK    1  A    between atoms: C_1  and  C_2
REMARK    2  A    between atoms: C_2  and  O_3
REMARK    3  A    between atoms: O_3  and  C_4
REMARK    4  A    between atoms: C_6  and  C_14
REMARK    5  A    between atoms: C_9  and  O_10
REMARK    6  A    between atoms: O_10  and  C_11
REMARK    7  A    between atoms: C_11  and  C_12
REMARK                            x       y       z     vdW  Elec       q    Type
REMARK                         _______ _______ _______ _____ _____    ______ ____
ROOT
ATOM      1  C   UNL     1       1.180   2.091   0.002  0.00  0.00    +0.164 A 
ATOM      2  C   UNL     1       2.386   1.409  -0.013  0.00  0.00    +0.058 A 
ATOM      3  C   UNL     1       2.399   0.026  -0.021  0.00  0.00    +0.016 A 
ATOM      4  C   UNL     1       1.210  -0.679  -0.013  0.00  0.00    +0.032 A 
ATOM      5  C   UNL     1       0.002  -0.004   0.002  0.00  0.00    +0.087 A 
ATOM      6  C   UNL     1      -0.017   1.382   0.010  0.00  0.00    +0.180 A 
ATOM      7 CL   UNL     1      -1.489  -0.893   0.011  0.00  0.00    -0.080 Cl
ENDROOT
BRANCH   3   8
ATOM      8  C   UNL     1       3.711  -0.714  -0.037  0.00  0.00    +0.294 C 
ATOM      9  N   UNL     1       3.554  -1.989   0.663  0.00  0.00    -0.273 N 
ATOM     10  C   UNL     1       3.117  -3.082  -0.004  0.00  0.00    +0.250 C 
ATOM     11  O   UNL     1       2.925  -4.135   0.571  0.00  0.00    -0.270 OA
ATOM     12  C   UNL     1       2.883  -2.950  -1.457  0.00  0.00    +0.078 A 
ATOM     13  C   UNL     1       2.158  -3.900  -2.171  0.00  0.00    +0.017 A 
ATOM     14  C   UNL     1       1.968  -3.729  -3.527  0.00  0.00    +0.001 A 
ATOM     15  C   UNL     1       2.493  -2.623  -4.175  0.00  0.00    +0.004 A 
ATOM     16  C   UNL     1       3.214  -1.674  -3.474  0.00  0.00    +0.046 A 
ATOM     17  C   UNL     1       3.415  -1.829  -2.114  0.00  0.00    +0.136 A 
ATOM     18  O   UNL     1       4.115  -0.923  -1.391  0.00  0.00    -0.466 OA
ATOM     19  H   UNL     1       3.762  -2.051   1.608  0.00  0.00    +0.153 HD
ENDBRANCH   3   8
BRANCH   1  20
ATOM     20  O   UNL     1       1.167   3.451   0.010  0.00  0.00    -0.489 OA
BRANCH  20  22
ATOM     21  C   UNL     1       2.219   5.627   0.012  0.00  0.00    +0.048 C 
ATOM     22  C   UNL     1       2.434   4.112   0.001  0.00  0.00    +0.226 C 
ENDBRANCH  20  22
ENDBRANCH   1  20
BRANCH   6  23
ATOM     23  O   UNL     1      -1.203   2.048   0.019  0.00  0.00    -0.487 OA
BRANCH  23  24
ATOM     24  C   UNL     1      -1.763   2.359   1.296  0.00  0.00    +0.226 C 
ATOM     25  C   UNL     1      -3.086   3.102   1.106  0.00  0.00    +0.048 C 
ENDBRANCH  23  24
ENDBRANCH   6  23
TORSDOF 5
