REMARK  Name = ZINC35744424
REMARK  12 active torsions:
REMARK  status: ('A' for Active; 'I' for Inactive)
REMARK    1  A    between atoms: C_1  and  C_2
REMARK    2  A    between atoms: C_2  and  C_3
REMARK    3  A    between atoms: C_2  and  C_4
REMARK    4  A    between atoms: C_4  and  C_5
REMARK    5  A    between atoms: C_5  and  N_6
REMARK    6  A    between atoms: N_6  and  C_7
REMARK    7  A    between atoms: N_6  and  C_22
REMARK    8  A    between atoms: C_7  and  C_8
REMARK    9  A    between atoms: C_22  and  C_23
REMARK   10  A    between atoms: C_23  and  C_25
REMARK   11  A    between atoms: C_23  and  O_32
REMARK   12  A    between atoms: C_25  and  C_26
REMARK                            x       y       z     vdW  Elec       q    Type
REMARK                         _______ _______ _______ _____ _____    ______ ____
ROOT
ATOM      1  N   UNL     1      -2.753  -2.813  -0.117  0.00  0.00    +0.386 N 
ATOM      2  H   UNL     1      -3.110  -2.537   0.785  0.00  0.00    -0.081 HD
ENDROOT
BRANCH   1   3
ATOM      3  C   UNL     1      -1.360  -2.369  -0.250  0.00  0.00    -0.078 C 
BRANCH   3   4
ATOM      4  C   UNL     1      -1.278  -0.863   0.008  0.00  0.00    -0.016 C 
BRANCH   4   6
ATOM      5  C   UNL     1       0.264   1.099   0.134  0.00  0.00    +0.007 C 
ATOM      6  C   UNL     1       0.188  -0.423   0.001  0.00  0.00    -0.019 C 
ATOM      7  C   UNL     1       0.922  -1.075   1.174  0.00  0.00    +0.007 C 
ENDBRANCH   4   6
ENDBRANCH   3   4
ENDBRANCH   1   3
BRANCH   1   8
ATOM      8  C   UNL     1      -3.566  -2.197  -1.175  0.00  0.00    -0.003 C 
BRANCH   8   9
ATOM      9  C   UNL     1      -5.021  -2.510  -0.937  0.00  0.00    +0.094 A 
ATOM     10  N   UNL     1      -5.941  -2.150  -1.868  0.00  0.00    -0.312 N 
ATOM     11  H   UNL     1      -5.649  -1.696  -2.674  0.00  0.00    +0.170 HD
ATOM     12  C   UNL     1      -7.251  -2.410  -1.696  0.00  0.00    +0.260 A 
ATOM     13  O   UNL     1      -8.066  -2.081  -2.540  0.00  0.00    -0.267 OA
ATOM     14  C   UNL     1      -7.669  -3.082  -0.501  0.00  0.00    +0.075 A 
ATOM     15  C   UNL     1      -9.033  -3.465  -0.106  0.00  0.00    -0.023 A 
ATOM     16  C   UNL     1      -9.169  -4.092   1.075  0.00  0.00    -0.004 A 
ATOM     17  S   UNL     1      -7.518  -4.213   1.725  0.00  0.00    -0.073 S 
ATOM     18  C   UNL     1      -6.650  -3.415   0.401  0.00  0.00    +0.116 A 
ATOM     19  N   UNL     1      -5.373  -3.129   0.159  0.00  0.00    -0.229 NA
ATOM     20  C   UNL     1     -10.604  -4.430   1.377  0.00  0.00    +0.043 C 
ATOM     21  C   UNL     1     -11.422  -3.543   0.411  0.00  0.00    +0.010 C 
ATOM     22  C   UNL     1     -10.420  -3.325  -0.739  0.00  0.00    +0.037 C 
ENDBRANCH   8   9
ENDBRANCH   1   8
BRANCH   1  23
ATOM     23  C   UNL     1      -2.815  -4.276  -0.242  0.00  0.00    -0.046 C 
BRANCH  23  24
ATOM     24  C   UNL     1      -2.072  -4.919   0.931  0.00  0.00    +0.102 C 
BRANCH  24  25
ATOM     25  O   UNL     1      -2.752  -4.614   2.150  0.00  0.00    -0.393 OA
ATOM     26  H   UNL     1      -3.665  -4.932   2.182  0.00  0.00    +0.210 HD
ENDBRANCH  24  25
BRANCH  24  27
ATOM     27  C   UNL     1      -2.029  -6.436   0.737  0.00  0.00    +0.064 C 
BRANCH  27  28
ATOM     28  C   UNL     1      -1.193  -7.058   1.825  0.00  0.00    -0.045 A 
ATOM     29  C   UNL     1       0.168  -7.223   1.643  0.00  0.00    +0.004 A 
ATOM     30  C   UNL     1       0.934  -7.793   2.642  0.00  0.00    +0.000 A 
ATOM     31  C   UNL     1       0.341  -8.199   3.822  0.00  0.00    +0.000 A 
ATOM     32  C   UNL     1      -1.020  -8.033   4.005  0.00  0.00    +0.000 A 
ATOM     33  C   UNL     1      -1.786  -7.459   3.008  0.00  0.00    +0.004 A 
ENDBRANCH  27  28
ENDBRANCH  24  27
ENDBRANCH  23  24
ENDBRANCH   1  23
TORSDOF 10
