REMARK  Name = ZINC39520922
REMARK  3 active torsions:
REMARK  status: ('A' for Active; 'I' for Inactive)
REMARK    1  A    between atoms: C_4  and  C_7
REMARK    2  A    between atoms: C_7  and  N_8
REMARK    3  A    between atoms: C_18  and  O_21
REMARK                            x       y       z     vdW  Elec       q    Type
REMARK                         _______ _______ _______ _____ _____    ______ ____
ROOT
ATOM      1  N   UNL     1       4.152  -0.952   1.338  0.00  0.00    +0.394 N 
ATOM      2  C   UNL     1       3.042  -1.524   2.094  0.00  0.00    +0.003 C 
ATOM      3  C   UNL     1       3.378  -1.769   3.558  0.00  0.00    -0.004 C 
ATOM      4  C   UNL     1       4.718  -2.499   3.685  0.00  0.00    -0.002 C 
ATOM      5  C   UNL     1       5.782  -1.683   2.952  0.00  0.00    -0.012 C 
ATOM      6  C   UNL     1       5.418  -1.661   1.439  0.00  0.00    -0.061 C 
ATOM      7  C   UNL     1       5.385  -3.111   0.998  0.00  0.00    -0.012 C 
ATOM      8  C   UNL     1       5.452  -3.297  -0.511  0.00  0.00    +0.001 C 
ATOM      9  C   UNL     1       6.743  -2.655  -1.025  0.00  0.00    +0.031 C 
ATOM     10  C   UNL     1       6.715  -1.159  -0.723  0.00  0.00    +0.113 C 
ATOM     11  C   UNL     1       6.545  -0.886   0.760  0.00  0.00    +0.019 C 
ATOM     12 BR   UNL     1       2.371  -3.163   1.249  0.00  0.00    -0.109 Br
ATOM     13  H   UNL     1       4.317  -0.013   1.748  0.00  0.00    -0.079 HD
ENDROOT
BRANCH  10  14
ATOM     14  O   UNL     1       7.963  -0.587  -1.158  0.00  0.00    -0.392 OA
ATOM     15  H   UNL     1       8.136  -0.695  -2.103  0.00  0.00    +0.210 HD
ENDBRANCH  10  14
BRANCH   1  16
ATOM     16  C   UNL     1       3.711  -0.707  -0.038  0.00  0.00    -0.041 C 
BRANCH  16  20
ATOM     17  C   UNL     1       0.249   1.794  -0.001  0.00  0.00    +0.000 A 
ATOM     18  C   UNL     1       1.509   2.359  -0.057  0.00  0.00    +0.000 A 
ATOM     19  C   UNL     1       2.630   1.550  -0.069  0.00  0.00    +0.002 A 
ATOM     20  C   UNL     1       2.490   0.175  -0.024  0.00  0.00    -0.064 A 
ATOM     21  C   UNL     1       1.229  -0.390   0.033  0.00  0.00    +0.002 A 
ATOM     22  C   UNL     1       0.109   0.420   0.043  0.00  0.00    +0.000 A 
ENDBRANCH  16  20
ENDBRANCH   1  16
TORSDOF 3
