REMARK  Name = ZINC38847410
REMARK  12 active torsions:
REMARK  status: ('A' for Active; 'I' for Inactive)
REMARK    1  A    between atoms: C_1  and  C_2
REMARK    2  A    between atoms: C_5  and  S_8
REMARK    3  A    between atoms: S_8  and  N_11
REMARK    4  A    between atoms: C_14  and  C_17
REMARK    5  A    between atoms: N_19  and  C_20
REMARK    6  A    between atoms: C_20  and  C_21
REMARK    7  A    between atoms: C_21  and  C_22
REMARK    8  A    between atoms: C_22  and  N_23
REMARK    9  A    between atoms: N_23  and  C_24
REMARK   10  A    between atoms: N_23  and  C_25
REMARK   11  A    between atoms: C_29  and  O_35
REMARK   12  A    between atoms: O_35  and  C_36
REMARK                            x       y       z     vdW  Elec       q    Type
REMARK                         _______ _______ _______ _____ _____    ______ ____
ROOT
ATOM      1  C   UNL     1       4.440  -8.624   0.141  0.00  0.00    +0.224 C 
ATOM      2  O   UNL     1       3.740  -7.638   0.051  0.00  0.00    -0.275 OA
ATOM      3  N   UNL     1       5.412  -8.677   1.073  0.00  0.00    -0.250 N 
ATOM      4  C   UNL     1       6.272  -9.764   1.116  0.00  0.00    +0.168 A 
ATOM      5  N   UNL     1       6.342 -10.791   0.303  0.00  0.00    -0.221 NA
ATOM      6  C   UNL     1       7.240 -11.788   0.467  0.00  0.00    +0.122 A 
ATOM      7  C   UNL     1       7.419 -12.945  -0.332  0.00  0.00    +0.146 A 
ATOM      8  C   UNL     1       8.389 -13.868  -0.021  0.00  0.00    +0.048 A 
ATOM      9  C   UNL     1       9.220 -13.702   1.077  0.00  0.00    +0.005 A 
ATOM     10  C   UNL     1       9.072 -12.584   1.877  0.00  0.00    +0.017 A 
ATOM     11  C   UNL     1       8.105 -11.655   1.575  0.00  0.00    +0.044 A 
ATOM     12  S   UNL     1       7.574 -10.117   2.288  0.00  0.00    -0.052 S 
ENDROOT
BRANCH   1  16
ATOM     13  N   UNL     1       3.605 -10.963  -3.288  0.00  0.00    -0.177 NA
ATOM     14  C   UNL     1       2.565 -10.955  -2.250  0.00  0.00    +0.110 C 
ATOM     15  C   UNL     1       2.793  -9.749  -1.333  0.00  0.00    +0.030 C 
ATOM     16  C   UNL     1       4.223  -9.790  -0.789  0.00  0.00    +0.078 C 
ATOM     17  C   UNL     1       5.215  -9.707  -1.951  0.00  0.00    +0.030 C 
ATOM     18  C   UNL     1       5.014 -10.918  -2.875  0.00  0.00    +0.110 C 
BRANCH  13  19
ATOM     19  S   UNL     1       3.196 -11.028  -4.891  0.00  0.00    +0.061 S 
ATOM     20  O   UNL     1       4.291 -10.479  -5.612  0.00  0.00    -0.153 OA
ATOM     21  O   UNL     1       1.878 -10.509  -4.996  0.00  0.00    -0.153 OA
BRANCH  19  26
ATOM     22  C   UNL     1       2.880 -16.857  -6.418  0.00  0.00    +0.044 C 
ATOM     23  C   UNL     1       2.959 -15.401  -6.037  0.00  0.00    -0.050 A 
ATOM     24  C   UNL     1       1.835 -14.748  -5.565  0.00  0.00    +0.005 A 
ATOM     25  C   UNL     1       1.908 -13.413  -5.215  0.00  0.00    +0.029 A 
ATOM     26  C   UNL     1       3.104 -12.731  -5.336  0.00  0.00    +0.105 A 
ATOM     27  C   UNL     1       4.228 -13.384  -5.807  0.00  0.00    +0.029 A 
ATOM     28  C   UNL     1       4.156 -14.720  -6.153  0.00  0.00    +0.005 A 
ENDBRANCH  19  26
ENDBRANCH  13  19
ENDBRANCH   1  16
BRANCH   7  29
ATOM     29  O   UNL     1       6.623 -13.145  -1.416  0.00  0.00    -0.493 OA
ATOM     30  C   UNL     1       6.853 -14.330  -2.181  0.00  0.00    +0.277 C 
ENDBRANCH   7  29
BRANCH   3  31
ATOM     31  C   UNL     1       5.561  -7.587   2.039  0.00  0.00    +0.114 C 
BRANCH  31  32
ATOM     32  C   UNL     1       4.673  -7.859   3.255  0.00  0.00    +0.001 C 
BRANCH  32  33
ATOM     33  C   UNL     1       4.924  -6.790   4.320  0.00  0.00    -0.078 C 
BRANCH  33  34
ATOM     34  N   UNL     1       4.071  -7.051   5.488  0.00  0.00    +0.376 N 
ATOM     35  C   UNL     1       4.397  -6.097   6.556  0.00  0.00    -0.097 C 
ATOM     36  C   UNL     1       2.661  -6.898   5.108  0.00  0.00    -0.097 C 
ATOM     37  H   UNL     1       4.231  -7.992   5.817  0.00  0.00    -0.083 HD
ENDBRANCH  33  34
ENDBRANCH  32  33
ENDBRANCH  31  32
ENDBRANCH   3  31
TORSDOF 8
