REMARK  Name = ZINC00648047
REMARK  11 active torsions:
REMARK  status: ('A' for Active; 'I' for Inactive)
REMARK    1  A    between atoms: C_1  and  C_2
REMARK    2  A    between atoms: C_2  and  O_3
REMARK    3  A    between atoms: O_3  and  C_4
REMARK    4  A    between atoms: C_4  and  C_6
REMARK    5  A    between atoms: C_7  and  C_36
REMARK    6  A    between atoms: C_11  and  C_13
REMARK    7  A    between atoms: C_23  and  C_26
REMARK    8  A    between atoms: C_29  and  O_34
REMARK    9  A    between atoms: C_30  and  O_32
REMARK   10  A    between atoms: O_32  and  C_33
REMARK   11  A    between atoms: O_34  and  C_35
REMARK                            x       y       z     vdW  Elec       q    Type
REMARK                         _______ _______ _______ _____ _____    ______ ____
ROOT
ATOM      1  C   UNL     1       2.517   4.776  -1.241  0.00  0.00    +0.065 C 
ATOM      2  C   UNL     1       2.275   6.098  -1.203  0.00  0.00    +0.016 C 
ATOM      3  N   UNL     1       1.966   6.712  -0.021  0.00  0.00    -0.321 N 
ATOM      4  C   UNL     1       2.275   6.120   1.175  0.00  0.00    +0.016 C 
ATOM      5  C   UNL     1       2.524   4.795   1.239  0.00  0.00    +0.024 C 
ATOM      6  C   UNL     1       2.451   3.936   0.001  0.00  0.00    +0.092 C 
ATOM      7  C   UNL     1       2.859   4.177   2.457  0.00  0.00    +0.162 C 
ATOM      8  O   UNL     1       3.067   2.981   2.482  0.00  0.00    -0.292 OA
ATOM      9  C   UNL     1       2.963   4.972   3.730  0.00  0.00    +0.088 C 
ATOM     10  C   UNL     1       3.363   6.411   3.388  0.00  0.00    +0.032 C 
ATOM     11  C   UNL     1       2.333   6.982   2.411  0.00  0.00    +0.059 C 
ATOM     12  C   UNL     1       2.343   6.908  -2.471  0.00  0.00    +0.061 C 
ATOM     13  H   UNL     1       1.465   7.691  -0.024  0.00  0.00    +0.152 HD
ENDROOT
BRANCH   6  14
ATOM     14  C   UNL     1       1.156   3.166   0.009  0.00  0.00    -0.035 A 
ATOM     15  C   UNL     1       1.175   1.783   0.000  0.00  0.00    +0.005 A 
ATOM     16  C   UNL     1      -0.013   1.076   0.008  0.00  0.00    +0.015 A 
ATOM     17  C   UNL     1      -1.220   1.751   0.017  0.00  0.00    +0.018 A 
ATOM     18  C   UNL     1      -1.238   3.134   0.031  0.00  0.00    +0.015 A 
ATOM     19  C   UNL     1      -0.050   3.841   0.024  0.00  0.00    +0.005 A 
ATOM     20 BR   UNL     1      -2.845   0.784   0.020  0.00  0.00    -0.050 Br
ENDBRANCH   6  14
BRANCH  10  21
ATOM     21  C   UNL     1       3.385   7.242   4.645  0.00  0.00    -0.040 A 
ATOM     22  C   UNL     1       2.237   7.375   5.404  0.00  0.00    +0.008 A 
ATOM     23  C   UNL     1       2.253   8.132   6.560  0.00  0.00    +0.049 A 
ATOM     24  C   UNL     1       3.418   8.770   6.955  0.00  0.00    +0.161 A 
ATOM     25  C   UNL     1       4.572   8.641   6.188  0.00  0.00    +0.162 A 
ATOM     26  C   UNL     1       4.551   7.876   5.032  0.00  0.00    +0.053 A 
BRANCH  25  27
ATOM     27  O   UNL     1       5.718   9.264   6.571  0.00  0.00    -0.491 OA
ATOM     28  C   UNL     1       6.864   9.087   5.735  0.00  0.00    +0.277 C 
ENDBRANCH  25  27
BRANCH  24  29
ATOM     29  O   UNL     1       3.434   9.520   8.089  0.00  0.00    -0.491 OA
ATOM     30  C   UNL     1       2.213   9.607   8.826  0.00  0.00    +0.277 C 
ENDBRANCH  24  29
ENDBRANCH  10  21
BRANCH   1  31
ATOM     31  C   UNL     1       2.841   4.166  -2.475  0.00  0.00    +0.338 C 
ATOM     32  O   UNL     1       2.898   4.836  -3.489  0.00  0.00    -0.245 OA
BRANCH  31  33
ATOM     33  O   UNL     1       3.087   2.840  -2.528  0.00  0.00    -0.462 OA
BRANCH  33  35
ATOM     34  C   UNL     1       3.653   0.786  -3.669  0.00  0.00    +0.048 C 
ATOM     35  C   UNL     1       3.408   2.290  -3.807  0.00  0.00    +0.229 C 
ENDBRANCH  33  35
ENDBRANCH  31  33
ENDBRANCH   1  31
TORSDOF 7
