REMARK  Name = ZINC21755100
REMARK  10 active torsions:
REMARK  status: ('A' for Active; 'I' for Inactive)
REMARK    1  A    between atoms: C_1  and  N_2
REMARK    2  A    between atoms: N_2  and  C_3
REMARK    3  A    between atoms: N_2  and  C_4
REMARK    4  A    between atoms: C_7  and  C_10
REMARK    5  A    between atoms: C_10  and  C_12
REMARK    6  A    between atoms: C_10  and  N_25
REMARK    7  A    between atoms: C_12  and  N_13
REMARK    8  A    between atoms: N_13  and  S_14
REMARK    9  A    between atoms: S_14  and  C_17
REMARK   10  A    between atoms: N_28  and  C_31
REMARK                            x       y       z     vdW  Elec       q    Type
REMARK                         _______ _______ _______ _____ _____    ______ ____
ROOT
ATOM      1  C   UNL     1       1.797   7.549  -1.153  0.00  0.00    +0.102 C 
ENDROOT
BRANCH   1   5
ATOM      2  C   UNL     1       5.675   8.845  -2.395  0.00  0.00    +0.029 A 
ATOM      3  C   UNL     1       5.000   9.530  -1.392  0.00  0.00    +0.023 A 
ATOM      4  C   UNL     1       3.747   9.108  -0.993  0.00  0.00    +0.007 A 
ATOM      5  C   UNL     1       3.164   8.006  -1.591  0.00  0.00    -0.029 A 
ATOM      6  C   UNL     1       3.836   7.319  -2.586  0.00  0.00    +0.007 A 
ATOM      7  C   UNL     1       5.087   7.739  -2.994  0.00  0.00    +0.023 A 
BRANCH   2   9
ATOM      8  C   UNL     1       7.563  10.436  -2.168  0.00  0.00    +0.129 C 
ATOM      9  N   UNL     1       6.943   9.269  -2.801  0.00  0.00    -0.336 N 
ATOM     10  C   UNL     1       7.653   8.546  -3.859  0.00  0.00    +0.129 C 
ENDBRANCH   2   9
ENDBRANCH   1   5
BRANCH   1  11
ATOM     11  N   UNL     1       1.763   6.081  -1.107  0.00  0.00    -0.291 NA
ATOM     12  C   UNL     1       2.692   5.565  -0.092  0.00  0.00    +0.104 C 
ATOM     13  C   UNL     1       2.686   4.035  -0.129  0.00  0.00    +0.120 C 
ATOM     14  N   UNL     1       1.321   3.547   0.114  0.00  0.00    -0.327 N 
ATOM     15  C   UNL     1       0.392   4.063  -0.901  0.00  0.00    +0.120 C 
ATOM     16  C   UNL     1       0.398   5.593  -0.863  0.00  0.00    +0.104 C 
BRANCH  14  17
ATOM     17  C   UNL     1       1.289   2.150   0.159  0.00  0.00    +0.030 A 
ATOM     18  C   UNL     1       0.087   1.489   0.379  0.00  0.00    +0.026 A 
ATOM     19  C   UNL     1       0.058   0.108   0.423  0.00  0.00    +0.040 A 
ATOM     20  C   UNL     1       1.225  -0.616   0.246  0.00  0.00    +0.124 A 
ATOM     21  C   UNL     1       2.424   0.041   0.026  0.00  0.00    +0.040 A 
ATOM     22  C   UNL     1       2.458   1.421  -0.017  0.00  0.00    +0.026 A 
ATOM     23  F   UNL     1       1.194  -1.966   0.290  0.00  0.00    -0.205 F 
ENDBRANCH  14  17
ENDBRANCH   1  11
BRANCH   1  24
ATOM     24  C   UNL     1       0.748   8.051  -2.148  0.00  0.00    +0.129 C 
BRANCH  24  25
ATOM     25  N   UNL     1       0.731   9.516  -2.140  0.00  0.00    -0.188 NA
ATOM     26  H   UNL     1       1.040  10.065  -1.239  0.00  0.00    +0.148 HD
BRANCH  25  27
ATOM     27  S   UNL     1       0.018  10.342  -3.386  0.00  0.00    +0.061 S 
ATOM     28  O   UNL     1       0.140  11.724  -3.079  0.00  0.00    -0.153 OA
ATOM     29  O   UNL     1       0.527   9.782  -4.589  0.00  0.00    -0.153 OA
BRANCH  27  30
ATOM     30  C   UNL     1      -1.702   9.966  -3.344  0.00  0.00    +0.143 A 
ATOM     31  C   UNL     1      -2.621  10.961  -3.067  0.00  0.00    +0.069 A 
ATOM     32  C   UNL     1      -3.973  10.666  -3.038  0.00  0.00    +0.125 A 
ATOM     33  C   UNL     1      -4.405   9.373  -3.277  0.00  0.00    +0.041 A 
ATOM     34  C   UNL     1      -3.487   8.377  -3.550  0.00  0.00    +0.043 A 
ATOM     35  C   UNL     1      -2.134   8.673  -3.584  0.00  0.00    +0.150 A 
ATOM     36  F   UNL     1      -1.236   7.699  -3.850  0.00  0.00    -0.203 F 
ATOM     37  F   UNL     1      -4.871  11.640  -2.771  0.00  0.00    -0.205 F 
ENDBRANCH  27  30
ENDBRANCH  25  27
ENDBRANCH  24  25
ENDBRANCH   1  24
TORSDOF 8
