REMARK  Name = ZINC39683170
REMARK  11 active torsions:
REMARK  status: ('A' for Active; 'I' for Inactive)
REMARK    1  A    between atoms: C_1  and  C_2
REMARK    2  A    between atoms: C_2  and  C_3
REMARK    3  A    between atoms: C_2  and  C_4
REMARK    4  A    between atoms: C_4  and  O_5
REMARK    5  A    between atoms: O_5  and  C_6
REMARK    6  A    between atoms: C_6  and  C_7
REMARK    7  A    between atoms: C_7  and  C_8
REMARK    8  A    between atoms: C_8  and  N_9
REMARK    9  A    between atoms: C_10  and  C_12
REMARK   10  A    between atoms: C_23  and  C_25
REMARK   11  A    between atoms: C_28  and  C_31
REMARK                            x       y       z     vdW  Elec       q    Type
REMARK                         _______ _______ _______ _____ _____    ______ ____
ROOT
ATOM      1  C   UNL     1      -1.421   0.269  10.013  0.00  0.00    +0.100 C 
ATOM      2  C   UNL     1      -2.685  -0.545   9.656  0.00  0.00    +0.121 C 
ATOM      3  N   UNL     1      -2.563  -1.792  10.447  0.00  0.00    -0.296 N 
ATOM      4  C   UNL     1      -2.015  -1.349  11.752  0.00  0.00    +0.115 C 
ATOM      5  C   UNL     1      -0.987  -0.259  11.391  0.00  0.00    -0.004 C 
ATOM      6  C   UNL     1      -1.023   0.864  12.423  0.00  0.00    -0.010 C 
ATOM      7  C   UNL     1      -0.531   0.328  13.771  0.00  0.00    -0.082 C 
ATOM      8  N   UNL     1       0.836  -0.187  13.626  0.00  0.00    +0.379 N 
ATOM      9  C   UNL     1       0.846  -1.327  12.702  0.00  0.00    -0.082 C 
ATOM     10  C   UNL     1       0.412  -0.862  11.309  0.00  0.00    -0.010 C 
ATOM     11  C   UNL     1      -2.878  -3.046  10.066  0.00  0.00    +0.247 C 
ATOM     12  O   UNL     1      -3.200  -3.269   8.916  0.00  0.00    -0.270 OA
ATOM     13  H   UNL     1       1.432   0.542  13.264  0.00  0.00    -0.086 HD
ATOM     14  H   UNL     1       1.179  -0.483  14.527  0.00  0.00    -0.086 HD
ENDROOT
BRANCH  11  15
ATOM     15  C   UNL     1      -2.833  -4.150  11.048  0.00  0.00    +0.037 A 
ATOM     16  C   UNL     1      -2.897  -3.876  12.415  0.00  0.00    +0.013 A 
ATOM     17  C   UNL     1      -2.854  -4.911  13.326  0.00  0.00    +0.013 A 
ATOM     18  C   UNL     1      -2.748  -6.219  12.887  0.00  0.00    +0.055 A 
ATOM     19  C   UNL     1      -2.683  -6.498  11.534  0.00  0.00    +0.013 A 
ATOM     20  C   UNL     1      -2.731  -5.472  10.612  0.00  0.00    +0.013 A 
BRANCH  18  21
ATOM     21  C   UNL     1      -2.701  -7.345  13.888  0.00  0.00    +0.417 C 
ATOM     22  F   UNL     1      -4.002  -7.785  14.155  0.00  0.00    -0.166 F 
ATOM     23  F   UNL     1      -1.948  -8.402  13.366  0.00  0.00    -0.166 F 
ATOM     24  F   UNL     1      -2.110  -6.891  15.073  0.00  0.00    -0.166 F 
ENDBRANCH  18  21
ENDBRANCH  11  15
BRANCH   1  26
ATOM     25  N   UNL     1       0.635   0.945   8.816  0.00  0.00    -0.315 N 
ATOM     26  C   UNL     1      -0.337   0.029   8.994  0.00  0.00    +0.218 C 
ATOM     27  O   UNL     1      -0.341  -0.988   8.334  0.00  0.00    -0.275 OA
ATOM     28  H   UNL     1       0.638   1.758   9.344  0.00  0.00    +0.149 HD
BRANCH  25  29
ATOM     29  C   UNL     1       1.689   0.712   7.825  0.00  0.00    +0.106 C 
BRANCH  29  30
ATOM     30  C   UNL     1       2.659   1.895   7.824  0.00  0.00    +0.047 C 
BRANCH  30  31
ATOM     31  C   UNL     1       3.759   1.651   6.789  0.00  0.00    +0.161 C 
BRANCH  31  32
ATOM     32  O   UNL     1       4.665   2.756   6.787  0.00  0.00    -0.379 OA
BRANCH  32  33
ATOM     33  C   UNL     1       5.736   2.628   5.851  0.00  0.00    +0.162 C 
BRANCH  33  35
ATOM     34  C   UNL     1       7.307   3.910   7.311  0.00  0.00    +0.009 C 
ATOM     35  C   UNL     1       6.638   3.861   5.936  0.00  0.00    +0.009 C 
ATOM     36  C   UNL     1       7.712   3.784   4.849  0.00  0.00    +0.009 C 
ENDBRANCH  33  35
ENDBRANCH  32  33
ENDBRANCH  31  32
ENDBRANCH  30  31
ENDBRANCH  29  30
ENDBRANCH  25  29
ENDBRANCH   1  26
TORSDOF 9
