REMARK  Name = ZINC17094579
REMARK  14 active torsions:
REMARK  status: ('A' for Active; 'I' for Inactive)
REMARK    1  A    between atoms: C_1  and  C_2
REMARK    2  A    between atoms: C_2  and  C_3
REMARK    3  A    between atoms: C_4  and  C_27
REMARK    4  A    between atoms: C_6  and  N_12
REMARK    5  A    between atoms: C_7  and  C_8
REMARK    6  A    between atoms: C_8  and  O_10
REMARK    7  A    between atoms: O_10  and  C_11
REMARK    8  A    between atoms: N_12  and  C_13
REMARK    9  A    between atoms: C_13  and  N_15
REMARK   10  A    between atoms: N_15  and  N_16
REMARK   11  A    between atoms: C_17  and  C_19
REMARK   12  A    between atoms: C_21  and  C_24
REMARK   13  A    between atoms: C_24  and  C_25
REMARK   14  A    between atoms: C_24  and  C_26
REMARK                            x       y       z     vdW  Elec       q    Type
REMARK                         _______ _______ _______ _____ _____    ______ ____
ROOT
ATOM      1  C   UNL     1       1.241   4.683  -3.503  0.00  0.00    +0.151 C 
ATOM      2  S   UNL     1       1.310   6.366  -3.195  0.00  0.00    -0.017 S 
ENDROOT
BRANCH   1   3
ATOM      3  N   UNL     1       1.218   3.811  -2.476  0.00  0.00    -0.290 N 
ATOM      4  H   UNL     1       1.179   2.857  -2.650  0.00  0.00    +0.154 HD
BRANCH   3   8
ATOM      5  C   UNL     1       1.268   4.290   1.242  0.00  0.00    -0.022 A 
ATOM      6  C   UNL     1       1.324   5.630   1.144  0.00  0.00    -0.008 A 
ATOM      7  S   UNL     1       1.318   5.913  -0.614  0.00  0.00    -0.078 S 
ATOM      8  C   UNL     1       1.249   4.275  -1.171  0.00  0.00    +0.086 A 
ATOM      9  C   UNL     1       1.233   3.539   0.009  0.00  0.00    +0.091 A 
ATOM     10  C   UNL     1       1.375   6.648   2.254  0.00  0.00    +0.052 C 
BRANCH   5  12
ATOM     11  C   UNL     1       2.683   3.312   3.029  0.00  0.00    +0.009 C 
ATOM     12  C   UNL     1       1.248   3.601   2.583  0.00  0.00    +0.033 C 
ENDBRANCH   5  12
BRANCH   9  13
ATOM     13  C   UNL     1       1.176   2.076   0.002  0.00  0.00    +0.342 C 
ATOM     14  O   UNL     1       2.205   1.428  -0.011  0.00  0.00    -0.245 OA
BRANCH  13  15
ATOM     15  O   UNL     1      -0.018   1.448   0.010  0.00  0.00    -0.464 OA
ATOM     16  C   UNL     1       0.002  -0.004   0.002  0.00  0.00    +0.280 C 
ENDBRANCH  13  15
ENDBRANCH   9  13
ENDBRANCH   3   8
ENDBRANCH   1   3
BRANCH   1  17
ATOM     17  N   UNL     1       1.211   4.231  -4.772  0.00  0.00    -0.245 N 
ATOM     18  H   UNL     1       1.228   4.859  -5.511  0.00  0.00    +0.172 HD
BRANCH  17  19
ATOM     19  N   UNL     1       1.155   2.854  -5.024  0.00  0.00    -0.231 N 
ATOM     20  C   UNL     1       1.124   2.402  -6.293  0.00  0.00    +0.261 C 
ATOM     21  O   UNL     1       1.145   3.189  -7.220  0.00  0.00    -0.269 OA
ATOM     22  H   UNL     1       1.138   2.226  -4.285  0.00  0.00    +0.173 HD
BRANCH  20  23
ATOM     23  C   UNL     1       1.066   0.955  -6.558  0.00  0.00    +0.045 A 
ATOM     24  C   UNL     1       1.026   0.437  -7.902  0.00  0.00    +0.024 A 
ATOM     25  C   UNL     1       0.978  -0.903  -8.042  0.00  0.00    -0.007 A 
ATOM     26  S   UNL     1       0.972  -1.484  -6.358  0.00  0.00    -0.101 S 
ATOM     27  C   UNL     1       1.040   0.035  -5.530  0.00  0.00    +0.058 A 
BRANCH  25  28
ATOM     28  C   UNL     1       0.934  -1.711  -9.313  0.00  0.00    +0.020 C 
ATOM     29  C   UNL     1       2.147  -2.641  -9.368  0.00  0.00    +0.013 C 
ATOM     30  C   UNL     1      -0.349  -2.545  -9.342  0.00  0.00    +0.013 C 
ENDBRANCH  25  28
ENDBRANCH  20  23
ENDBRANCH  17  19
ENDBRANCH   1  17
TORSDOF 9
