REMARK  Name = ZINC24707303
REMARK  10 active torsions:
REMARK  status: ('A' for Active; 'I' for Inactive)
REMARK    1  A    between atoms: C_1  and  C_2
REMARK    2  A    between atoms: C_5  and  C_8
REMARK    3  A    between atoms: C_8  and  C_10
REMARK    4  A    between atoms: C_8  and  N_15
REMARK    5  A    between atoms: C_16  and  C_18
REMARK    6  A    between atoms: C_18  and  C_19
REMARK    7  A    between atoms: C_19  and  C_20
REMARK    8  A    between atoms: C_23  and  N_26
REMARK    9  A    between atoms: N_26  and  C_27
REMARK   10  A    between atoms: N_26  and  C_28
REMARK                            x       y       z     vdW  Elec       q    Type
REMARK                         _______ _______ _______ _____ _____    ______ ____
ROOT
ATOM      1  N   UNL     1       1.199  -4.862  -2.653  0.00  0.00    -0.304 N 
ATOM      2  C   UNL     1       1.216  -4.196  -1.482  0.00  0.00    +0.214 C 
ATOM      3  O   UNL     1       1.245  -4.808  -0.436  0.00  0.00    -0.276 OA
ATOM      4  H   UNL     1       1.172  -4.306  -3.602  0.00  0.00    +0.150 HD
ENDROOT
BRANCH   1   5
ATOM      5  C   UNL     1       1.215  -6.327  -2.662  0.00  0.00    +0.140 C 
BRANCH   5  10
ATOM      6  C   UNL     1       3.432  -8.197  -7.660  0.00  0.00    +0.044 C 
ATOM      7  C   UNL     1       2.854  -7.709  -6.357  0.00  0.00    -0.050 A 
ATOM      8  C   UNL     1       3.179  -8.348  -5.175  0.00  0.00    +0.004 A 
ATOM      9  C   UNL     1       2.649  -7.900  -3.979  0.00  0.00    +0.006 A 
ATOM     10  C   UNL     1       1.793  -6.815  -3.966  0.00  0.00    -0.022 A 
ATOM     11  C   UNL     1       1.464  -6.180  -5.149  0.00  0.00    +0.006 A 
ATOM     12  C   UNL     1       1.998  -6.624  -6.344  0.00  0.00    +0.004 A 
ENDBRANCH   5  10
BRANCH   5  13
ATOM     13  C   UNL     1      -0.192  -6.846  -2.512  0.00  0.00    +0.014 A 
ATOM     14  C   UNL     1      -0.639  -7.904  -1.792  0.00  0.00    +0.013 A 
ATOM     15  C   UNL     1      -1.990  -8.196  -1.798  0.00  0.00    +0.008 A 
ATOM     16  C   UNL     1      -2.827  -7.422  -2.531  0.00  0.00    +0.045 A 
ATOM     17  S   UNL     1      -1.701  -6.231  -3.241  0.00  0.00    -0.099 S 
ENDBRANCH   5  13
ENDBRANCH   1   5
BRANCH   2  18
ATOM     18  C   UNL     1       1.200  -2.689  -1.472  0.00  0.00    +0.100 C 
BRANCH  18  19
ATOM     19  C   UNL     1       1.225  -2.188  -0.027  0.00  0.00    +0.044 C 
BRANCH  19  20
ATOM     20  C   UNL     1       1.208  -0.681  -0.017  0.00  0.00    -0.047 A 
ATOM     21  C   UNL     1       0.003  -0.004   0.013  0.00  0.00    +0.005 A 
ATOM     22  C   UNL     1      -0.016   1.377   0.022  0.00  0.00    +0.023 A 
ATOM     23  C   UNL     1       1.178   2.086   0.001  0.00  0.00    +0.029 A 
ATOM     24  C   UNL     1       2.387   1.403  -0.029  0.00  0.00    +0.023 A 
ATOM     25  C   UNL     1       2.399   0.022  -0.038  0.00  0.00    +0.005 A 
BRANCH  23  26
ATOM     26  N   UNL     1       1.162   3.483   0.010  0.00  0.00    -0.336 N 
ATOM     27  C   UNL     1      -0.110   4.202  -0.085  0.00  0.00    +0.129 C 
ATOM     28  C   UNL     1       2.419   4.229   0.114  0.00  0.00    +0.129 C 
ENDBRANCH  23  26
ENDBRANCH  19  20
ENDBRANCH  18  19
ENDBRANCH   2  18
TORSDOF 7
