REMARK  Name = ZINC03662102
REMARK  8 active torsions:
REMARK  status: ('A' for Active; 'I' for Inactive)
REMARK    1  A    between atoms: C_1  and  C_2
REMARK    2  A    between atoms: C_2  and  O_3
REMARK    3  A    between atoms: O_3  and  C_4
REMARK    4  A    between atoms: C_14  and  C_16
REMARK    5  A    between atoms: C_16  and  N_17
REMARK    6  A    between atoms: C_18  and  C_27
REMARK    7  A    between atoms: C_21  and  C_25
REMARK    8  A    between atoms: C_21  and  C_26
REMARK                            x       y       z     vdW  Elec       q    Type
REMARK                         _______ _______ _______ _____ _____    ______ ____
ROOT
ATOM      1  C   UNL     1       1.168  10.079   4.575  0.00  0.00    +0.122 A 
ATOM      2  C   UNL     1       0.888   8.864   5.195  0.00  0.00    +0.048 A 
ATOM      3  C   UNL     1       0.921   7.683   4.501  0.00  0.00    +0.032 A 
ATOM      4  C   UNL     1       1.243   7.661   3.124  0.00  0.00    +0.081 A 
ATOM      5  C   UNL     1       1.521   8.911   2.526  0.00  0.00    +0.044 A 
ATOM      6  C   UNL     1       1.487  10.092   3.225  0.00  0.00    +0.063 A 
ATOM      7  S   UNL     1       1.874   8.457   0.845  0.00  0.00    -0.052 S 
ATOM      8  C   UNL     1       1.628   6.696   1.032  0.00  0.00    +0.165 A 
ATOM      9  N   UNL     1       1.318   6.590   2.302  0.00  0.00    -0.225 NA
ATOM     10  N   UNL     1       1.743   5.697   0.079  0.00  0.00    -0.263 N 
ATOM     11  C   UNL     1       1.521   4.412   0.420  0.00  0.00    +0.236 C 
ATOM     12  O   UNL     1       1.221   4.130   1.561  0.00  0.00    -0.274 OA
ATOM     13  H   UNL     1       1.983   5.922  -0.834  0.00  0.00    +0.157 HD
ENDROOT
BRANCH   1  14
ATOM     14  O   UNL     1       1.129  11.238   5.285  0.00  0.00    -0.492 OA
BRANCH  14  16
ATOM     15  C   UNL     1       0.800  12.536   7.297  0.00  0.00    +0.048 C 
ATOM     16  C   UNL     1       0.793  11.140   6.670  0.00  0.00    +0.225 C 
ENDBRANCH  14  16
ENDBRANCH   1  14
BRANCH  11  17
ATOM     17  C   UNL     1       1.645   3.325  -0.616  0.00  0.00    +0.203 C 
BRANCH  17  18
ATOM     18  N   UNL     1       1.357   2.027   0.000  0.00  0.00    -0.301 N 
ATOM     19  C   UNL     1      -0.019   1.528   0.010  0.00  0.00    +0.075 C 
ATOM     20  C   UNL     1       0.002  -0.004   0.002  0.00  0.00    +0.047 C 
ATOM     21  C   UNL     1       0.843  -0.487   1.188  0.00  0.00    +0.030 C 
ATOM     22  N   UNL     1       2.172   0.121   1.114  0.00  0.00    -0.321 N 
ATOM     23  C   UNL     1       2.360   1.321   0.543  0.00  0.00    +0.134 C 
ATOM     24  S   UNL     1       3.941   1.976   0.507  0.00  0.00    -0.019 S 
ATOM     25  C   UNL     1       0.165  -0.076   2.497  0.00  0.00    +0.031 C 
ATOM     26  C   UNL     1       0.975  -2.010   1.135  0.00  0.00    +0.031 C 
ATOM     27  C   UNL     1      -0.756   2.036  -1.230  0.00  0.00    +0.028 C 
ATOM     28  H   UNL     1       2.933  -0.352   1.485  0.00  0.00    +0.148 HD
ENDBRANCH  17  18
ENDBRANCH  11  17
TORSDOF 4
