REMARK  Name = ZINC07001104
REMARK  3 active torsions:
REMARK  status: ('A' for Active; 'I' for Inactive)
REMARK    1  A    between atoms: C_11  and  C_13
REMARK    2  A    between atoms: C_13  and  N_47
REMARK    3  A    between atoms: C_18  and  C_20
REMARK                            x       y       z     vdW  Elec       q    Type
REMARK                         _______ _______ _______ _____ _____    ______ ____
ROOT
ATOM      1  C   UNL     1       0.848   9.579   1.450  0.00  0.00    -0.077 C 
ATOM      2  C   UNL     1       0.485  10.426   0.227  0.00  0.00    -0.019 C 
ATOM      3  C   UNL     1       1.355   9.999  -0.959  0.00  0.00    -0.003 C 
ATOM      4  C   UNL     1       1.145   8.506  -1.224  0.00  0.00    -0.009 C 
ATOM      5  C   UNL     1       1.488   7.715   0.040  0.00  0.00    -0.011 C 
ATOM      6  N   UNL     1       0.601   8.155   1.137  0.00  0.00    +0.390 N 
ATOM      7  H   UNL     1      -0.376   8.044   0.841  0.00  0.00    -0.080 HD
ENDROOT
BRANCH   5   8
ATOM      8  C   UNL     1       1.264   6.246  -0.210  0.00  0.00    +0.066 A 
ATOM      9  N   UNL     1       0.134   5.601  -0.283  0.00  0.00    -0.246 NA
ATOM     10  C   UNL     1       0.071   4.273  -0.515  0.00  0.00    +0.078 A 
ATOM     11  C   UNL     1      -1.066   3.441  -0.620  0.00  0.00    +0.029 A 
ATOM     12  C   UNL     1      -0.931   2.110  -0.866  0.00  0.00    +0.002 A 
ATOM     13  C   UNL     1       0.316   1.518  -1.010  0.00  0.00    +0.001 A 
ATOM     14  C   UNL     1       1.453   2.299  -0.914  0.00  0.00    +0.017 A 
ATOM     15  C   UNL     1       1.327   3.645  -0.672  0.00  0.00    +0.039 A 
ATOM     16  S   UNL     1       2.450   5.005  -0.473  0.00  0.00    -0.074 S 
ENDBRANCH   5   8
BRANCH   6  17
ATOM     17  C   UNL     1       0.834   7.327   2.339  0.00  0.00    -0.002 C 
BRANCH  17  28
ATOM     18  C   UNL     1       6.950   8.847   3.404  0.00  0.00    +0.001 A 
ATOM     19  C   UNL     1       6.507   9.425   2.221  0.00  0.00    +0.002 A 
ATOM     20  C   UNL     1       5.215   9.236   1.784  0.00  0.00    +0.028 A 
ATOM     21  C   UNL     1       4.338   8.454   2.538  0.00  0.00    +0.078 A 
ATOM     22  C   UNL     1       4.791   7.868   3.740  0.00  0.00    +0.065 A 
ATOM     23  C   UNL     1       6.103   8.071   4.165  0.00  0.00    +0.015 A 
ATOM     24  C   UNL     1       3.842   7.050   4.510  0.00  0.00    +0.259 A 
ATOM     25  O   UNL     1       4.169   6.517   5.554  0.00  0.00    -0.267 OA
ATOM     26  N   UNL     1       2.591   6.913   4.013  0.00  0.00    -0.312 N 
ATOM     27  H   UNL     1       1.918   6.364   4.508  0.00  0.00    +0.170 HD
ATOM     28  C   UNL     1       2.241   7.515   2.846  0.00  0.00    +0.094 A 
ATOM     29  N   UNL     1       3.058   8.238   2.142  0.00  0.00    -0.236 NA
ENDBRANCH  17  28
ENDBRANCH   6  17
TORSDOF 3
