REMARK  Name = ZINC12555308
REMARK  5 active torsions:
REMARK  status: ('A' for Active; 'I' for Inactive)
REMARK    1  A    between atoms: C_2  and  N_25
REMARK    2  A    between atoms: C_4  and  S_9
REMARK    3  A    between atoms: S_9  and  C_10
REMARK    4  A    between atoms: C_10  and  C_11
REMARK    5  A    between atoms: N_13  and  C_14
REMARK                            x       y       z     vdW  Elec       q    Type
REMARK                         _______ _______ _______ _____ _____    ______ ____
ROOT
ATOM      1  C   UNL     1      -1.290   3.355   0.426  0.00  0.00    +0.228 C 
ATOM      2  O   UNL     1      -0.266   3.946   0.697  0.00  0.00    -0.275 OA
ATOM      3  N   UNL     1      -1.240   2.071   0.019  0.00  0.00    -0.280 N 
ATOM      4  H   UNL     1      -2.159   1.561  -0.306  0.00  0.00    +0.155 HD
ENDROOT
BRANCH   3   5
ATOM      5  C   UNL     1      -0.017   1.385   0.011  0.00  0.00    +0.111 A 
ATOM      6  C   UNL     1       0.772   1.384  -1.133  0.00  0.00    +0.185 A 
ATOM      7  C   UNL     1       1.978   0.703  -1.141  0.00  0.00    +0.198 A 
ATOM      8  C   UNL     1       2.396   0.020  -0.010  0.00  0.00    +0.199 A 
ATOM      9  C   UNL     1       1.610   0.019   1.132  0.00  0.00    +0.198 A 
ATOM     10  C   UNL     1       0.405   0.700   1.144  0.00  0.00    +0.185 A 
ATOM     11  F   UNL     1      -0.361   0.699   2.257  0.00  0.00    -0.200 F 
ATOM     12  F   UNL     1       2.021  -0.647   2.233  0.00  0.00    -0.199 F 
ATOM     13  F   UNL     1       3.572  -0.645  -0.020  0.00  0.00    -0.199 F 
ATOM     14  F   UNL     1       2.746   0.702  -2.252  0.00  0.00    -0.199 F 
ATOM     15  F   UNL     1       0.364   2.049  -2.236  0.00  0.00    -0.200 F 
ENDBRANCH   3   5
BRANCH   1  16
ATOM     16  C   UNL     1      -2.619   4.057   0.543  0.00  0.00    +0.173 C 
BRANCH  16  17
ATOM     17  S   UNL     1      -2.355   5.756   1.108  0.00  0.00    -0.078 S 
BRANCH  17  21
ATOM     18  C   UNL     1      -6.587   7.192   1.228  0.00  0.00    +0.113 A 
ATOM     19  C   UNL     1      -6.272   5.897   0.839  0.00  0.00    +0.124 A 
ATOM     20  N   UNL     1      -4.994   5.504   0.815  0.00  0.00    -0.209 NA
ATOM     21  C   UNL     1      -4.022   6.325   1.156  0.00  0.00    +0.171 A 
ATOM     22  N   UNL     1      -4.280   7.603   1.550  0.00  0.00    -0.302 N 
ATOM     23  H   UNL     1      -3.452   8.268   1.837  0.00  0.00    +0.171 HD
ATOM     24  C   UNL     1      -5.550   8.057   1.588  0.00  0.00    +0.254 A 
ATOM     25  O   UNL     1      -5.790   9.203   1.935  0.00  0.00    -0.268 OA
BRANCH  19  26
ATOM     26  N   UNL     1      -7.274   5.019   0.477  0.00  0.00    -0.343 N 
ATOM     27  H   UNL     1      -7.022   3.993   0.170  0.00  0.00    +0.144 HD
ATOM     28  H   UNL     1      -8.324   5.344   0.497  0.00  0.00    +0.144 HD
ENDBRANCH  19  26
ENDBRANCH  17  21
ENDBRANCH  16  17
ENDBRANCH   1  16
TORSDOF 5
