REMARK  Name = ZINC41024569
REMARK  8 active torsions:
REMARK  status: ('A' for Active; 'I' for Inactive)
REMARK    1  A    between atoms: C_1  and  C_2
REMARK    2  A    between atoms: C_3  and  C_21
REMARK    3  A    between atoms: N_9  and  C_12
REMARK    4  A    between atoms: C_12  and  C_13
REMARK    5  A    between atoms: C_16  and  O_19
REMARK    6  A    between atoms: O_19  and  C_20
REMARK    7  A    between atoms: N_23  and  C_24
REMARK    8  A    between atoms: C_25  and  C_33
REMARK                            x       y       z     vdW  Elec       q    Type
REMARK                         _______ _______ _______ _____ _____    ______ ____
ROOT
ATOM      1  C   UNL     1      -0.018   1.503   0.010  0.00  0.00    +0.087 C 
ATOM      2  C   UNL     1       0.002  -0.004   0.002  0.00  0.00    +0.117 A 
ATOM      3  C   UNL     1      -1.100  -0.804   0.003  0.00  0.00    +0.092 A 
ATOM      4  C   UNL     1      -0.586  -2.184  -0.007  0.00  0.00    +0.117 A 
ATOM      5  C   UNL     1       0.804  -2.070  -0.013  0.00  0.00    +0.235 A 
ATOM      6  O   UNL     1       1.107  -0.761  -0.013  0.00  0.00    -0.441 OA
ATOM      7  N   UNL     1       1.546  -3.189  -0.023  0.00  0.00    -0.202 NA
ATOM      8  C   UNL     1       0.994  -4.369  -0.027  0.00  0.00    +0.206 A 
ATOM      9  N   UNL     1      -0.351  -4.542  -0.022  0.00  0.00    -0.294 N 
ATOM     10  C   UNL     1      -1.173  -3.467  -0.012  0.00  0.00    +0.266 A 
ATOM     11  O   UNL     1      -2.384  -3.604  -0.007  0.00  0.00    -0.267 OA
ENDROOT
BRANCH   3  12
ATOM     12  C   UNL     1      -2.509  -0.379   0.012  0.00  0.00    +0.253 C 
ATOM     13  O   UNL     1      -3.096  -0.198  -1.037  0.00  0.00    -0.270 OA
ATOM     14  N   UNL     1      -3.148  -0.191   1.184  0.00  0.00    -0.275 N 
ATOM     15  H   UNL     1      -2.680  -0.335   2.021  0.00  0.00    +0.156 HD
BRANCH  14  16
ATOM     16  C   UNL     1      -4.474   0.210   1.192  0.00  0.00    +0.085 A 
ATOM     17  C   UNL     1      -5.283   0.456   2.291  0.00  0.00    +0.068 A 
ATOM     18  C   UNL     1      -6.651   0.869   2.029  0.00  0.00    -0.023 A 
ATOM     19  C   UNL     1      -6.959   0.960   0.718  0.00  0.00    -0.004 A 
ATOM     20  S   UNL     1      -5.469   0.515  -0.126  0.00  0.00    -0.077 S 
ATOM     21  C   UNL     1      -8.278   1.356   0.129  0.00  0.00    +0.043 C 
ATOM     22  C   UNL     1      -9.342   1.280   1.234  0.00  0.00    +0.005 C 
ATOM     23  C   UNL     1      -8.813   1.996   2.481  0.00  0.00    +0.005 C 
ATOM     24  C   UNL     1      -7.679   1.181   3.107  0.00  0.00    +0.037 C 
BRANCH  17  25
ATOM     25  C   UNL     1      -4.780   0.305   3.659  0.00  0.00    +0.244 C 
ATOM     26  O   UNL     1      -4.266   1.251   4.227  0.00  0.00    -0.270 OA
ATOM     27  N   UNL     1      -4.886  -0.882   4.290  0.00  0.00    -0.325 N 
ATOM     28  H   UNL     1      -5.295  -1.636   3.837  0.00  0.00    +0.145 HD
ATOM     29  H   UNL     1      -4.552  -0.982   5.195  0.00  0.00    +0.145 HD
ENDBRANCH  17  25
ENDBRANCH  14  16
ENDBRANCH   3  12
BRANCH   9  30
ATOM     30  C   UNL     1      -0.915  -5.894  -0.027  0.00  0.00    +0.161 C 
BRANCH  30  31
ATOM     31  C   UNL     1      -1.101  -6.367   1.391  0.00  0.00    -0.027 A 
ATOM     32  C   UNL     1      -0.079  -7.039   2.035  0.00  0.00    +0.009 A 
ATOM     33  C   UNL     1      -0.248  -7.474   3.336  0.00  0.00    +0.046 A 
ATOM     34  C   UNL     1      -1.444  -7.234   3.996  0.00  0.00    +0.120 A 
ATOM     35  C   UNL     1      -2.468  -6.559   3.348  0.00  0.00    +0.046 A 
ATOM     36  C   UNL     1      -2.292  -6.122   2.049  0.00  0.00    +0.009 A 
BRANCH  34  37
ATOM     37  O   UNL     1      -1.613  -7.661   5.275  0.00  0.00    -0.495 OA
ATOM     38  C   UNL     1      -2.870  -7.380   5.893  0.00  0.00    +0.277 C 
ENDBRANCH  34  37
ENDBRANCH  30  31
ENDBRANCH   9  30
TORSDOF 6
