REMARK  Name = ZINC06662791
REMARK  5 active torsions:
REMARK  status: ('A' for Active; 'I' for Inactive)
REMARK    1  A    between atoms: C_1  and  C_2
REMARK    2  A    between atoms: C_5  and  N_9
REMARK    3  A    between atoms: N_9  and  C_10
REMARK    4  A    between atoms: C_10  and  C_11
REMARK    5  A    between atoms: C_12  and  O_26
REMARK                            x       y       z     vdW  Elec       q    Type
REMARK                         _______ _______ _______ _____ _____    ______ ____
ROOT
ATOM      1  C   UNL     1      -0.961  -2.232  -0.001  0.00  0.00    +0.054 A 
ATOM      2  C   UNL     1      -0.814  -2.915   1.194  0.00  0.00    +0.125 A 
ATOM      3  C   UNL     1      -0.541  -4.279   1.197  0.00  0.00    +0.046 A 
ATOM      4  C   UNL     1      -0.415  -4.960   0.006  0.00  0.00    +0.016 A 
ATOM      5  C   UNL     1      -0.562  -4.279  -1.202  0.00  0.00    +0.026 A 
ATOM      6  C   UNL     1      -0.843  -2.905  -1.209  0.00  0.00    +0.148 A 
ATOM      7  O   UNL     1      -0.993  -2.229  -2.370  0.00  0.00    -0.421 OA
ATOM      8  C   UNL     1      -0.892  -2.815  -3.574  0.00  0.00    +0.345 A 
ATOM      9  O   UNL     1      -1.038  -2.153  -4.583  0.00  0.00    -0.245 OA
ATOM     10  C   UNL     1      -0.606  -4.253  -3.677  0.00  0.00    +0.067 A 
ATOM     11  C   UNL     1      -0.431  -4.992  -2.487  0.00  0.00    -0.000 A 
ATOM     12  C   UNL     1      -0.169  -6.355  -2.551  0.00  0.00    +0.009 A 
ATOM     13  C   UNL     1      -0.063  -6.972  -3.781  0.00  0.00    +0.001 A 
ATOM     14  C   UNL     1      -0.225  -6.245  -4.952  0.00  0.00    +0.001 A 
ATOM     15  C   UNL     1      -0.494  -4.893  -4.909  0.00  0.00    +0.015 A 
ENDROOT
BRANCH   2  16
ATOM     16  O   UNL     1      -0.937  -2.250   2.372  0.00  0.00    -0.506 OA
ATOM     17  H   UNL     1      -1.839  -2.230   2.720  0.00  0.00    +0.292 HD
ENDBRANCH   2  16
BRANCH   1  18
ATOM     18  C   UNL     1      -1.256  -0.754   0.010  0.00  0.00    +0.144 C 
BRANCH  18  19
ATOM     19  N   UNL     1       0.002  -0.004   0.002  0.00  0.00    -0.339 N 
ATOM     20  H   UNL     1       0.849  -0.478  -0.009  0.00  0.00    +0.146 HD
BRANCH  19  25
ATOM     21  C   UNL     1      -0.080   5.668   0.032  0.00  0.00    +0.047 C 
ATOM     22  C   UNL     1      -0.058   4.161   0.024  0.00  0.00    -0.015 A 
ATOM     23  C   UNL     1      -1.245   3.453   0.032  0.00  0.00    +0.008 A 
ATOM     24  C   UNL     1      -1.229   2.072   0.019  0.00  0.00    +0.023 A 
ATOM     25  C   UNL     1      -0.017   1.393   0.010  0.00  0.00    +0.030 A 
ATOM     26  C   UNL     1       1.175   2.104   0.002  0.00  0.00    +0.061 A 
ATOM     27  C   UNL     1       1.153   3.487   0.009  0.00  0.00    +0.128 A 
ATOM     28  F   UNL     1       2.312   4.182   0.002  0.00  0.00    -0.205 F 
ENDBRANCH  19  25
ENDBRANCH  18  19
ENDBRANCH   1  18
TORSDOF 4
