REMARK  Name = ZINC59020584
REMARK  10 active torsions:
REMARK  status: ('A' for Active; 'I' for Inactive)
REMARK    1  A    between atoms: C_1  and  C_2
REMARK    2  A    between atoms: C_2  and  C_3
REMARK    3  A    between atoms: C_3  and  C_29
REMARK    4  A    between atoms: N_4  and  N_5
REMARK    5  A    between atoms: C_8  and  S_11
REMARK    6  A    between atoms: S_11  and  C_12
REMARK    7  A    between atoms: C_12  and  C_13
REMARK    8  A    between atoms: C_19  and  S_21
REMARK    9  A    between atoms: S_21  and  C_22
REMARK   10  A    between atoms: C_22  and  C_23
REMARK                            x       y       z     vdW  Elec       q    Type
REMARK                         _______ _______ _______ _____ _____    ______ ____
ROOT
ATOM      1  S   UNL     1      -4.372  -0.269  -6.095  0.00  0.00    -0.075 S 
ENDROOT
BRANCH   1   5
ATOM      2  N   UNL     1      -3.419  -0.640  -1.055  0.00  0.00    -0.205 N 
ATOM      3  C   UNL     1      -4.123  -0.628  -2.245  0.00  0.00    +0.232 A 
ATOM      4  N   UNL     1      -3.615  -0.423  -3.443  0.00  0.00    -0.186 NA
ATOM      5  C   UNL     1      -4.587  -0.483  -4.359  0.00  0.00    +0.211 A 
ATOM      6  N   UNL     1      -5.727  -0.726  -3.757  0.00  0.00    -0.144 NA
ATOM      7  N   UNL     1      -5.450  -0.831  -2.384  0.00  0.00    -0.245 N 
ATOM      8  H   UNL     1      -3.882  -0.804  -0.219  0.00  0.00    +0.177 HD
ATOM      9  H   UNL     1      -6.088  -1.011  -1.676  0.00  0.00    +0.192 HD
BRANCH   2  11
ATOM     10  C   UNL     1      -1.394  -0.309   0.067  0.00  0.00    +0.066 C 
ATOM     11  N   UNL     1      -2.036  -0.413  -1.057  0.00  0.00    -0.184 NA
BRANCH  10  12
ATOM     12  C   UNL     1      -2.138  -0.249   1.338  0.00  0.00    -0.002 A 
ATOM     13  C   UNL     1      -1.640  -0.892   2.474  0.00  0.00    +0.010 A 
ATOM     14  C   UNL     1      -2.341  -0.832   3.660  0.00  0.00    +0.001 A 
ATOM     15  C   UNL     1      -3.536  -0.136   3.727  0.00  0.00    +0.000 A 
ATOM     16  C   UNL     1      -4.036   0.503   2.606  0.00  0.00    +0.001 A 
ATOM     17  C   UNL     1      -3.342   0.456   1.414  0.00  0.00    +0.010 A 
ENDBRANCH  10  12
BRANCH  10  19
ATOM     18  C   UNL     1       0.565   1.208  -0.028  0.00  0.00    +0.010 C 
ATOM     19  C   UNL     1       0.112  -0.250   0.071  0.00  0.00    +0.054 C 
ENDBRANCH  10  19
ENDBRANCH   2  11
ENDBRANCH   1   5
BRANCH   1  20
ATOM     20  C   UNL     1      -6.044  -0.464  -6.772  0.00  0.00    +0.173 C 
BRANCH  20  21
ATOM     21  C   UNL     1      -6.001  -0.302  -8.270  0.00  0.00    +0.229 C 
ATOM     22  O   UNL     1      -4.947  -0.077  -8.826  0.00  0.00    -0.275 OA
ATOM     23  N   UNL     1      -7.135  -0.407  -8.991  0.00  0.00    -0.263 N 
ATOM     24  C   UNL     1      -7.095  -0.258 -10.376  0.00  0.00    +0.189 A 
ATOM     25  N   UNL     1      -6.070  -0.018 -11.176  0.00  0.00    -0.125 NA
ATOM     26  N   UNL     1      -6.208   0.090 -12.425  0.00  0.00    -0.133 NA
ATOM     27  C   UNL     1      -7.389  -0.030 -13.012  0.00  0.00    +0.160 A 
ATOM     28  S   UNL     1      -8.417  -0.343 -11.580  0.00  0.00    -0.024 S 
ATOM     29  H   UNL     1      -7.978  -0.587  -8.547  0.00  0.00    +0.157 HD
BRANCH  27  30
ATOM     30  S   UNL     1      -7.824   0.081 -14.716  0.00  0.00    -0.092 S 
BRANCH  30  31
ATOM     31  C   UNL     1      -6.247   0.409 -15.551  0.00  0.00    +0.111 C 
BRANCH  31  32
ATOM     32  C   UNL     1      -6.480   0.527 -17.035  0.00  0.00    -0.037 A 
ATOM     33  C   UNL     1      -6.412  -0.596 -17.838  0.00  0.00    +0.004 A 
ATOM     34  C   UNL     1      -6.625  -0.487 -19.199  0.00  0.00    +0.000 A 
ATOM     35  C   UNL     1      -6.907   0.745 -19.758  0.00  0.00    +0.000 A 
ATOM     36  C   UNL     1      -6.975   1.869 -18.956  0.00  0.00    +0.000 A 
ATOM     37  C   UNL     1      -6.766   1.759 -17.594  0.00  0.00    +0.004 A 
ENDBRANCH  31  32
ENDBRANCH  30  31
ENDBRANCH  27  30
ENDBRANCH  20  21
ENDBRANCH   1  20
TORSDOF 9
