REMARK  Name = ZINC39699761
REMARK  5 active torsions:
REMARK  status: ('A' for Active; 'I' for Inactive)
REMARK    1  A    between atoms: C_1  and  C_2
REMARK    2  A    between atoms: C_3  and  C_19
REMARK    3  A    between atoms: C_4  and  C_13
REMARK    4  A    between atoms: C_19  and  C_21
REMARK    5  A    between atoms: C_22  and  C_23
REMARK                            x       y       z     vdW  Elec       q    Type
REMARK                         _______ _______ _______ _____ _____    ______ ____
ROOT
ATOM      1  C   UNL     1      -0.004   1.523  -0.003  0.00  0.00    +0.066 C 
ATOM      2  C   UNL     1       0.011   0.016   0.002  0.00  0.00    +0.050 A 
ATOM      3  C   UNL     1      -0.100  -0.673  -1.217  0.00  0.00    +0.051 A 
ATOM      4  C   UNL     1      -0.087  -2.078  -1.215  0.00  0.00    +0.004 A 
ATOM      5  C   UNL     1       0.039  -2.733   0.034  0.00  0.00    +0.010 A 
ATOM      6  C   UNL     1       0.061  -4.132   0.121  0.00  0.00    +0.026 A 
ATOM      7  C   UNL     1       0.184  -4.730   1.341  0.00  0.00    +0.019 A 
ATOM      8  C   UNL     1       0.288  -3.966   2.502  0.00  0.00    +0.017 A 
ATOM      9  C   UNL     1       0.270  -2.605   2.451  0.00  0.00    +0.029 A 
ATOM     10  C   UNL     1       0.145  -1.954   1.212  0.00  0.00    +0.072 A 
ATOM     11  N   UNL     1       0.131  -0.617   1.140  0.00  0.00    -0.251 NA
ATOM     12 BR   UNL     1       0.213  -6.617   1.458  0.00  0.00    -0.050 Br
ENDROOT
BRANCH   4  13
ATOM     13  C   UNL     1      -0.201  -2.845  -2.473  0.00  0.00    -0.017 A 
ATOM     14  C   UNL     1      -1.372  -2.779  -3.232  0.00  0.00    +0.008 A 
ATOM     15  C   UNL     1      -1.471  -3.497  -4.405  0.00  0.00    +0.001 A 
ATOM     16  C   UNL     1      -0.415  -4.282  -4.831  0.00  0.00    +0.000 A 
ATOM     17  C   UNL     1       0.748  -4.353  -4.084  0.00  0.00    +0.001 A 
ATOM     18  C   UNL     1       0.864  -3.635  -2.912  0.00  0.00    +0.008 A 
ENDBRANCH   4  13
BRANCH   3  19
ATOM     19  C   UNL     1      -0.229   0.069  -2.485  0.00  0.00    +0.188 C 
ATOM     20  O   UNL     1      -1.325   0.435  -2.866  0.00  0.00    -0.287 OA
BRANCH  19  21
ATOM     21  C   UNL     1       0.966   0.367  -3.287  0.00  0.00    +0.048 C 
ATOM     22  C   UNL     1       0.866   1.131  -4.373  0.00  0.00    -0.006 C 
BRANCH  22  23
ATOM     23  C   UNL     1       2.091   1.437  -5.195  0.00  0.00    +0.121 C 
ATOM     24  C   UNL     1       2.336   2.932  -5.128  0.00  0.00    -0.001 C 
ATOM     25  C   UNL     1       2.361   3.615  -6.307  0.00  0.00    -0.007 A 
ATOM     26  C   UNL     1       2.591   5.060  -6.333  0.00  0.00    +0.009 A 
ATOM     27  C   UNL     1       2.607   5.699  -7.531  0.00  0.00    +0.001 A 
ATOM     28  C   UNL     1       2.410   5.007  -8.726  0.00  0.00    +0.002 A 
ATOM     29  C   UNL     1       2.193   3.667  -8.770  0.00  0.00    +0.024 A 
ATOM     30  C   UNL     1       2.157   2.910  -7.584  0.00  0.00    +0.040 A 
ATOM     31  N   UNL     1       1.943   1.595  -7.639  0.00  0.00    -0.284 N 
ATOM     32  C   UNL     1       1.895   0.827  -6.565  0.00  0.00    +0.228 C 
ATOM     33  O   UNL     1       1.695  -0.368  -6.678  0.00  0.00    -0.274 OA
ATOM     34  H   UNL     1       1.815   1.184  -8.508  0.00  0.00    +0.155 HD
ENDBRANCH  22  23
ENDBRANCH  19  21
ENDBRANCH   3  19
TORSDOF 4
