REMARK  Name = ZINC39639221
REMARK  9 active torsions:
REMARK  status: ('A' for Active; 'I' for Inactive)
REMARK    1  A    between atoms: C_1  and  C_2
REMARK    2  A    between atoms: C_2  and  C_3
REMARK    3  A    between atoms: C_3  and  C_4
REMARK    4  A    between atoms: C_4  and  C_5
REMARK    5  A    between atoms: C_9  and  C_18
REMARK    6  A    between atoms: N_20  and  C_21
REMARK    7  A    between atoms: C_21  and  C_23
REMARK    8  A    between atoms: C_21  and  C_24
REMARK    9  A    between atoms: C_27  and  C_30
REMARK                            x       y       z     vdW  Elec       q    Type
REMARK                         _______ _______ _______ _____ _____    ______ ____
ROOT
ATOM      1  C   UNL     1      -2.986  -2.606  -0.018  0.00  0.00    +0.216 C 
ATOM      2  O   UNL     1      -3.936  -1.855   0.050  0.00  0.00    -0.276 OA
ATOM      3  N   UNL     1      -3.178  -3.940   0.011  0.00  0.00    -0.300 N 
ATOM      4  C   UNL     1      -2.151  -5.007  -0.052  0.00  0.00    +0.121 C 
ATOM      5  C   UNL     1      -2.641  -6.080   0.946  0.00  0.00    +0.100 C 
ATOM      6  C   UNL     1      -4.159  -5.856   1.050  0.00  0.00    -0.004 C 
ATOM      7  C   UNL     1      -4.463  -4.671   0.122  0.00  0.00    +0.115 C 
ATOM      8  C   UNL     1      -4.544  -5.506   2.485  0.00  0.00    -0.010 C 
ATOM      9  C   UNL     1      -6.064  -5.344   2.575  0.00  0.00    -0.082 C 
ATOM     10  N   UNL     1      -6.716  -6.592   2.162  0.00  0.00    +0.379 N 
ATOM     11  C   UNL     1      -6.415  -6.873   0.753  0.00  0.00    -0.082 C 
ATOM     12  C   UNL     1      -4.910  -7.099   0.586  0.00  0.00    -0.010 C 
ATOM     13  H   UNL     1      -6.379  -7.352   2.734  0.00  0.00    -0.086 HD
ATOM     14  H   UNL     1      -7.714  -6.503   2.280  0.00  0.00    -0.086 HD
ENDROOT
BRANCH   5  15
ATOM     15  C   UNL     1      -2.347  -7.460   0.418  0.00  0.00    +0.219 C 
ATOM     16  O   UNL     1      -2.335  -7.663  -0.777  0.00  0.00    -0.275 OA
ATOM     17  N   UNL     1      -2.098  -8.471   1.275  0.00  0.00    -0.308 N 
ATOM     18  H   UNL     1      -2.108  -8.309   2.232  0.00  0.00    +0.149 HD
BRANCH  17  19
ATOM     19  C   UNL     1      -1.813  -9.813   0.762  0.00  0.00    +0.100 C 
ATOM     20  C   UNL     1      -0.324  -9.925   0.428  0.00  0.00    +0.033 C 
BRANCH  19  21
ATOM     21  C   UNL     1      -2.171 -10.837   1.808  0.00  0.00    -0.027 A 
ATOM     22  C   UNL     1      -1.894 -10.591   3.140  0.00  0.00    +0.006 A 
ATOM     23  C   UNL     1      -2.223 -11.530   4.099  0.00  0.00    +0.004 A 
ATOM     24  C   UNL     1      -2.829 -12.716   3.727  0.00  0.00    -0.050 A 
ATOM     25  C   UNL     1      -3.107 -12.961   2.395  0.00  0.00    +0.004 A 
ATOM     26  C   UNL     1      -2.782 -12.020   1.436  0.00  0.00    +0.006 A 
ATOM     27  C   UNL     1      -3.186 -13.740   4.773  0.00  0.00    +0.044 C 
ENDBRANCH  19  21
ENDBRANCH  17  19
ENDBRANCH   5  15
BRANCH   1  28
ATOM     28  C   UNL     1      -1.591  -2.048  -0.135  0.00  0.00    +0.096 C 
BRANCH  28  29
ATOM     29  C   UNL     1      -1.653  -0.519  -0.147  0.00  0.00    +0.009 C 
BRANCH  29  31
ATOM     30  C   UNL     1      -0.299   1.576  -0.277  0.00  0.00    +0.004 C 
ATOM     31  C   UNL     1      -0.237   0.048  -0.266  0.00  0.00    -0.003 C 
ENDBRANCH  29  31
ENDBRANCH  28  29
ENDBRANCH   1  28
TORSDOF 6
