REMARK  Name = ZINC39668636
REMARK  11 active torsions:
REMARK  status: ('A' for Active; 'I' for Inactive)
REMARK    1  A    between atoms: C_1  and  C_2
REMARK    2  A    between atoms: C_3  and  C_12
REMARK    3  A    between atoms: C_7  and  O_8
REMARK    4  A    between atoms: O_8  and  C_9
REMARK    5  A    between atoms: C_9  and  C_11
REMARK    6  A    between atoms: C_16  and  C_25
REMARK    7  A    between atoms: N_27  and  C_28
REMARK    8  A    between atoms: C_28  and  C_29
REMARK    9  A    between atoms: C_29  and  C_31
REMARK   10  A    between atoms: C_29  and  O_32
REMARK   11  A    between atoms: O_32  and  C_33
REMARK                            x       y       z     vdW  Elec       q    Type
REMARK                         _______ _______ _______ _____ _____    ______ ____
ROOT
ATOM      1  C   UNL     1      -0.024  -0.079  -2.586  0.00  0.00    +0.247 C 
ATOM      2  O   UNL     1       0.062   1.127  -2.705  0.00  0.00    -0.270 OA
ATOM      3  N   UNL     1      -0.290  -0.846  -3.662  0.00  0.00    -0.296 N 
ATOM      4  C   UNL     1      -0.556  -2.303  -3.696  0.00  0.00    +0.121 C 
ATOM      5  C   UNL     1      -1.680  -2.470  -4.744  0.00  0.00    +0.100 C 
ATOM      6  C   UNL     1      -1.559  -1.233  -5.649  0.00  0.00    -0.004 C 
ATOM      7  C   UNL     1      -0.388  -0.419  -5.079  0.00  0.00    +0.115 C 
ATOM      8  C   UNL     1      -1.260  -1.656  -7.085  0.00  0.00    -0.010 C 
ATOM      9  C   UNL     1      -1.203  -0.412  -7.976  0.00  0.00    -0.082 C 
ATOM     10  N   UNL     1      -2.485   0.299  -7.912  0.00  0.00    +0.379 N 
ATOM     11  C   UNL     1      -2.721   0.782  -6.546  0.00  0.00    -0.082 C 
ATOM     12  C   UNL     1      -2.843  -0.410  -5.594  0.00  0.00    -0.010 C 
ATOM     13  H   UNL     1      -2.466   1.083  -8.546  0.00  0.00    -0.086 HD
ATOM     14  H   UNL     1      -3.230  -0.328  -8.178  0.00  0.00    -0.086 HD
ENDROOT
BRANCH   1  17
ATOM     15  C   UNL     1      -0.964   1.285  -0.214  0.00  0.00    +0.048 C 
ATOM     16  C   UNL     1      -0.288  -0.058  -0.109  0.00  0.00    +0.004 A 
ATOM     17  C   UNL     1       0.162  -0.707  -1.260  0.00  0.00    +0.043 A 
ATOM     18  C   UNL     1       0.787  -1.950  -1.155  0.00  0.00    +0.013 A 
ATOM     19  C   UNL     1       0.959  -2.533   0.085  0.00  0.00    +0.004 A 
ATOM     20  C   UNL     1       0.513  -1.889   1.224  0.00  0.00    +0.047 A 
ATOM     21  C   UNL     1      -0.106  -0.649   1.129  0.00  0.00    +0.135 A 
BRANCH  21  22
ATOM     22  O   UNL     1      -0.537  -0.018   2.253  0.00  0.00    -0.426 OA
BRANCH  22  23
ATOM     23  C   UNL     1       0.194   1.006   2.722  0.00  0.00    +0.309 C 
ATOM     24  O   UNL     1       1.249   1.282   2.202  0.00  0.00    -0.251 OA
ATOM     25  C   UNL     1      -0.302   1.811   3.895  0.00  0.00    +0.136 C 
ENDBRANCH  22  23
ENDBRANCH  21  22
ENDBRANCH   1  17
BRANCH   5  26
ATOM     26  C   UNL     1      -1.469  -3.731  -5.543  0.00  0.00    +0.218 C 
ATOM     27  O   UNL     1      -0.355  -4.194  -5.661  0.00  0.00    -0.275 OA
ATOM     28  N   UNL     1      -2.519  -4.342  -6.125  0.00  0.00    -0.312 N 
ATOM     29  H   UNL     1      -3.410  -3.971  -6.030  0.00  0.00    +0.149 HD
BRANCH  28  30
ATOM     30  C   UNL     1      -2.315  -5.568  -6.902  0.00  0.00    +0.148 C 
BRANCH  30  31
ATOM     31  C   UNL     1      -3.658  -6.054  -7.451  0.00  0.00    +0.187 C 
ATOM     32  C   UNL     1      -3.444  -7.334  -8.262  0.00  0.00    +0.053 C 
BRANCH  31  33
ATOM     33  O   UNL     1      -4.548  -6.321  -6.365  0.00  0.00    -0.486 OA
BRANCH  33  34
ATOM     34  C   UNL     1      -5.879  -6.250  -6.627  0.00  0.00    +0.139 A 
ATOM     35  C   UNL     1      -6.333  -6.042  -7.926  0.00  0.00    +0.049 A 
ATOM     36  C   UNL     1      -7.699  -5.977  -8.144  0.00  0.00    +0.023 A 
ATOM     37  C   UNL     1      -8.561  -6.119  -7.072  0.00  0.00    +0.111 A 
ATOM     38  N   UNL     1      -8.098  -6.314  -5.853  0.00  0.00    -0.260 NA
ATOM     39  C   UNL     1      -6.806  -6.388  -5.604  0.00  0.00    +0.156 A 
ENDBRANCH  33  34
ENDBRANCH  31  33
ENDBRANCH  30  31
ENDBRANCH  28  30
ENDBRANCH   5  26
TORSDOF 8
