REMARK  Name = ZINC12025441
REMARK  5 active torsions:
REMARK  status: ('A' for Active; 'I' for Inactive)
REMARK    1  A    between atoms: C_1  and  C_2
REMARK    2  A    between atoms: C_10  and  C_12
REMARK    3  A    between atoms: C_12  and  N_54
REMARK    4  A    between atoms: C_13  and  C_14
REMARK    5  A    between atoms: C_13  and  N_54
REMARK                            x       y       z     vdW  Elec       q    Type
REMARK                         _______ _______ _______ _____ _____    ______ ____
ROOT
ATOM      1  C   UNL     1      -2.224   0.878  -0.118  0.00  0.00    +0.046 C 
ATOM      2  C   UNL     1      -0.985   1.729  -0.004  0.00  0.00    -0.024 A 
ATOM      3  C   UNL     1       0.242   1.144   0.060  0.00  0.00    +0.005 A 
ATOM      4  C   UNL     1       1.399   1.912   0.159  0.00  0.00    +0.001 A 
ATOM      5  C   UNL     1       1.334   3.272   0.199  0.00  0.00    +0.010 A 
ATOM      6  C   UNL     1       0.085   3.909   0.140  0.00  0.00    +0.001 A 
ATOM      7  C   UNL     1      -1.094   3.130   0.040  0.00  0.00    +0.076 A 
ATOM      8  N   UNL     1      -2.288   3.730  -0.016  0.00  0.00    -0.232 NA
ATOM      9  C   UNL     1      -2.395   5.043   0.020  0.00  0.00    +0.123 A 
ATOM     10  C   UNL     1      -1.266   5.869   0.119  0.00  0.00    -0.024 A 
ATOM     11  C   UNL     1      -0.023   5.314   0.179  0.00  0.00    +0.015 A 
ATOM     12  N   UNL     1      -3.654   5.621  -0.041  0.00  0.00    -0.318 N 
ATOM     13  C   UNL     1      -4.635   4.823   0.700  0.00  0.00    +0.088 C 
ATOM     14  C   UNL     1      -6.031   5.462   0.630  0.00  0.00    -0.059 C 
ATOM     15  C   UNL     1      -7.686   6.198  -1.089  0.00  0.00    -0.078 C 
ATOM     16  C   UNL     1      -7.544   6.628  -2.574  0.00  0.00    -0.020 C 
ATOM     17  C   UNL     1      -6.020   6.818  -2.791  0.00  0.00    -0.016 C 
ATOM     18  C   UNL     1      -5.412   6.556  -1.410  0.00  0.00    -0.051 C 
ATOM     19  C   UNL     1      -4.057   5.864  -1.440  0.00  0.00    +0.091 C 
ATOM     20  N   UNL     1      -6.354   5.631  -0.831  0.00  0.00    +0.384 N 
ATOM     21  H   UNL     1      -6.283   4.716  -1.291  0.00  0.00    -0.081 HD
ENDROOT
BRANCH  10  22
ATOM     22  C   UNL     1      -1.427   7.366   0.158  0.00  0.00    -0.043 C 
BRANCH  22  23
ATOM     23  N   UNL     1      -1.854   7.771   1.511  0.00  0.00    +0.384 N 
ATOM     24  H   UNL     1      -1.117   7.532   2.184  0.00  0.00    -0.085 HD
ATOM     25  H   UNL     1      -2.717   7.272   1.757  0.00  0.00    -0.085 HD
BRANCH  23  26
ATOM     26  C   UNL     1      -2.102   9.224   1.556  0.00  0.00    -0.046 C 
BRANCH  26  27
ATOM     27  C   UNL     1      -2.536   9.608   2.947  0.00  0.00    -0.057 A 
ATOM     28  C   UNL     1      -3.875   9.607   3.290  0.00  0.00    +0.009 A 
ATOM     29  C   UNL     1      -4.231   9.952   4.552  0.00  0.00    +0.045 A 
ATOM     30  S   UNL     1      -2.648  10.308   5.298  0.00  0.00    -0.105 S 
ATOM     31  C   UNL     1      -1.619   9.965   3.880  0.00  0.00    +0.047 A 
ENDBRANCH  26  27
ENDBRANCH  23  26
ENDBRANCH  22  23
ENDBRANCH  10  22
TORSDOF 4
