REMARK  Name = ZINC22446515
REMARK  8 active torsions:
REMARK  status: ('A' for Active; 'I' for Inactive)
REMARK    1  A    between atoms: C_1  and  C_2
REMARK    2  A    between atoms: C_6  and  N_8
REMARK    3  A    between atoms: C_13  and  N_15
REMARK    4  A    between atoms: N_15  and  C_16
REMARK    5  A    between atoms: C_20  and  C_23
REMARK    6  A    between atoms: C_21  and  C_22
REMARK    7  A    between atoms: C_27  and  C_29
REMARK    8  A    between atoms: C_27  and  C_30
REMARK                            x       y       z     vdW  Elec       q    Type
REMARK                         _______ _______ _______ _____ _____    ______ ____
ROOT
ATOM      1  N   UNL     1       0.201   1.384  -1.084  0.00  0.00    -0.284 N 
ATOM      2  C   UNL     1       0.294   2.416  -0.172  0.00  0.00    +0.221 A 
ATOM      3  N   UNL     1      -0.813   3.060   0.179  0.00  0.00    -0.218 NA
ATOM      4  C   UNL     1      -0.777   4.052   1.052  0.00  0.00    +0.059 A 
ATOM      5  C   UNL     1       0.457   4.418   1.598  0.00  0.00    +0.079 A 
ATOM      6  C   UNL     1       1.616   3.718   1.197  0.00  0.00    +0.139 A 
ATOM      7  N   UNL     1       1.485   2.731   0.316  0.00  0.00    -0.198 NA
ATOM      8  C   UNL     1       0.543   5.507   2.573  0.00  0.00    +0.169 C 
ATOM      9  O   UNL     1       1.556   5.701   3.212  0.00  0.00    -0.292 OA
ATOM     10  C   UNL     1      -0.680   6.383   2.756  0.00  0.00    +0.086 C 
ATOM     11  C   UNL     1      -1.907   5.462   2.779  0.00  0.00    -0.022 C 
ATOM     12  C   UNL     1      -2.046   4.765   1.427  0.00  0.00    +0.063 C 
ATOM     13  C   UNL     1      -3.162   6.292   3.056  0.00  0.00    +0.011 C 
ATOM     14  C   UNL     1      -1.736   4.412   3.879  0.00  0.00    +0.011 C 
ATOM     15  H   UNL     1       1.112   0.975  -1.546  0.00  0.00    +0.155 HD
ENDROOT
BRANCH   1  21
ATOM     16  C   UNL     1      -2.546  -2.455  -2.454  0.00  0.00    +0.044 C 
ATOM     17  C   UNL     1      -2.411  -0.999  -2.088  0.00  0.00    -0.049 A 
ATOM     18  C   UNL     1      -3.526  -0.181  -2.086  0.00  0.00    +0.003 A 
ATOM     19  C   UNL     1      -3.406   1.155  -1.751  0.00  0.00    +0.002 A 
ATOM     20  C   UNL     1      -2.173   1.676  -1.412  0.00  0.00    +0.023 A 
ATOM     21  C   UNL     1      -1.050   0.859  -1.420  0.00  0.00    +0.034 A 
ATOM     22  C   UNL     1      -1.174  -0.483  -1.757  0.00  0.00    +0.026 A 
ENDBRANCH   1  21
BRANCH   6  23
ATOM     23  N   UNL     1       2.853   4.050   1.706  0.00  0.00    -0.299 N 
ATOM     24  H   UNL     1       2.933   4.788   2.518  0.00  0.00    +0.154 HD
BRANCH  23  25
ATOM     25  C   UNL     1       4.005   3.449   1.191  0.00  0.00    +0.036 A 
ATOM     26  C   UNL     1       3.942   2.170   0.653  0.00  0.00    +0.023 A 
ATOM     27  C   UNL     1       5.082   1.579   0.145  0.00  0.00    +0.002 A 
ATOM     28  C   UNL     1       6.286   2.260   0.171  0.00  0.00    +0.004 A 
ATOM     29  C   UNL     1       6.352   3.534   0.705  0.00  0.00    -0.046 A 
ATOM     30  C   UNL     1       5.214   4.133   1.209  0.00  0.00    -0.026 A 
ATOM     31  C   UNL     1       5.286   5.523   1.785  0.00  0.00    +0.046 C 
ATOM     32  C   UNL     1       7.666   4.272   0.730  0.00  0.00    +0.044 C 
ENDBRANCH  23  25
ENDBRANCH   6  23
TORSDOF 3
