REMARK  Name = ZINC39672216
REMARK  6 active torsions:
REMARK  status: ('A' for Active; 'I' for Inactive)
REMARK    1  A    between atoms: C_1  and  C_2
REMARK    2  A    between atoms: C_6  and  C_9
REMARK    3  A    between atoms: C_13  and  C_22
REMARK    4  A    between atoms: N_24  and  C_25
REMARK    5  A    between atoms: C_25  and  C_26
REMARK    6  A    between atoms: N_35  and  C_36
REMARK                            x       y       z     vdW  Elec       q    Type
REMARK                         _______ _______ _______ _____ _____    ______ ____
ROOT
ATOM      1  C   UNL     1       0.083  -2.891   2.603  0.00  0.00    +0.251 C 
ATOM      2  O   UNL     1       1.127  -3.244   3.116  0.00  0.00    -0.270 OA
ATOM      3  N   UNL     1      -1.093  -3.264   3.146  0.00  0.00    -0.296 N 
ATOM      4  C   UNL     1      -2.458  -2.941   2.665  0.00  0.00    +0.121 C 
ATOM      5  C   UNL     1      -3.266  -4.239   2.886  0.00  0.00    +0.100 C 
ATOM      6  C   UNL     1      -2.512  -4.987   3.999  0.00  0.00    -0.004 C 
ATOM      7  C   UNL     1      -1.315  -4.094   4.354  0.00  0.00    +0.115 C 
ATOM      8  C   UNL     1      -2.022  -6.338   3.490  0.00  0.00    -0.010 C 
ATOM      9  C   UNL     1      -1.325  -7.086   4.630  0.00  0.00    -0.082 C 
ATOM     10  N   UNL     1      -2.265  -7.272   5.742  0.00  0.00    +0.379 N 
ATOM     11  C   UNL     1      -2.661  -5.967   6.287  0.00  0.00    -0.082 C 
ATOM     12  C   UNL     1      -3.413  -5.172   5.216  0.00  0.00    -0.010 C 
ATOM     13  H   UNL     1      -3.085  -7.758   5.410  0.00  0.00    -0.086 HD
ATOM     14  H   UNL     1      -1.824  -7.817   6.467  0.00  0.00    -0.086 HD
ENDROOT
BRANCH   1  20
ATOM     15  C   UNL     1       0.140   1.617   0.457  0.00  0.00    +0.047 C 
ATOM     16  C   UNL     1       0.130   0.115   0.347  0.00  0.00    -0.014 A 
ATOM     17  C   UNL     1       0.140  -0.486  -0.898  0.00  0.00    +0.007 A 
ATOM     18  C   UNL     1       0.131  -1.865  -1.010  0.00  0.00    +0.021 A 
ATOM     19  C   UNL     1       0.112  -2.654   0.124  0.00  0.00    +0.056 A 
ATOM     20  C   UNL     1       0.103  -2.055   1.387  0.00  0.00    +0.091 A 
ATOM     21  C   UNL     1       0.117  -0.661   1.492  0.00  0.00    +0.140 A 
ATOM     22  F   UNL     1       0.114  -0.073   2.708  0.00  0.00    -0.204 F 
ATOM     23 CL   UNL     1       0.101  -4.384  -0.020  0.00  0.00    -0.083 Cl
ENDBRANCH   1  20
BRANCH   5  24
ATOM     24  C   UNL     1      -4.670  -3.914   3.328  0.00  0.00    +0.218 C 
ATOM     25  O   UNL     1      -4.885  -2.915   3.980  0.00  0.00    -0.275 OA
ATOM     26  N   UNL     1      -5.687  -4.734   2.997  0.00  0.00    -0.311 N 
ATOM     27  H   UNL     1      -5.516  -5.534   2.475  0.00  0.00    +0.149 HD
BRANCH  26  28
ATOM     28  C   UNL     1      -7.052  -4.418   3.425  0.00  0.00    +0.139 C 
BRANCH  28  29
ATOM     29  C   UNL     1      -7.994  -5.485   2.930  0.00  0.00    -0.030 A 
ATOM     30  C   UNL     1      -8.594  -5.354   1.690  0.00  0.00    +0.007 A 
ATOM     31  C   UNL     1      -9.458  -6.330   1.237  0.00  0.00    +0.024 A 
ATOM     32  C   UNL     1      -9.723  -7.445   2.025  0.00  0.00    +0.033 A 
ATOM     33  C   UNL     1      -9.119  -7.577   3.265  0.00  0.00    -0.026 A 
ATOM     34  C   UNL     1      -8.252  -6.594   3.711  0.00  0.00    +0.010 A 
ATOM     35  C   UNL     1      -9.375  -8.775   4.141  0.00  0.00    +0.038 C 
ATOM     36  C   UNL     1     -10.680  -9.464   3.740  0.00  0.00    +0.024 C 
ATOM     37  C   UNL     1     -10.658  -9.723   2.228  0.00  0.00    +0.105 C 
ATOM     38  N   UNL     1     -10.606  -8.421   1.549  0.00  0.00    -0.333 N 
ATOM     39  C   UNL     1     -11.464  -8.149   0.394  0.00  0.00    +0.129 C 
ENDBRANCH  28  29
ENDBRANCH  26  28
ENDBRANCH   5  24
TORSDOF 4
