REMARK  Name = ZINC36541776
REMARK  12 active torsions:
REMARK  status: ('A' for Active; 'I' for Inactive)
REMARK    1  A    between atoms: C_1  and  C_2
REMARK    2  A    between atoms: C_2  and  C_3
REMARK    3  A    between atoms: C_2  and  C_4
REMARK    4  A    between atoms: C_2  and  N_5
REMARK    5  A    between atoms: C_6  and  C_8
REMARK    6  A    between atoms: C_8  and  C_10
REMARK    7  A    between atoms: C_8  and  N_17
REMARK    8  A    between atoms: C_13  and  O_16
REMARK    9  A    between atoms: N_17  and  C_18
REMARK   10  A    between atoms: C_25  and  C_27
REMARK   11  A    between atoms: C_27  and  C_28
REMARK   12  A    between atoms: C_28  and  C_29
REMARK                            x       y       z     vdW  Elec       q    Type
REMARK                         _______ _______ _______ _____ _____    ______ ____
ROOT
ATOM      1  N   UNL     1       4.150  -0.373  -2.795  0.00  0.00    -0.254 N 
ATOM      2  C   UNL     1       4.967  -1.358  -3.218  0.00  0.00    +0.221 C 
ATOM      3  O   UNL     1       4.536  -2.482  -3.367  0.00  0.00    -0.275 OA
ENDROOT
BRANCH   1   4
ATOM      4  C   UNL     1       4.647   0.924  -2.623  0.00  0.00    +0.056 A 
ATOM      5  C   UNL     1       5.123   1.327  -1.383  0.00  0.00    +0.025 A 
ATOM      6  C   UNL     1       5.613   2.608  -1.216  0.00  0.00    +0.002 A 
ATOM      7  C   UNL     1       5.630   3.488  -2.283  0.00  0.00    +0.002 A 
ATOM      8  C   UNL     1       5.157   3.090  -3.519  0.00  0.00    +0.022 A 
ATOM      9  C   UNL     1       4.670   1.808  -3.695  0.00  0.00    +0.062 A 
ATOM     10 CL   UNL     1       4.083   1.306  -5.249  0.00  0.00    -0.082 Cl
ENDBRANCH   1   4
BRANCH   1  11
ATOM     11  C   UNL     1       2.740  -0.661  -2.516  0.00  0.00    +0.197 C 
BRANCH  11  12
ATOM     12  C   UNL     1       2.646  -1.736  -1.464  0.00  0.00    -0.018 A 
ATOM     13  C   UNL     1       2.124  -2.974  -1.788  0.00  0.00    +0.009 A 
ATOM     14  C   UNL     1       2.036  -3.962  -0.826  0.00  0.00    +0.046 A 
ATOM     15  C   UNL     1       2.472  -3.710   0.466  0.00  0.00    +0.117 A 
ATOM     16  C   UNL     1       2.997  -2.467   0.789  0.00  0.00    +0.046 A 
ATOM     17  C   UNL     1       3.087  -1.484  -0.178  0.00  0.00    +0.009 A 
BRANCH  15  18
ATOM     18  O   UNL     1       2.386  -4.679   1.415  0.00  0.00    -0.507 OA
ATOM     19  H   UNL     1       3.169  -5.244   1.472  0.00  0.00    +0.292 HD
ENDBRANCH  15  18
ENDBRANCH  11  12
BRANCH  11  21
ATOM     20  N   UNL     1       0.756  -1.455  -3.760  0.00  0.00    -0.309 N 
ATOM     21  C   UNL     1       2.064  -1.131  -3.777  0.00  0.00    +0.239 C 
ATOM     22  O   UNL     1       2.696  -1.218  -4.809  0.00  0.00    -0.273 OA
ATOM     23  H   UNL     1       0.250  -1.386  -2.935  0.00  0.00    +0.149 HD
BRANCH  20  25
ATOM     24  C   UNL     1       0.787  -3.182  -5.492  0.00  0.00    +0.031 C 
ATOM     25  C   UNL     1       0.098  -1.913  -4.986  0.00  0.00    +0.026 C 
ATOM     26  C   UNL     1       0.194  -0.821  -6.054  0.00  0.00    +0.031 C 
ATOM     27  C   UNL     1      -1.374  -2.213  -4.694  0.00  0.00    +0.031 C 
ENDBRANCH  20  25
ENDBRANCH  11  21
ENDBRANCH   1  11
BRANCH   2  28
ATOM     28  C   UNL     1       6.417  -1.063  -3.506  0.00  0.00    +0.096 C 
BRANCH  28  29
ATOM     29  C   UNL     1       7.116  -2.343  -3.966  0.00  0.00    +0.013 C 
BRANCH  29  30
ATOM     30  C   UNL     1       8.588  -2.043  -4.258  0.00  0.00    -0.011 C 
ATOM     31  C   UNL     1       8.687  -1.079  -5.442  0.00  0.00    +0.003 C 
ATOM     32  C   UNL     1      10.158  -0.779  -5.734  0.00  0.00    +0.000 C 
ATOM     33  C   UNL     1      10.886  -2.081  -6.075  0.00  0.00    +0.000 C 
ATOM     34  C   UNL     1      10.788  -3.045  -4.891  0.00  0.00    +0.000 C 
ATOM     35  C   UNL     1       9.316  -3.345  -4.599  0.00  0.00    +0.003 C 
ENDBRANCH  29  30
ENDBRANCH  28  29
ENDBRANCH   2  28
TORSDOF 9
