REMARK  Name = ZINC00231485
REMARK  4 active torsions:
REMARK  status: ('A' for Active; 'I' for Inactive)
REMARK    1  A    between atoms: N_4  and  N_6
REMARK    2  A    between atoms: N_6  and  C_7
REMARK    3  A    between atoms: C_7  and  N_9
REMARK    4  A    between atoms: C_10  and  C_12
REMARK                            x       y       z     vdW  Elec       q    Type
REMARK                         _______ _______ _______ _____ _____    ______ ____
ROOT
ATOM      1  N   UNL     1       2.481  -2.594  -1.253  0.00  0.00    -0.266 N 
ATOM      2  C   UNL     1       3.009  -3.673  -1.862  0.00  0.00    +0.225 C 
ATOM      3  O   UNL     1       3.183  -4.697  -1.237  0.00  0.00    -0.275 OA
ATOM      4  H   UNL     1       2.342  -1.774  -1.753  0.00  0.00    +0.157 HD
ENDROOT
BRANCH   2   5
ATOM      5  C   UNL     1       3.384  -3.608  -3.320  0.00  0.00    +0.048 C 
ATOM      6  C   UNL     1       4.432  -2.535  -3.510  0.00  0.00    +0.019 C 
ATOM      7  C   UNL     1       5.194  -2.543  -4.800  0.00  0.00    -0.010 C 
ATOM      8  C   UNL     1       4.561  -1.820  -5.956  0.00  0.00    +0.004 C 
ATOM      9  C   UNL     1       3.071  -1.922  -6.033  0.00  0.00    +0.004 C 
ATOM     10  C   UNL     1       2.510  -3.238  -5.595  0.00  0.00    -0.010 C 
ATOM     11  C   UNL     1       2.132  -3.285  -4.141  0.00  0.00    +0.019 C 
ATOM     12  C   UNL     1       3.279  -4.443  -6.093  0.00  0.00    +0.007 C 
ATOM     13  C   UNL     1       4.408  -4.883  -5.180  0.00  0.00    -0.009 C 
ATOM     14  C   UNL     1       5.591  -3.950  -5.242  0.00  0.00    +0.007 C 
ATOM     15  C   UNL     1       3.907  -4.976  -3.760  0.00  0.00    +0.019 C 
ENDBRANCH   2   5
BRANCH   1  16
ATOM     16  C   UNL     1       2.146  -2.652   0.051  0.00  0.00    +0.151 C 
ATOM     17  S   UNL     1       2.392  -4.098   0.934  0.00  0.00    -0.017 S 
BRANCH  16  18
ATOM     18  N   UNL     1       1.617  -1.572   0.660  0.00  0.00    -0.259 N 
ATOM     19  H   UNL     1       1.376  -1.614   1.599  0.00  0.00    +0.168 HD
BRANCH  18  23
ATOM     20  C   UNL     1      -0.019   1.536   0.011  0.00  0.00    +0.018 C 
ATOM     21  C   UNL     1       1.468   1.960  -0.001  0.00  0.00    +0.018 C 
ATOM     22  C   UNL     1       2.191   0.705   0.550  0.00  0.00    +0.105 C 
ATOM     23  N   UNL     1       1.421  -0.418  -0.044  0.00  0.00    -0.228 NA
ATOM     24  C   UNL     1       0.002  -0.004   0.002  0.00  0.00    +0.105 C 
ENDBRANCH  18  23
ENDBRANCH  16  18
ENDBRANCH   1  16
TORSDOF 4
