REMARK  Name = ZINC09263471
REMARK  4 active torsions:
REMARK  status: ('A' for Active; 'I' for Inactive)
REMARK    1  A    between atoms: C_1  and  C_2
REMARK    2  A    between atoms: C_10  and  C_12
REMARK    3  A    between atoms: C_12  and  C_24
REMARK    4  A    between atoms: C_13  and  C_14
REMARK                            x       y       z     vdW  Elec       q    Type
REMARK                         _______ _______ _______ _____ _____    ______ ____
ROOT
ATOM      1  C   UNL     1       0.045  -5.575   2.241  0.00  0.00    +0.095 C 
ATOM      2  C   UNL     1       0.103  -6.727   1.509  0.00  0.00    +0.032 C 
ENDROOT
BRANCH   1  12
ATOM      3  C   UNL     1      -1.273   1.404   0.100  0.00  0.00    +0.044 C 
ATOM      4  C   UNL     1      -1.062  -0.088   0.078  0.00  0.00    -0.048 A 
ATOM      5  C   UNL     1      -1.139  -0.777  -1.123  0.00  0.00    +0.005 A 
ATOM      6  C   UNL     1      -0.951  -2.130  -1.165  0.00  0.00    +0.030 A 
ATOM      7  C   UNL     1      -0.677  -2.832   0.014  0.00  0.00    +0.089 A 
ATOM      8  C   UNL     1      -0.599  -2.133   1.232  0.00  0.00    +0.067 A 
ATOM      9  C   UNL     1      -0.788  -0.758   1.252  0.00  0.00    +0.031 A 
ATOM     10  N   UNL     1      -0.321  -3.077   2.202  0.00  0.00    -0.337 N 
ATOM     11  H   UNL     1      -0.205  -2.911   3.151  0.00  0.00    +0.167 HD
ATOM     12  C   UNL     1      -0.238  -4.292   1.573  0.00  0.00    +0.150 A 
ATOM     13  N   UNL     1      -0.449  -4.139   0.287  0.00  0.00    -0.227 NA
ENDBRANCH   1  12
BRANCH   2  14
ATOM     14  C   UNL     1       0.236  -8.019   2.187  0.00  0.00    -0.002 A 
ATOM     15  C   UNL     1      -0.351  -8.218   3.444  0.00  0.00    +0.059 A 
ATOM     16  C   UNL     1      -0.224  -9.437   4.078  0.00  0.00    +0.167 A 
ATOM     17  C   UNL     1       0.490 -10.471   3.467  0.00  0.00    +0.168 A 
ATOM     18  C   UNL     1       1.072 -10.277   2.222  0.00  0.00    +0.070 A 
ATOM     19  C   UNL     1       0.945  -9.064   1.578  0.00  0.00    +0.052 A 
ATOM     20 CL   UNL     1       1.669  -8.829   0.017  0.00  0.00    -0.083 Cl
ATOM     21  O   UNL     1       0.467 -11.559   4.290  0.00  0.00    -0.453 OA
ATOM     22  C   UNL     1       0.088 -11.055   5.584  0.00  0.00    +0.466 C 
ATOM     23  O   UNL     1      -0.689  -9.882   5.282  0.00  0.00    -0.453 OA
ENDBRANCH   2  14
BRANCH   1  24
ATOM     24  C   UNL     1       0.259  -5.614   3.656  0.00  0.00    +0.103 C 
ATOM     25  N   UNL     1       0.428  -5.645   4.779  0.00  0.00    -0.191 NA
ENDBRANCH   1  24
TORSDOF 3
