REMARK  Name = ZINC49131591
REMARK  7 active torsions:
REMARK  status: ('A' for Active; 'I' for Inactive)
REMARK    1  A    between atoms: C_1  and  C_2
REMARK    2  A    between atoms: N_8  and  C_9
REMARK    3  A    between atoms: C_9  and  C_10
REMARK    4  A    between atoms: C_10  and  C_11
REMARK    5  A    between atoms: C_11  and  N_12
REMARK    6  A    between atoms: C_13  and  C_15
REMARK    7  A    between atoms: N_17  and  C_18
REMARK                            x       y       z     vdW  Elec       q    Type
REMARK                         _______ _______ _______ _____ _____    ______ ____
ROOT
ATOM      1  N   UNL     1       4.844  -0.115   3.789  0.00  0.00    -0.308 N 
ATOM      2  C   UNL     1       6.104   0.297   4.033  0.00  0.00    +0.299 C 
ATOM      3  O   UNL     1       6.686   0.983   3.219  0.00  0.00    -0.265 OA
ATOM      4  H   UNL     1       4.378  -0.664   4.439  0.00  0.00    +0.149 HD
ENDROOT
BRANCH   2   5
ATOM      5  C   UNL     1       6.782  -0.091   5.306  0.00  0.00    +0.303 C 
ATOM      6  O   UNL     1       6.200  -0.777   6.120  0.00  0.00    -0.265 OA
ATOM      7  N   UNL     1       8.042   0.321   5.550  0.00  0.00    -0.278 N 
ATOM      8  H   UNL     1       8.532   0.812   4.872  0.00  0.00    +0.155 HD
BRANCH   7   9
ATOM      9  C   UNL     1       8.643   0.040   6.780  0.00  0.00    +0.037 A 
ATOM     10  C   UNL     1       9.511   0.959   7.356  0.00  0.00    +0.043 A 
ATOM     11  C   UNL     1      10.103   0.679   8.573  0.00  0.00    +0.044 A 
ATOM     12  C   UNL     1       9.832  -0.515   9.218  0.00  0.00    +0.040 A 
ATOM     13  C   UNL     1       8.967  -1.432   8.646  0.00  0.00    +0.044 A 
ATOM     14  C   UNL     1       8.368  -1.155   7.432  0.00  0.00    +0.043 A 
ATOM     15 CL   UNL     1       8.630  -2.929   9.458  0.00  0.00    -0.083 Cl
ATOM     16 CL   UNL     1      11.189   1.826   9.294  0.00  0.00    -0.083 Cl
ENDBRANCH   7   9
ENDBRANCH   2   5
BRANCH   1  17
ATOM     17  C   UNL     1       4.178   0.265   2.541  0.00  0.00    +0.103 C 
BRANCH  17  18
ATOM     18  C   UNL     1       2.768  -0.328   2.514  0.00  0.00    +0.000 C 
BRANCH  18  19
ATOM     19  C   UNL     1       2.072   0.069   1.210  0.00  0.00    -0.077 C 
BRANCH  19  26
ATOM     20  C   UNL     1      -0.006   1.509  -0.012  0.00  0.00    -0.013 C 
ATOM     21  C   UNL     1       0.011  -0.021  -0.009  0.00  0.00    -0.072 C 
ATOM     22  C   UNL     1      -1.427  -0.546   0.001  0.00  0.00    -0.016 C 
ATOM     23  C   UNL     1      -1.405  -2.077   0.003  0.00  0.00    -0.003 C 
ATOM     24  C   UNL     1      -0.600  -2.565   1.211  0.00  0.00    -0.019 C 
ATOM     25  C   UNL     1       0.806  -1.965   1.156  0.00  0.00    -0.078 C 
ATOM     26  N   UNL     1       0.719  -0.500   1.184  0.00  0.00    +0.381 N 
ATOM     27  H   UNL     1       0.218  -0.209   2.010  0.00  0.00    -0.081 HD
ENDBRANCH  19  26
ENDBRANCH  18  19
ENDBRANCH  17  18
ENDBRANCH   1  17
TORSDOF 6
