REMARK  Name = ZINC06586566
REMARK  7 active torsions:
REMARK  status: ('A' for Active; 'I' for Inactive)
REMARK    1  A    between atoms: C_1  and  C_2
REMARK    2  A    between atoms: C_2  and  C_4
REMARK    3  A    between atoms: C_2  and  S_17
REMARK    4  A    between atoms: N_6  and  C_7
REMARK    5  A    between atoms: C_10  and  S_13
REMARK    6  A    between atoms: S_13  and  N_16
REMARK    7  A    between atoms: S_17  and  C_18
REMARK                            x       y       z     vdW  Elec       q    Type
REMARK                         _______ _______ _______ _____ _____    ______ ____
ROOT
ATOM      1  C   UNL     1       0.730  -0.505   1.222  0.00  0.00    +0.230 C 
ATOM      2  O   UNL     1       1.909  -0.785   1.153  0.00  0.00    -0.274 OA
ATOM      3  N   UNL     1       0.071  -0.647   2.389  0.00  0.00    -0.285 N 
ATOM      4  H   UNL     1      -0.852  -0.361   2.463  0.00  0.00    +0.155 HD
ENDROOT
BRANCH   3   5
ATOM      5  C   UNL     1       0.720  -1.209   3.495  0.00  0.00    +0.034 A 
ATOM      6  C   UNL     1       0.015  -2.013   4.381  0.00  0.00    +0.025 A 
ATOM      7  C   UNL     1       0.658  -2.566   5.471  0.00  0.00    +0.030 A 
ATOM      8  C   UNL     1       2.002  -2.319   5.681  0.00  0.00    +0.105 A 
ATOM      9  C   UNL     1       2.707  -1.518   4.801  0.00  0.00    +0.030 A 
ATOM     10  C   UNL     1       2.071  -0.968   3.706  0.00  0.00    +0.025 A 
BRANCH   8  11
ATOM     11  S   UNL     1       2.819  -3.026   7.073  0.00  0.00    +0.056 S 
ATOM     12  O   UNL     1       3.943  -2.201   7.346  0.00  0.00    -0.153 OA
ATOM     13  O   UNL     1       1.814  -3.289   8.043  0.00  0.00    -0.153 OA
BRANCH  11  14
ATOM     14  N   UNL     1       3.414  -4.496   6.597  0.00  0.00    -0.204 NA
ATOM     15  H   UNL     1       4.220  -4.849   7.007  0.00  0.00    +0.144 HD
ATOM     16  H   UNL     1       2.958  -5.004   5.909  0.00  0.00    +0.144 HD
ENDBRANCH  11  14
ENDBRANCH   8  11
ENDBRANCH   3   5
BRANCH   1  18
ATOM     17  C   UNL     1      -0.007   1.532   0.016  0.00  0.00    +0.029 C 
ATOM     18  C   UNL     1       0.003   0.002   0.004  0.00  0.00    +0.137 C 
BRANCH  18  19
ATOM     19  S   UNL     1       0.847  -0.585  -1.491  0.00  0.00    -0.075 S 
BRANCH  19  20
ATOM     20  C   UNL     1      -0.192  -0.042  -2.807  0.00  0.00    +0.168 A 
ATOM     21  N   UNL     1       0.042  -0.263  -4.135  0.00  0.00    -0.333 N 
ATOM     22  H   UNL     1       0.797  -0.740  -4.514  0.00  0.00    +0.168 HD
ATOM     23  C   UNL     1      -1.000   0.319  -4.838  0.00  0.00    +0.067 A 
ATOM     24  C   UNL     1      -1.310   0.423  -6.186  0.00  0.00    +0.029 A 
ATOM     25  C   UNL     1      -2.454   1.086  -6.579  0.00  0.00    +0.022 A 
ATOM     26  C   UNL     1      -3.299   1.650  -5.633  0.00  0.00    +0.043 A 
ATOM     27  C   UNL     1      -3.006   1.556  -4.290  0.00  0.00    +0.050 A 
ATOM     28  C   UNL     1      -1.851   0.888  -3.877  0.00  0.00    +0.091 A 
ATOM     29  N   UNL     1      -1.307   0.630  -2.658  0.00  0.00    -0.222 NA
ATOM     30 CL   UNL     1      -4.734   2.481  -6.146  0.00  0.00    -0.083 Cl
ENDBRANCH  19  20
ENDBRANCH  18  19
ENDBRANCH   1  18
TORSDOF 6
