REMARK  Name = ZINC07540790
REMARK  9 active torsions:
REMARK  status: ('A' for Active; 'I' for Inactive)
REMARK    1  A    between atoms: C_1  and  C_2
REMARK    2  A    between atoms: C_2  and  C_4
REMARK    3  A    between atoms: C_2  and  O_29
REMARK    4  A    between atoms: C_7  and  C_10
REMARK    5  A    between atoms: C_13  and  C_15
REMARK    6  A    between atoms: C_15  and  N_60
REMARK    7  A    between atoms: C_16  and  C_18
REMARK    8  A    between atoms: C_16  and  C_19
REMARK    9  A    between atoms: C_16  and  N_60
REMARK                            x       y       z     vdW  Elec       q    Type
REMARK                         _______ _______ _______ _____ _____    ______ ____
ROOT
ATOM      1  C   UNL     1       6.062   4.221  -0.032  0.00  0.00    -0.007 C 
ENDROOT
BRANCH   1   5
ATOM      2  C   UNL     1       2.420   3.937   0.001  0.00  0.00    +0.135 A 
ATOM      3  C   UNL     1       2.536   5.292   0.007  0.00  0.00    +0.050 A 
ATOM      4  C   UNL     1       3.916   5.580  -0.004  0.00  0.00    +0.043 A 
ATOM      5  C   UNL     1       4.566   4.400  -0.017  0.00  0.00    +0.089 A 
ATOM      6  O   UNL     1       3.659   3.409  -0.008  0.00  0.00    -0.462 OA
BRANCH   2  10
ATOM      7  C   UNL     1      -1.221   1.750   0.017  0.00  0.00    -0.019 A 
ATOM      8  C   UNL     1      -0.013   1.076   0.008  0.00  0.00    +0.007 A 
ATOM      9  C   UNL     1       1.173   1.780   0.000  0.00  0.00    +0.012 A 
ATOM     10  C   UNL     1       1.153   3.176   0.008  0.00  0.00    +0.017 A 
ATOM     11  C   UNL     1      -0.070   3.850   0.023  0.00  0.00    +0.012 A 
ATOM     12  C   UNL     1      -1.249   3.133   0.031  0.00  0.00    +0.007 A 
BRANCH   7  14
ATOM     13  C   UNL     1      -3.072   0.918   1.442  0.00  0.00    +0.043 C 
ATOM     14  C   UNL     1      -2.513   0.974   0.019  0.00  0.00    +0.141 C 
BRANCH  14  15
ATOM     15  O   UNL     1      -3.457   1.618  -0.839  0.00  0.00    -0.387 OA
ATOM     16  H   UNL     1      -3.668   2.525  -0.580  0.00  0.00    +0.210 HD
ENDBRANCH  14  15
ENDBRANCH   7  14
ENDBRANCH   2  10
ENDBRANCH   1   5
BRANCH   1  17
ATOM     17  N   UNL     1       6.555   4.156   1.357  0.00  0.00    +0.386 N 
ATOM     18  H   UNL     1       6.114   3.363   1.837  0.00  0.00    -0.085 HD
ATOM     19  H   UNL     1       6.313   5.027   1.843  0.00  0.00    -0.085 HD
BRANCH  17  20
ATOM     20  C   UNL     1       8.020   3.981   1.373  0.00  0.00    -0.068 C 
ATOM     21  C   UNL     1       8.357   2.494   1.250  0.00  0.00    -0.013 C 
BRANCH  20  22
ATOM     22  C   UNL     1       8.576   4.523   2.691  0.00  0.00    -0.041 C 
ATOM     23  C   UNL     1       7.951   3.760   3.861  0.00  0.00    +0.009 C 
ATOM     24  C   UNL     1       8.508   4.302   5.179  0.00  0.00    -0.010 C 
ATOM     25  C   UNL     1      10.027   4.120   5.204  0.00  0.00    +0.007 C 
ATOM     26  C   UNL     1      10.652   4.883   4.035  0.00  0.00    -0.010 C 
ATOM     27  C   UNL     1      10.095   4.341   2.716  0.00  0.00    +0.009 C 
ATOM     28  C   UNL     1      10.314   6.370   4.157  0.00  0.00    +0.007 C 
ATOM     29  C   UNL     1       8.795   6.552   4.132  0.00  0.00    -0.010 C 
ATOM     30  C   UNL     1       8.170   5.789   5.302  0.00  0.00    +0.007 C 
ATOM     31  C   UNL     1       8.238   6.010   2.814  0.00  0.00    +0.009 C 
ENDBRANCH  20  22
ENDBRANCH  17  20
ENDBRANCH   1  17
TORSDOF 7
