REMARK  Name = ZINC12319667
REMARK  7 active torsions:
REMARK  status: ('A' for Active; 'I' for Inactive)
REMARK    1  A    between atoms: C_1  and  C_2
REMARK    2  A    between atoms: C_3  and  C_41
REMARK    3  A    between atoms: C_7  and  N_8
REMARK    4  A    between atoms: C_9  and  C_11
REMARK    5  A    between atoms: C_11  and  C_13
REMARK    6  A    between atoms: C_11  and  N_20
REMARK    7  A    between atoms: C_13  and  C_14
REMARK                            x       y       z     vdW  Elec       q    Type
REMARK                         _______ _______ _______ _____ _____    ______ ____
ROOT
ATOM      1  C   UNL     1      -0.004   1.098   0.008  0.00  0.00    +0.174 C 
ENDROOT
BRANCH   1   2
ATOM      2  N   UNL     1      -0.711   1.584  -1.179  0.00  0.00    -0.229 N 
ATOM      3  C   UNL     1      -0.897   2.886  -1.429  0.00  0.00    +0.227 C 
ATOM      4  O   UNL     1      -0.516   3.799  -0.728  0.00  0.00    -0.275 OA
ATOM      5  C   UNL     1      -1.657   3.038  -2.729  0.00  0.00    +0.095 C 
ATOM      6  C   UNL     1      -3.011   3.730  -2.445  0.00  0.00    +0.027 C 
ATOM      7  C   UNL     1      -3.777   2.840  -1.473  0.00  0.00    -0.026 C 
ATOM      8  C   UNL     1      -3.964   1.589  -1.876  0.00  0.00    -0.026 C 
ATOM      9  C   UNL     1      -3.382   1.249  -3.243  0.00  0.00    +0.027 C 
ATOM     10  C   UNL     1      -1.886   1.588  -3.187  0.00  0.00    +0.095 C 
ATOM     11  C   UNL     1      -1.230   0.763  -2.101  0.00  0.00    +0.227 C 
ATOM     12  O   UNL     1      -1.182  -0.448  -2.070  0.00  0.00    -0.275 OA
ATOM     13  C   UNL     1      -4.034   2.241  -4.243  0.00  0.00    +0.001 C 
ATOM     14  C   UNL     1      -3.815   3.705  -3.772  0.00  0.00    +0.001 C 
ATOM     15  C   UNL     1      -3.067   3.191  -5.004  0.00  0.00    +0.009 C 
ENDBRANCH   1   2
BRANCH   1  17
ATOM     16  N   UNL     1      -0.242   1.246   2.466  0.00  0.00    -0.284 N 
ATOM     17  C   UNL     1      -0.716   1.574   1.248  0.00  0.00    +0.239 C 
ATOM     18  O   UNL     1      -1.716   2.253   1.149  0.00  0.00    -0.273 OA
ATOM     19  H   UNL     1       0.510   0.638   2.546  0.00  0.00    +0.155 HD
BRANCH  16  26
ATOM     20  C   UNL     1       0.016  -0.194   4.906  0.00  0.00    +0.046 C 
ATOM     21  C   UNL     1      -0.732   1.112   4.827  0.00  0.00    -0.025 A 
ATOM     22  C   UNL     1      -1.317   1.643   5.960  0.00  0.00    -0.032 A 
ATOM     23  C   UNL     1      -2.003   2.842   5.888  0.00  0.00    +0.021 A 
ATOM     24  C   UNL     1      -2.106   3.512   4.681  0.00  0.00    +0.017 A 
ATOM     25  C   UNL     1      -1.519   2.988   3.547  0.00  0.00    +0.024 A 
ATOM     26  C   UNL     1      -0.833   1.782   3.615  0.00  0.00    +0.037 A 
ATOM     27 BR   UNL     1      -2.803   3.567   7.441  0.00  0.00    -0.050 Br
ATOM     28  C   UNL     1      -1.207   0.917   7.276  0.00  0.00    +0.045 C 
ENDBRANCH  16  26
ENDBRANCH   1  17
BRANCH   1  29
ATOM     29  C   UNL     1       1.429   1.636   0.004  0.00  0.00    +0.067 C 
BRANCH  29  30
ATOM     30  C   UNL     1       2.178   1.061  -1.170  0.00  0.00    -0.045 A 
ATOM     31  C   UNL     1       2.876  -0.124  -1.032  0.00  0.00    +0.004 A 
ATOM     32  C   UNL     1       3.560  -0.653  -2.110  0.00  0.00    +0.000 A 
ATOM     33  C   UNL     1       3.553   0.007  -3.324  0.00  0.00    +0.000 A 
ATOM     34  C   UNL     1       2.860   1.195  -3.461  0.00  0.00    +0.000 A 
ATOM     35  C   UNL     1       2.172   1.722  -2.384  0.00  0.00    +0.004 A 
ENDBRANCH  29  30
ENDBRANCH   1  29
TORSDOF 5
