REMARK  Name = ZINC14063945
REMARK  8 active torsions:
REMARK  status: ('A' for Active; 'I' for Inactive)
REMARK    1  A    between atoms: C_1  and  C_2
REMARK    2  A    between atoms: C_3  and  C_7
REMARK    3  A    between atoms: C_10  and  S_15
REMARK    4  A    between atoms: N_11  and  C_12
REMARK    5  A    between atoms: C_12  and  C_13
REMARK    6  A    between atoms: S_15  and  C_16
REMARK    7  A    between atoms: C_16  and  C_17
REMARK    8  A    between atoms: N_19  and  C_20
REMARK                            x       y       z     vdW  Elec       q    Type
REMARK                         _______ _______ _______ _____ _____    ______ ____
ROOT
ATOM      1  S   UNL     1       3.270   7.791  -0.311  0.00  0.00    -0.077 S 
ENDROOT
BRANCH   1   5
ATOM      2  C   UNL     1       6.650   9.724  -0.639  0.00  0.00    +0.168 A 
ATOM      3  N   UNL     1       7.037   8.471  -0.584  0.00  0.00    -0.128 NA
ATOM      4  N   UNL     1       6.016   7.700  -0.473  0.00  0.00    -0.122 NA
ATOM      5  C   UNL     1       4.913   8.412  -0.451  0.00  0.00    +0.193 A 
ATOM      6  N   UNL     1       5.277   9.726  -0.561  0.00  0.00    -0.298 N 
BRANCH   2   9
ATOM      7  C   UNL     1       9.383  10.184   0.826  0.00  0.00    +0.087 C 
ATOM      8  C   UNL     1       8.712  11.126  -0.140  0.00  0.00    +0.112 A 
ATOM      9  C   UNL     1       7.525  10.910  -0.768  0.00  0.00    +0.060 A 
ATOM     10  C   UNL     1       7.289  12.100  -1.594  0.00  0.00    +0.053 A 
ATOM     11  C   UNL     1       8.344  12.907  -1.392  0.00  0.00    +0.196 A 
ATOM     12  O   UNL     1       9.186  12.319  -0.529  0.00  0.00    -0.467 OA
ENDBRANCH   2   9
BRANCH   6  13
ATOM     13  C   UNL     1       4.390  10.891  -0.588  0.00  0.00    +0.152 C 
BRANCH  13  14
ATOM     14  C   UNL     1       4.072  11.313   0.823  0.00  0.00    -0.013 C 
ATOM     15  C   UNL     1       4.304  12.544   1.207  0.00  0.00    +0.005 C 
ENDBRANCH  13  14
ENDBRANCH   6  13
ENDBRANCH   1   5
BRANCH   1  16
ATOM     16  C   UNL     1       3.611   6.016  -0.219  0.00  0.00    +0.173 C 
BRANCH  16  17
ATOM     17  C   UNL     1       2.314   5.261  -0.092  0.00  0.00    +0.228 C 
ATOM     18  O   UNL     1       1.261   5.864  -0.066  0.00  0.00    -0.275 OA
ATOM     19  N   UNL     1       2.322   3.916  -0.007  0.00  0.00    -0.284 N 
ATOM     20  H   UNL     1       3.165   3.439   0.056  0.00  0.00    +0.155 HD
BRANCH  19  21
ATOM     21  C   UNL     1       1.115   3.206  -0.010  0.00  0.00    +0.053 A 
ATOM     22  C   UNL     1      -0.016   3.761  -0.594  0.00  0.00    +0.046 A 
ATOM     23  C   UNL     1      -1.206   3.058  -0.597  0.00  0.00    +0.061 A 
ATOM     24  C   UNL     1      -1.270   1.800  -0.021  0.00  0.00    +0.061 A 
ATOM     25  C   UNL     1      -0.146   1.247   0.566  0.00  0.00    +0.043 A 
ATOM     26  C   UNL     1       1.047   1.946   0.571  0.00  0.00    +0.064 A 
ATOM     27 CL   UNL     1       2.459   1.249   1.301  0.00  0.00    -0.082 Cl
ATOM     28 CL   UNL     1      -2.764   0.917  -0.032  0.00  0.00    -0.082 Cl
ATOM     29 CL   UNL     1      -2.621   3.751  -1.327  0.00  0.00    -0.082 Cl
ENDBRANCH  19  21
ENDBRANCH  16  17
ENDBRANCH   1  16
TORSDOF 7
