REMARK  Name = ZINC09130307
REMARK  4 active torsions:
REMARK  status: ('A' for Active; 'I' for Inactive)
REMARK    1  A    between atoms: C_1  and  C_2
REMARK    2  A    between atoms: C_13  and  C_15
REMARK    3  A    between atoms: C_15  and  C_16
REMARK    4  A    between atoms: N_28  and  C_31
REMARK                            x       y       z     vdW  Elec       q    Type
REMARK                         _______ _______ _______ _____ _____    ______ ____
ROOT
ATOM      1  C   UNL     1      -1.273  -0.805  -0.127  0.00  0.00    +0.044 C 
ATOM      2  C   UNL     1       0.043  -0.097  -0.320  0.00  0.00    -0.050 A 
ATOM      3  C   UNL     1       0.066   1.257  -0.603  0.00  0.00    +0.005 A 
ATOM      4  C   UNL     1       1.267   1.911  -0.781  0.00  0.00    +0.024 A 
ATOM      5  C   UNL     1       2.468   1.212  -0.675  0.00  0.00    +0.036 A 
ATOM      6  C   UNL     1       2.432  -0.150  -0.389  0.00  0.00    -0.027 A 
ATOM      7  C   UNL     1       1.230  -0.798  -0.213  0.00  0.00    +0.008 A 
ATOM      8  C   UNL     1       3.866  -0.597  -0.343  0.00  0.00    +0.050 C 
ATOM      9  C   UNL     1       4.225  -1.196   1.023  0.00  0.00    +0.088 C 
ATOM     10  C   UNL     1       4.126  -2.733   0.813  0.00  0.00    +0.074 C 
ATOM     11  C   UNL     1       3.699  -2.906  -0.659  0.00  0.00    -0.053 C 
ATOM     12  C   UNL     1       5.548  -3.216   0.982  0.00  0.00    +0.228 C 
ATOM     13  O   UNL     1       5.912  -4.369   0.889  0.00  0.00    -0.275 OA
ATOM     14  N   UNL     1       6.343  -2.174   1.249  0.00  0.00    -0.210 N 
ATOM     15  C   UNL     1       5.715  -0.994   1.297  0.00  0.00    +0.229 C 
ATOM     16  O   UNL     1       6.243   0.073   1.528  0.00  0.00    -0.275 OA
ATOM     17  C   UNL     1       4.671   0.641  -0.628  0.00  0.00    +0.211 C 
ATOM     18  O   UNL     1       5.880   0.721  -0.685  0.00  0.00    -0.277 OA
ATOM     19  N   UNL     1       3.789   1.643  -0.809  0.00  0.00    -0.286 N 
ATOM     20  H   UNL     1       4.043   2.558  -1.009  0.00  0.00    +0.155 HD
ATOM     21  N   UNL     1       4.122  -1.659  -1.300  0.00  0.00    +0.394 N 
ATOM     22  H   UNL     1       5.122  -1.698  -1.527  0.00  0.00    -0.083 HD
ATOM     23  H   UNL     1       3.582  -1.500  -2.159  0.00  0.00    -0.083 HD
ENDROOT
BRANCH  14  24
ATOM     24  C   UNL     1       7.723  -2.307   1.462  0.00  0.00    +0.044 A 
ATOM     25  C   UNL     1       8.261  -2.051   2.716  0.00  0.00    +0.027 A 
ATOM     26  C   UNL     1       9.620  -2.188   2.924  0.00  0.00    +0.040 A 
ATOM     27  C   UNL     1      10.446  -2.570   1.881  0.00  0.00    +0.124 A 
ATOM     28  C   UNL     1       9.912  -2.820   0.628  0.00  0.00    +0.040 A 
ATOM     29  C   UNL     1       8.554  -2.689   0.417  0.00  0.00    +0.027 A 
ATOM     30  F   UNL     1      11.776  -2.698   2.086  0.00  0.00    -0.205 F 
ENDBRANCH  14  24
BRANCH  11  31
ATOM     31  C   UNL     1       4.400  -4.117  -1.278  0.00  0.00    +0.022 C 
BRANCH  31  32
ATOM     32  C   UNL     1       3.933  -4.295  -2.700  0.00  0.00    -0.024 A 
ATOM     33  C   UNL     1       2.945  -5.100  -3.121  0.00  0.00    +0.087 A 
ATOM     34  N   UNL     1       2.807  -4.998  -4.479  0.00  0.00    -0.360 N 
ATOM     35  H   UNL     1       2.158  -5.484  -5.011  0.00  0.00    +0.165 HD
ATOM     36  C   UNL     1       3.726  -4.102  -4.977  0.00  0.00    +0.047 A 
ATOM     37  C   UNL     1       4.468  -3.618  -3.884  0.00  0.00    +0.003 A 
ATOM     38  C   UNL     1       5.488  -2.688  -4.092  0.00  0.00    +0.010 A 
ATOM     39  C   UNL     1       5.754  -2.244  -5.357  0.00  0.00    +0.001 A 
ATOM     40  C   UNL     1       5.021  -2.713  -6.437  0.00  0.00    +0.002 A 
ATOM     41  C   UNL     1       4.013  -3.636  -6.255  0.00  0.00    +0.026 A 
ENDBRANCH  31  32
ENDBRANCH  11  31
TORSDOF 3
