REMARK  Name = ZINC39935631
REMARK  3 active torsions:
REMARK  status: ('A' for Active; 'I' for Inactive)
REMARK    1  A    between atoms: C_1  and  C_2
REMARK    2  A    between atoms: N_16  and  N_17
REMARK    3  A    between atoms: C_18  and  C_19
REMARK                            x       y       z     vdW  Elec       q    Type
REMARK                         _______ _______ _______ _____ _____    ______ ____
ROOT
ATOM      1  C   UNL     1      -0.018   1.503   0.010  0.00  0.00    +0.046 C 
ATOM      2  C   UNL     1       0.002  -0.004   0.002  0.00  0.00    -0.027 A 
ATOM      3  C   UNL     1       0.006  -0.675  -1.174  0.00  0.00    +0.005 A 
ATOM      4  C   UNL     1       0.026  -2.073  -1.222  0.00  0.00    +0.001 A 
ATOM      5  C   UNL     1       0.002  -2.825  -0.094  0.00  0.00    +0.012 A 
ATOM      6  C   UNL     1      -0.043  -2.201   1.170  0.00  0.00    +0.025 A 
ATOM      7  C   UNL     1      -0.217  -2.660   2.459  0.00  0.00    +0.113 C 
ATOM      8  C   UNL     1       0.169  -1.477   3.345  0.00  0.00    +0.220 C 
ATOM      9  N   UNL     1       0.068  -0.312   2.480  0.00  0.00    -0.361 N 
ATOM     10  C   UNL     1       0.024  -0.722   1.228  0.00  0.00    +0.049 A 
ATOM     11  N   UNL     1      -0.787  -1.506   4.460  0.00  0.00    -0.288 N 
ATOM     12  C   UNL     1      -1.046  -2.777   4.984  0.00  0.00    +0.231 C 
ATOM     13  N   UNL     1      -0.930  -3.868   4.220  0.00  0.00    -0.113 NA
ATOM     14  N   UNL     1      -0.596  -3.817   2.977  0.00  0.00    -0.147 NA
ATOM     15  N   UNL     1      -1.409  -2.902   6.252  0.00  0.00    -0.247 N 
ATOM     16  H   UNL     1       0.042   0.612   2.775  0.00  0.00    +0.162 HD
ATOM     17  H   UNL     1      -1.207  -0.704   4.807  0.00  0.00    +0.151 HD
ATOM     18  H   UNL     1      -1.590  -3.780   6.621  0.00  0.00    +0.192 HD
ENDROOT
BRANCH  15  19
ATOM     19  N   UNL     1      -1.523  -1.854   6.996  0.00  0.00    -0.179 NA
ATOM     20  C   UNL     1      -1.884  -1.977   8.255  0.00  0.00    +0.141 C 
BRANCH  20  21
ATOM     21  C   UNL     1      -2.013  -0.789   9.100  0.00  0.00    +0.012 A 
ATOM     22  C   UNL     1      -2.392  -0.917  10.445  0.00  0.00    +0.060 A 
ATOM     23  C   UNL     1      -2.511   0.206  11.235  0.00  0.00    +0.167 A 
ATOM     24  C   UNL     1      -2.254   1.471  10.698  0.00  0.00    +0.167 A 
ATOM     25  C   UNL     1      -1.879   1.600   9.366  0.00  0.00    +0.065 A 
ATOM     26  C   UNL     1      -1.752   0.484   8.569  0.00  0.00    +0.030 A 
ATOM     27 BR   UNL     1      -1.233   0.668   6.760  0.00  0.00    -0.050 Br
ATOM     28  O   UNL     1      -2.441   2.403  11.675  0.00  0.00    -0.453 OA
ATOM     29  C   UNL     1      -3.208   1.742  12.698  0.00  0.00    +0.466 C 
ATOM     30  O   UNL     1      -2.857   0.354  12.548  0.00  0.00    -0.453 OA
ENDBRANCH  20  21
ENDBRANCH  15  19
TORSDOF 2
