REMARK  Name = ZINC20764329
REMARK  7 active torsions:
REMARK  status: ('A' for Active; 'I' for Inactive)
REMARK    1  A    between atoms: C_1  and  C_2
REMARK    2  A    between atoms: C_2  and  O_3
REMARK    3  A    between atoms: O_3  and  C_4
REMARK    4  A    between atoms: C_8  and  C_11
REMARK    5  A    between atoms: C_9  and  O_10
REMARK    6  A    between atoms: C_14  and  C_26
REMARK    7  A    between atoms: C_16  and  C_19
REMARK                            x       y       z     vdW  Elec       q    Type
REMARK                         _______ _______ _______ _____ _____    ______ ____
ROOT
ATOM      1  C   UNL     1       0.002  -0.004   0.002  0.00  0.00    +0.095 C 
ATOM      2  C   UNL     1       0.214  -0.510  -1.428  0.00  0.00    +0.079 C 
ATOM      3  C   UNL     1      -0.079  -1.984  -1.487  0.00  0.00    +0.047 C 
ATOM      4  N   UNL     1      -0.716  -2.607  -0.569  0.00  0.00    -0.264 NA
ATOM      5  C   UNL     1      -1.224  -1.979   0.645  0.00  0.00    +0.206 C 
ATOM      6  N   UNL     1      -1.290  -0.521   0.486  0.00  0.00    -0.284 NA
ATOM      7  H   UNL     1      -1.527  -0.064   1.458  0.00  0.00    +0.125 HD
ENDROOT
BRANCH   5   8
ATOM      8  C   UNL     1      -0.311  -2.313   1.796  0.00  0.00    +0.026 A 
ATOM      9  C   UNL     1      -0.103  -1.389   2.804  0.00  0.00    +0.010 A 
ATOM     10  C   UNL     1       0.730  -1.697   3.863  0.00  0.00    +0.001 A 
ATOM     11  C   UNL     1       1.365  -2.925   3.910  0.00  0.00    +0.003 A 
ATOM     12  C   UNL     1       1.163  -3.847   2.901  0.00  0.00    +0.039 A 
ATOM     13  C   UNL     1       0.324  -3.542   1.843  0.00  0.00    +0.130 A 
ATOM     14  F   UNL     1       0.126  -4.443   0.856  0.00  0.00    -0.205 F 
ENDBRANCH   5   8
BRANCH   3  15
ATOM     15  C   UNL     1       0.390  -2.747  -2.660  0.00  0.00    -0.004 A 
ATOM     16  C   UNL     1       1.083  -2.101  -3.686  0.00  0.00    +0.011 A 
ATOM     17  C   UNL     1       1.523  -2.821  -4.777  0.00  0.00    +0.020 A 
ATOM     18  C   UNL     1       1.268  -4.180  -4.861  0.00  0.00    +0.041 A 
ATOM     19  C   UNL     1       0.577  -4.826  -3.849  0.00  0.00    +0.020 A 
ATOM     20  C   UNL     1       0.137  -4.118  -2.751  0.00  0.00    +0.011 A 
ATOM     21 CL   UNL     1       1.819  -5.079  -6.241  0.00  0.00    -0.084 Cl
ENDBRANCH   3  15
BRANCH   1  26
ATOM     22  C   UNL     1       1.150   3.603   0.011  0.00  0.00    +0.162 A 
ATOM     23  C   UNL     1      -0.063   4.273   0.026  0.00  0.00    +0.049 A 
ATOM     24  C   UNL     1      -1.247   3.560   0.033  0.00  0.00    +0.004 A 
ATOM     25  C   UNL     1      -1.225   2.178   0.020  0.00  0.00    +0.009 A 
ATOM     26  C   UNL     1      -0.018   1.503   0.010  0.00  0.00    +0.015 A 
ATOM     27  C   UNL     1       1.172   2.212   0.003  0.00  0.00    +0.163 A 
BRANCH  27  28
ATOM     28  O   UNL     1       2.360   1.550  -0.013  0.00  0.00    -0.503 OA
ATOM     29  H   UNL     1       2.376   0.450  -0.019  0.00  0.00    +0.292 HD
ENDBRANCH  27  28
BRANCH  22  30
ATOM     30  O   UNL     1       2.315   4.304   0.004  0.00  0.00    -0.489 OA
BRANCH  30  32
ATOM     31  C   UNL     1       3.619   6.338   0.003  0.00  0.00    +0.048 C 
ATOM     32  C   UNL     1       2.216   5.729   0.012  0.00  0.00    +0.226 C 
ENDBRANCH  30  32
ENDBRANCH  22  30
ENDBRANCH   1  26
TORSDOF 6
