REMARK  Name = ZINC12499533
REMARK  10 active torsions:
REMARK  status: ('A' for Active; 'I' for Inactive)
REMARK    1  A    between atoms: C_1  and  C_2
REMARK    2  A    between atoms: C_5  and  C_26
REMARK    3  A    between atoms: C_6  and  O_8
REMARK    4  A    between atoms: O_8  and  C_9
REMARK    5  A    between atoms: C_9  and  C_10
REMARK    6  A    between atoms: N_12  and  C_13
REMARK    7  A    between atoms: C_13  and  N_15
REMARK    8  A    between atoms: N_15  and  C_16
REMARK    9  A    between atoms: C_19  and  N_23
REMARK   10  A    between atoms: C_21  and  O_22
REMARK                            x       y       z     vdW  Elec       q    Type
REMARK                         _______ _______ _______ _____ _____    ______ ____
ROOT
ATOM      1  C   UNL     1       4.974   7.787   0.244  0.00  0.00    +0.141 C 
ATOM      2  S   UNL     1       6.318   6.776   0.559  0.00  0.00    -0.018 S 
ENDROOT
BRANCH   1   5
ATOM      3  C   UNL     1       3.543   5.957   0.476  0.00  0.00    +0.256 C 
ATOM      4  O   UNL     1       4.495   5.241   0.699  0.00  0.00    -0.272 OA
ATOM      5  N   UNL     1       3.729   7.271   0.236  0.00  0.00    -0.265 N 
ATOM      6  H   UNL     1       2.967   7.844   0.057  0.00  0.00    +0.157 HD
BRANCH   3   7
ATOM      7  C   UNL     1       2.151   5.380   0.467  0.00  0.00    +0.325 C 
BRANCH   7   8
ATOM      8  O   UNL     1       2.214   3.980   0.747  0.00  0.00    -0.482 OA
BRANCH   8  14
ATOM      9  C   UNL     1      -2.647   4.007   0.317  0.00  0.00    +0.044 C 
ATOM     10  C   UNL     1      -1.352   3.281   0.572  0.00  0.00    -0.047 A 
ATOM     11  C   UNL     1      -1.361   1.923   0.831  0.00  0.00    +0.004 A 
ATOM     12  C   UNL     1      -0.174   1.255   1.071  0.00  0.00    +0.007 A 
ATOM     13  C   UNL     1       1.025   1.941   1.041  0.00  0.00    -0.009 A 
ATOM     14  C   UNL     1       1.037   3.302   0.776  0.00  0.00    +0.124 A 
ATOM     15  C   UNL     1      -0.156   3.972   0.541  0.00  0.00    +0.049 A 
ATOM     16  C   UNL     1       2.318   1.211   1.296  0.00  0.00    +0.047 C 
ENDBRANCH   8  14
ENDBRANCH   7   8
ENDBRANCH   3   7
ENDBRANCH   1   5
BRANCH   1  17
ATOM     17  N   UNL     1       5.160   9.100   0.003  0.00  0.00    -0.294 N 
ATOM     18  H   UNL     1       4.406   9.661  -0.237  0.00  0.00    +0.154 HD
BRANCH  17  19
ATOM     19  C   UNL     1       6.442   9.655   0.100  0.00  0.00    +0.075 A 
ATOM     20  C   UNL     1       7.521   9.024  -0.504  0.00  0.00    +0.029 A 
ATOM     21  C   UNL     1       8.785   9.574  -0.406  0.00  0.00    +0.035 A 
ATOM     22  C   UNL     1       8.979  10.752   0.291  0.00  0.00    +0.130 A 
ATOM     23  C   UNL     1       7.910  11.386   0.895  0.00  0.00    +0.080 A 
ATOM     24  C   UNL     1       6.638  10.845   0.798  0.00  0.00    +0.140 A 
BRANCH  22  25
ATOM     25  N   UNL     1      10.336  11.336   0.391  0.00  0.00    +0.057 N 
ATOM     26  O   UNL     1      11.279  10.778  -0.141  0.00  0.00    -0.126 OA
ATOM     27  O   UNL     1      10.508  12.373   1.005  0.00  0.00    -0.126 OA
ENDBRANCH  22  25
BRANCH  24  28
ATOM     28  O   UNL     1       5.584  11.470   1.387  0.00  0.00    -0.505 OA
ATOM     29  H   UNL     1       5.421  11.193   2.299  0.00  0.00    +0.292 HD
ENDBRANCH  24  28
ENDBRANCH  17  19
ENDBRANCH   1  17
TORSDOF 8
