REMARK  Name = ZINC58733095
REMARK  6 active torsions:
REMARK  status: ('A' for Active; 'I' for Inactive)
REMARK    1  A    between atoms: C_4  and  C_7
REMARK    2  A    between atoms: N_16  and  C_17
REMARK    3  A    between atoms: C_17  and  C_18
REMARK    4  A    between atoms: N_20  and  C_21
REMARK    5  A    between atoms: C_21  and  C_23
REMARK    6  A    between atoms: C_21  and  C_30
REMARK                            x       y       z     vdW  Elec       q    Type
REMARK                         _______ _______ _______ _____ _____    ______ ____
ROOT
ATOM      1  C   UNL     1       3.153  -2.714   3.072  0.00  0.00    +0.228 C 
ATOM      2  O   UNL     1       3.061  -3.802   2.543  0.00  0.00    -0.274 OA
ATOM      3  N   UNL     1       2.966  -2.594   4.401  0.00  0.00    -0.303 N 
ATOM      4  H   UNL     1       3.040  -1.724   4.824  0.00  0.00    +0.150 HD
ENDROOT
BRANCH   1   5
ATOM      5  C   UNL     1       3.476  -1.498   2.243  0.00  0.00    +0.181 C 
BRANCH   5  14
ATOM      6  C   UNL     1       3.711  -0.707  -0.038  0.00  0.00    +0.134 C 
ATOM      7  C   UNL     1       4.013  -1.179  -1.439  0.00  0.00    +0.041 A 
ATOM      8  C   UNL     1       3.894  -0.497  -2.587  0.00  0.00    +0.024 A 
ATOM      9  C   UNL     1       4.291  -1.359  -3.632  0.00  0.00    +0.019 A 
ATOM     10  C   UNL     1       4.638  -2.539  -3.074  0.00  0.00    +0.086 A 
ATOM     11  N   UNL     1       4.473  -2.437  -1.730  0.00  0.00    -0.348 N 
ATOM     12  C   UNL     1       4.728  -3.458  -0.707  0.00  0.00    +0.137 C 
ATOM     13  C   UNL     1       4.801  -2.762   0.657  0.00  0.00    +0.107 C 
ATOM     14  N   UNL     1       3.631  -1.891   0.836  0.00  0.00    -0.280 NA
BRANCH   6  18
ATOM     15  C   UNL     1      -0.017   1.378   0.010  0.00  0.00    +0.000 A 
ATOM     16  C   UNL     1       1.171   2.086   0.002  0.00  0.00    +0.000 A 
ATOM     17  C   UNL     1       2.377   1.411  -0.013  0.00  0.00    +0.005 A 
ATOM     18  C   UNL     1       2.396   0.029  -0.020  0.00  0.00    -0.024 A 
ATOM     19  C   UNL     1       1.208  -0.679  -0.012  0.00  0.00    +0.005 A 
ATOM     20  C   UNL     1       0.002  -0.004   0.002  0.00  0.00    +0.000 A 
ENDBRANCH   6  18
ENDBRANCH   5  14
ENDBRANCH   1   5
BRANCH   3  21
ATOM     21  C   UNL     1       2.652  -3.776   5.207  0.00  0.00    +0.140 C 
BRANCH  21  22
ATOM     22  C   UNL     1       3.084  -3.542   6.631  0.00  0.00    -0.022 A 
ATOM     23  C   UNL     1       2.886  -2.307   7.220  0.00  0.00    +0.008 A 
ATOM     24  C   UNL     1       3.281  -2.092   8.526  0.00  0.00    +0.038 A 
ATOM     25  C   UNL     1       3.876  -3.114   9.246  0.00  0.00    +0.123 A 
ATOM     26  C   UNL     1       4.074  -4.351   8.656  0.00  0.00    +0.038 A 
ATOM     27  C   UNL     1       3.674  -4.565   7.351  0.00  0.00    +0.008 A 
ATOM     28  F   UNL     1       4.263  -2.904  10.524  0.00  0.00    -0.205 F 
ENDBRANCH  21  22
BRANCH  21  29
ATOM     29  C   UNL     1       1.168  -4.031   5.168  0.00  0.00    +0.014 A 
ATOM     30  C   UNL     1       0.506  -5.211   5.084  0.00  0.00    +0.013 A 
ATOM     31  C   UNL     1      -0.876  -5.205   5.063  0.00  0.00    +0.008 A 
ATOM     32  C   UNL     1      -1.529  -4.019   5.127  0.00  0.00    +0.045 A 
ATOM     33  S   UNL     1      -0.176  -2.858   5.227  0.00  0.00    -0.099 S 
ENDBRANCH  21  29
ENDBRANCH   3  21
TORSDOF 6
