REMARK  Name = ZINC20271051
REMARK  5 active torsions:
REMARK  status: ('A' for Active; 'I' for Inactive)
REMARK    1  A    between atoms: C_8  and  C_10
REMARK    2  A    between atoms: C_14  and  O_16
REMARK    3  A    between atoms: N_20  and  C_22
REMARK    4  A    between atoms: C_22  and  C_23
REMARK    5  A    between atoms: C_26  and  O_29
REMARK                            x       y       z     vdW  Elec       q    Type
REMARK                         _______ _______ _______ _____ _____    ______ ____
ROOT
ATOM      1  C   UNL     1       3.719   3.202   0.000  0.00  0.00    +0.011 A 
ATOM      2  C   UNL     1       3.256   2.530  -1.135  0.00  0.00    +0.016 A 
ATOM      3  C   UNL     1       2.003   1.960  -1.125  0.00  0.00    -0.018 A 
ATOM      4  C   UNL     1       1.204   2.028   0.002  0.00  0.00    +0.163 A 
ATOM      5  C   UNL     1       1.654   2.706   1.134  0.00  0.00    +0.159 A 
ATOM      6  C   UNL     1       2.907   3.291   1.133  0.00  0.00    +0.059 A 
ATOM      7  O   UNL     1      -0.017   1.429   0.010  0.00  0.00    -0.490 OA
ATOM      8  C   UNL     1       0.002  -0.004   0.002  0.00  0.00    +0.211 C 
ATOM      9  C   UNL     1       0.111  -0.529  -1.414  0.00  0.00    -0.036 C 
ATOM     10  N   UNL     1       1.369  -0.184  -2.070  0.00  0.00    +0.387 N 
ATOM     11  C   UNL     1       1.479   1.250  -2.360  0.00  0.00    -0.039 C 
ATOM     12  H   UNL     1       2.169  -0.426  -1.355  0.00  0.00    -0.081 HD
ENDROOT
BRANCH   1  20
ATOM     13  C   UNL     1       9.363   5.183  -1.460  0.00  0.00    +0.002 A 
ATOM     14  C   UNL     1       9.562   5.776  -0.222  0.00  0.00    +0.001 A 
ATOM     15  C   UNL     1       8.563   5.708   0.731  0.00  0.00    +0.017 A 
ATOM     16  C   UNL     1       7.392   5.053   0.436  0.00  0.00    +0.040 A 
ATOM     17  C   UNL     1       7.159   4.438  -0.817  0.00  0.00    +0.079 A 
ATOM     18  C   UNL     1       8.208   4.532  -1.763  0.00  0.00    +0.029 A 
ATOM     19  N   UNL     1       5.964   3.831  -0.956  0.00  0.00    -0.239 NA
ATOM     20  C   UNL     1       5.063   3.816   0.002  0.00  0.00    +0.110 A 
ATOM     21  S   UNL     1       5.881   4.719   1.309  0.00  0.00    -0.067 S 
ENDBRANCH   1  20
BRANCH   5  22
ATOM     22  O   UNL     1       0.863   2.791   2.237  0.00  0.00    -0.503 OA
ATOM     23  H   UNL     1       1.220   3.326   3.129  0.00  0.00    +0.292 HD
ENDBRANCH   5  22
BRANCH  10  24
ATOM     24  C   UNL     1       1.564  -0.983  -3.287  0.00  0.00    -0.042 C 
BRANCH  24  25
ATOM     25  C   UNL     1       1.741  -2.432  -2.912  0.00  0.00    -0.064 A 
ATOM     26  C   UNL     1       3.007  -2.932  -2.665  0.00  0.00    +0.005 A 
ATOM     27  C   UNL     1       3.171  -4.258  -2.316  0.00  0.00    +0.045 A 
ATOM     28  C   UNL     1       2.066  -5.092  -2.225  0.00  0.00    +0.117 A 
ATOM     29  C   UNL     1       0.798  -4.590  -2.479  0.00  0.00    +0.045 A 
ATOM     30  C   UNL     1       0.639  -3.261  -2.822  0.00  0.00    +0.005 A 
BRANCH  28  31
ATOM     31  O   UNL     1       2.226  -6.399  -1.887  0.00  0.00    -0.507 OA
ATOM     32  H   UNL     1       1.349  -7.059  -1.815  0.00  0.00    +0.292 HD
ENDBRANCH  28  31
ENDBRANCH  24  25
ENDBRANCH  10  24
TORSDOF 5
