REMARK  Name = ZINC54438325
REMARK  5 active torsions:
REMARK  status: ('A' for Active; 'I' for Inactive)
REMARK    1  A    between atoms: C_1  and  C_2
REMARK    2  A    between atoms: C_5  and  C_7
REMARK    3  A    between atoms: C_7  and  C_9
REMARK    4  A    between atoms: C_7  and  N_10
REMARK    5  A    between atoms: C_17  and  C_19
REMARK                            x       y       z     vdW  Elec       q    Type
REMARK                         _______ _______ _______ _____ _____    ______ ____
ROOT
ATOM      1  N   UNL     1       2.201  -4.137  -0.921  0.00  0.00    -0.292 N 
ATOM      2  C   UNL     1       2.539  -5.311  -1.489  0.00  0.00    +0.306 C 
ATOM      3  O   UNL     1       1.883  -6.309  -1.260  0.00  0.00    -0.252 OA
ATOM      4  N   UNL     1       3.605  -5.380  -2.311  0.00  0.00    -0.247 N 
ATOM      5  C   UNL     1       3.953  -6.590  -2.896  0.00  0.00    +0.189 A 
ATOM      6  N   UNL     1       3.370  -7.770  -2.778  0.00  0.00    -0.125 NA
ATOM      7  N   UNL     1       3.804  -8.793  -3.378  0.00  0.00    -0.138 NA
ATOM      8  C   UNL     1       4.879  -8.676  -4.149  0.00  0.00    +0.152 A 
ATOM      9  S   UNL     1       5.225  -6.934  -3.947  0.00  0.00    -0.029 S 
ATOM     10  H   UNL     1       2.725  -3.341  -1.103  0.00  0.00    +0.151 HD
ATOM     11  H   UNL     1       4.129  -4.585  -2.494  0.00  0.00    +0.158 HD
ENDROOT
BRANCH   8  12
ATOM     12  C   UNL     1       5.586  -9.696  -4.950  0.00  0.00    +0.098 A 
ATOM     13  C   UNL     1       5.120 -11.012  -4.964  0.00  0.00    +0.030 A 
ATOM     14  C   UNL     1       5.793 -11.955  -5.719  0.00  0.00    +0.004 A 
ATOM     15  C   UNL     1       6.911 -11.554  -6.438  0.00  0.00    +0.020 A 
ATOM     16  C   UNL     1       7.319 -10.234  -6.379  0.00  0.00    +0.111 A 
ATOM     17  N   UNL     1       6.657  -9.353  -5.657  0.00  0.00    -0.253 NA
ENDBRANCH   8  12
BRANCH   1  18
ATOM     18  C   UNL     1       1.043  -4.062  -0.027  0.00  0.00    +0.108 C 
ATOM     19  C   UNL     1       1.465  -4.458   1.389  0.00  0.00    +0.033 C 
BRANCH  18  24
ATOM     20  C   UNL     1      -0.018   1.503   0.010  0.00  0.00    +0.051 C 
ATOM     21  C   UNL     1       0.002  -0.004   0.002  0.00  0.00    -0.013 A 
ATOM     22  C   UNL     1      -1.039  -0.872   0.002  0.00  0.00    +0.011 A 
ATOM     23  C   UNL     1      -0.780  -2.230  -0.007  0.00  0.00    +0.013 A 
ATOM     24  C   UNL     1       0.507  -2.653  -0.016  0.00  0.00    +0.010 A 
ATOM     25  S   UNL     1       1.404  -1.109  -0.018  0.00  0.00    -0.097 S 
ENDBRANCH  18  24
ENDBRANCH   1  18
TORSDOF 3
