REMARK  Name = ZINC37292778
REMARK  4 active torsions:
REMARK  status: ('A' for Active; 'I' for Inactive)
REMARK    1  A    between atoms: C_1  and  C_2
REMARK    2  A    between atoms: C_2  and  C_4
REMARK    3  A    between atoms: C_2  and  N_10
REMARK    4  A    between atoms: N_10  and  C_11
REMARK                            x       y       z     vdW  Elec       q    Type
REMARK                         _______ _______ _______ _____ _____    ______ ____
ROOT
ATOM      1  N   UNL     1       0.713  -0.491   1.192  0.00  0.00    -0.308 NA
ATOM      2  H   UNL     1       1.151  -1.381   1.012  0.00  0.00    +0.123 HD
ENDROOT
BRANCH   1   3
ATOM      3  C   UNL     1      -0.191  -0.572   2.348  0.00  0.00    +0.039 C 
ATOM      4  C   UNL     1      -0.892  -1.954   2.392  0.00  0.00    -0.002 C 
ATOM      5  C   UNL     1      -0.495  -2.559   3.765  0.00  0.00    -0.077 C 
ATOM      6  N   UNL     1      -0.177  -1.377   4.582  0.00  0.00    +0.383 N 
ATOM      7  C   UNL     1       0.605  -0.512   3.656  0.00  0.00    -0.051 C 
ATOM      8  C   UNL     1       0.686   0.875   4.275  0.00  0.00    -0.014 C 
ATOM      9  C   UNL     1       1.473   0.748   5.589  0.00  0.00    -0.003 C 
ATOM     10  C   UNL     1       0.829  -0.296   6.501  0.00  0.00    -0.019 C 
ATOM     11  C   UNL     1       0.643  -1.635   5.758  0.00  0.00    -0.078 C 
ATOM     12  H   UNL     1      -1.030  -0.910   4.854  0.00  0.00    -0.081 HD
ENDBRANCH   1   3
BRANCH   1  14
ATOM     13  C   UNL     1      -0.019   1.526   0.010  0.00  0.00    +0.029 C 
ATOM     14  C   UNL     1       0.002  -0.004   0.002  0.00  0.00    +0.089 C 
BRANCH  14  15
ATOM     15  C   UNL     1       0.707  -0.490  -1.238  0.00  0.00    +0.020 A 
ATOM     16  C   UNL     1       0.180  -1.028  -2.365  0.00  0.00    +0.030 A 
ATOM     17  C   UNL     1       1.029  -1.406  -3.388  0.00  0.00    +0.023 A 
ATOM     18  C   UNL     1       2.364  -1.229  -3.234  0.00  0.00    +0.046 A 
ATOM     19  S   UNL     1       2.454  -0.500  -1.607  0.00  0.00    -0.099 S 
ATOM     20 BR   UNL     1      -1.690  -1.257  -2.535  0.00  0.00    -0.049 Br
ENDBRANCH  14  15
ENDBRANCH   1  14
TORSDOF 3
