REMARK  Name = ZINC20997176
REMARK  12 active torsions:
REMARK  status: ('A' for Active; 'I' for Inactive)
REMARK    1  A    between atoms: C_1  and  C_2
REMARK    2  A    between atoms: C_2  and  N_3
REMARK    3  A    between atoms: C_14  and  C_16
REMARK    4  A    between atoms: C_16  and  N_17
REMARK    5  A    between atoms: N_17  and  C_18
REMARK    6  A    between atoms: C_21  and  C_28
REMARK    7  A    between atoms: N_23  and  C_25
REMARK    8  A    between atoms: C_25  and  C_26
REMARK    9  A    between atoms: C_25  and  C_27
REMARK   10  A    between atoms: N_30  and  C_31
REMARK   11  A    between atoms: C_31  and  C_32
REMARK   12  A    between atoms: C_31  and  C_33
REMARK                            x       y       z     vdW  Elec       q    Type
REMARK                         _______ _______ _______ _____ _____    ______ ____
ROOT
ATOM      1  N   UNL     1      -1.021   9.374   1.399  0.00  0.00    +0.384 N 
ATOM      2  H   UNL     1      -1.545   8.554   1.911  0.00  0.00    -0.085 HD
ATOM      3  H   UNL     1      -0.065   9.572   1.906  0.00  0.00    -0.085 HD
ENDROOT
BRANCH   1   4
ATOM      4  C   UNL     1      -1.853  10.583   1.472  0.00  0.00    -0.055 C 
ATOM      5  C   UNL     1      -1.665  11.295   2.832  0.00  0.00    +0.014 C 
ATOM      6  C   UNL     1      -3.072  11.776   3.232  0.00  0.00    +0.142 C 
ATOM      7  N   UNL     1      -3.991  11.383   2.142  0.00  0.00    -0.291 NA
ATOM      8  C   UNL     1      -3.357  10.214   1.475  0.00  0.00    +0.070 C 
BRANCH   6   9
ATOM      9  C   UNL     1      -3.075  13.274   3.396  0.00  0.00    +0.230 C 
ATOM     10  O   UNL     1      -3.783  13.960   2.691  0.00  0.00    -0.274 OA
ATOM     11  N   UNL     1      -2.290  13.851   4.327  0.00  0.00    -0.312 N 
ATOM     12  H   UNL     1      -1.647  13.229   4.967  0.00  0.00    +0.149 HD
BRANCH  11  13
ATOM     13  C   UNL     1      -2.293  15.307   4.487  0.00  0.00    +0.067 C 
ATOM     14  C   UNL     1      -3.441  15.717   5.412  0.00  0.00    +0.027 C 
ATOM     15  C   UNL     1      -0.963  15.757   5.096  0.00  0.00    +0.027 C 
ENDBRANCH  11  13
ENDBRANCH   6   9
BRANCH   7  16
ATOM     16  C   UNL     1      -5.316  11.034   2.671  0.00  0.00    +0.051 C 
ATOM     17  C   UNL     1      -5.964  12.277   3.284  0.00  0.00    +0.024 C 
ATOM     18  C   UNL     1      -6.196  10.508   1.535  0.00  0.00    +0.024 C 
ENDBRANCH   7  16
ENDBRANCH   1   4
BRANCH   1  19
ATOM     19  C   UNL     1      -0.765   8.995   0.003  0.00  0.00    -0.046 C 
BRANCH  19  31
ATOM     20  N   UNL     1       2.222   4.204  -0.128  0.00  0.00    -0.340 N 
ATOM     21  C   UNL     1       1.214   3.256  -0.129  0.00  0.00    +0.050 A 
ATOM     22  C   UNL     1       1.237   1.865  -0.153  0.00  0.00    +0.026 A 
ATOM     23  C   UNL     1       0.056   1.155  -0.147  0.00  0.00    +0.002 A 
ATOM     24  C   UNL     1      -1.163   1.816  -0.122  0.00  0.00    +0.001 A 
ATOM     25  C   UNL     1      -1.206   3.193  -0.092  0.00  0.00    +0.010 A 
ATOM     26  C   UNL     1      -0.020   3.923  -0.098  0.00  0.00    +0.008 A 
ATOM     27  C   UNL     1       0.284   5.365  -0.077  0.00  0.00    +0.008 A 
ATOM     28  C   UNL     1       1.683   5.478  -0.098  0.00  0.00    +0.050 A 
ATOM     29  C   UNL     1       2.265   6.741  -0.085  0.00  0.00    +0.026 A 
ATOM     30  C   UNL     1       1.470   7.867  -0.052  0.00  0.00    +0.004 A 
ATOM     31  C   UNL     1       0.089   7.754  -0.032  0.00  0.00    -0.064 A 
ATOM     32  C   UNL     1      -0.506   6.511  -0.044  0.00  0.00    +0.012 A 
BRANCH  20  34
ATOM     33  C   UNL     1       4.132   3.822  -1.607  0.00  0.00    +0.027 C 
ATOM     34  C   UNL     1       3.655   3.902  -0.155  0.00  0.00    +0.119 C 
ENDBRANCH  20  34
ENDBRANCH  19  31
ENDBRANCH   1  19
TORSDOF 7
