REMARK  Name = ZINC13566921
REMARK  9 active torsions:
REMARK  status: ('A' for Active; 'I' for Inactive)
REMARK    1  A    between atoms: C_1  and  C_2
REMARK    2  A    between atoms: C_2  and  C_4
REMARK    3  A    between atoms: C_2  and  O_26
REMARK    4  A    between atoms: N_12  and  C_13
REMARK    5  A    between atoms: C_13  and  C_14
REMARK    6  A    between atoms: C_14  and  C_16
REMARK    7  A    between atoms: C_14  and  O_25
REMARK    8  A    between atoms: C_16  and  O_17
REMARK    9  A    between atoms: O_17  and  C_18
REMARK                            x       y       z     vdW  Elec       q    Type
REMARK                         _______ _______ _______ _____ _____    ______ ____
ROOT
ATOM      1  C   UNL     1      -4.560   6.312  -1.344  0.00  0.00    +0.139 A 
ATOM      2  N   UNL     1      -5.740   6.792  -1.076  0.00  0.00    -0.230 NA
ATOM      3  C   UNL     1      -5.882   6.928   0.267  0.00  0.00    +0.089 A 
ATOM      4  C   UNL     1      -6.918   7.389   1.085  0.00  0.00    +0.030 A 
ATOM      5  C   UNL     1      -6.758   7.406   2.441  0.00  0.00    +0.002 A 
ATOM      6  C   UNL     1      -5.574   6.970   3.020  0.00  0.00    +0.002 A 
ATOM      7  C   UNL     1      -4.539   6.511   2.233  0.00  0.00    +0.028 A 
ATOM      8  C   UNL     1      -4.684   6.486   0.853  0.00  0.00    +0.069 A 
ATOM      9  N   UNL     1      -3.869   6.100  -0.192  0.00  0.00    -0.323 N 
ENDROOT
BRANCH   1  11
ATOM     10  C   UNL     1      -3.670   7.348  -3.414  0.00  0.00    +0.046 C 
ATOM     11  C   UNL     1      -4.037   6.030  -2.729  0.00  0.00    +0.177 C 
BRANCH  11  12
ATOM     12  O   UNL     1      -5.045   5.363  -3.492  0.00  0.00    -0.384 OA
ATOM     13  H   UNL     1      -4.777   5.150  -4.396  0.00  0.00    +0.210 HD
ENDBRANCH  11  12
ENDBRANCH   1  11
BRANCH   9  14
ATOM     14  C   UNL     1      -2.509   5.566  -0.082  0.00  0.00    +0.158 C 
BRANCH  14  15
ATOM     15  C   UNL     1      -2.567   4.042   0.036  0.00  0.00    +0.171 C 
BRANCH  15  16
ATOM     16  O   UNL     1      -3.214   3.683   1.258  0.00  0.00    -0.387 OA
ATOM     17  H   UNL     1      -2.770   4.014   2.051  0.00  0.00    +0.210 HD
ENDBRANCH  15  16
BRANCH  15  18
ATOM     18  C   UNL     1      -1.146   3.475   0.026  0.00  0.00    +0.262 C 
BRANCH  18  19
ATOM     19  O   UNL     1      -1.202   2.048   0.019  0.00  0.00    -0.489 OA
BRANCH  19  20
ATOM     20  C   UNL     1      -0.017   1.383   0.010  0.00  0.00    +0.121 A 
ATOM     21  C   UNL     1       1.176   2.091   0.002  0.00  0.00    +0.046 A 
ATOM     22  C   UNL     1       2.380   1.413  -0.012  0.00  0.00    +0.018 A 
ATOM     23  C   UNL     1       2.397   0.030  -0.020  0.00  0.00    +0.014 A 
ATOM     24  C   UNL     1       1.208  -0.677  -0.013  0.00  0.00    +0.018 A 
ATOM     25  C   UNL     1       0.002  -0.004   0.002  0.00  0.00    +0.046 A 
ATOM     26  I   UNL     1       4.224  -0.994  -0.043  0.00  0.00    -0.044 I 
ENDBRANCH  19  20
ENDBRANCH  18  19
ENDBRANCH  15  18
ENDBRANCH  14  15
ENDBRANCH   9  14
TORSDOF 8
