REMARK  Name = ZINC63697927
REMARK  5 active torsions:
REMARK  status: ('A' for Active; 'I' for Inactive)
REMARK    1  A    between atoms: C_1  and  C_2
REMARK    2  A    between atoms: C_2  and  O_3
REMARK    3  A    between atoms: O_3  and  C_4
REMARK    4  A    between atoms: C_7  and  C_10
REMARK    5  A    between atoms: C_25  and  C_27
REMARK                            x       y       z     vdW  Elec       q    Type
REMARK                         _______ _______ _______ _____ _____    ______ ____
ROOT
ATOM      1  C   UNL     1      -1.991  -6.421  -0.173  0.00  0.00    +0.133 C 
ATOM      2  C   UNL     1      -2.154  -7.264  -1.442  0.00  0.00    +0.131 C 
ATOM      3  C   UNL     1      -3.620  -7.165  -1.844  0.00  0.00    -0.035 C 
ATOM      4  C   UNL     1      -3.637  -6.716  -3.094  0.00  0.00    -0.001 A 
ATOM      5  C   UNL     1      -4.743  -6.484  -4.036  0.00  0.00    +0.010 A 
ATOM      6  C   UNL     1      -4.398  -5.998  -5.258  0.00  0.00    +0.001 A 
ATOM      7  C   UNL     1      -3.079  -5.723  -5.632  0.00  0.00    +0.002 A 
ATOM      8  C   UNL     1      -2.000  -5.910  -4.831  0.00  0.00    +0.026 A 
ATOM      9  C   UNL     1      -2.235  -6.423  -3.522  0.00  0.00    +0.043 A 
ATOM     10  N   UNL     1      -1.379  -6.720  -2.560  0.00  0.00    -0.375 N 
ATOM     11  C   UNL     1      -4.745  -7.470  -0.886  0.00  0.00    +0.052 C 
ATOM     12  C   UNL     1      -4.468  -6.661   0.394  0.00  0.00    +0.113 C 
ATOM     13  N   UNL     1      -3.055  -6.806   0.766  0.00  0.00    -0.288 N 
ATOM     14  C   UNL     1      -2.730  -7.299   1.978  0.00  0.00    +0.247 C 
ATOM     15  O   UNL     1      -1.565  -7.351   2.320  0.00  0.00    -0.270 OA
ATOM     16  H   UNL     1      -0.417  -6.600  -2.578  0.00  0.00    +0.160 HD
ENDROOT
BRANCH  14  17
ATOM     17  C   UNL     1      -3.790  -7.777   2.890  0.00  0.00    +0.037 A 
ATOM     18  C   UNL     1      -3.626  -8.973   3.591  0.00  0.00    +0.014 A 
ATOM     19  C   UNL     1      -4.619  -9.413   4.441  0.00  0.00    +0.016 A 
ATOM     20  C   UNL     1      -5.777  -8.671   4.600  0.00  0.00    +0.018 A 
ATOM     21  C   UNL     1      -5.946  -7.483   3.908  0.00  0.00    +0.016 A 
ATOM     22  C   UNL     1      -4.958  -7.030   3.059  0.00  0.00    +0.014 A 
ATOM     23 BR   UNL     1      -7.133  -9.281   5.767  0.00  0.00    -0.050 Br
ENDBRANCH  14  17
BRANCH   1  27
ATOM     24  C   UNL     1      -2.345  -2.272  -1.136  0.00  0.00    +0.121 A 
ATOM     25  C   UNL     1      -3.408  -3.133  -1.369  0.00  0.00    +0.046 A 
ATOM     26  C   UNL     1      -3.291  -4.474  -1.058  0.00  0.00    +0.009 A 
ATOM     27  C   UNL     1      -2.116  -4.958  -0.513  0.00  0.00    -0.025 A 
ATOM     28  C   UNL     1      -1.056  -4.102  -0.278  0.00  0.00    +0.009 A 
ATOM     29  C   UNL     1      -1.166  -2.761  -0.594  0.00  0.00    +0.046 A 
BRANCH  24  30
ATOM     30  O   UNL     1      -2.458  -0.953  -1.442  0.00  0.00    -0.492 OA
BRANCH  30  32
ATOM     31  C   UNL     1      -3.640   0.984  -2.274  0.00  0.00    +0.048 C 
ATOM     32  C   UNL     1      -3.702  -0.520  -1.996  0.00  0.00    +0.225 C 
ENDBRANCH  30  32
ENDBRANCH  24  30
ENDBRANCH   1  27
TORSDOF 4
