REMARK  Name = ZINC20814921
REMARK  9 active torsions:
REMARK  status: ('A' for Active; 'I' for Inactive)
REMARK    1  A    between atoms: C_1  and  C_2
REMARK    2  A    between atoms: C_2  and  N_3
REMARK    3  A    between atoms: N_3  and  C_4
REMARK    4  A    between atoms: N_3  and  C_11
REMARK    5  A    between atoms: C_4  and  C_5
REMARK    6  A    between atoms: C_11  and  C_12
REMARK    7  A    between atoms: N_14  and  C_15
REMARK    8  A    between atoms: C_15  and  C_16
REMARK    9  A    between atoms: N_18  and  C_19
REMARK                            x       y       z     vdW  Elec       q    Type
REMARK                         _______ _______ _______ _____ _____    ______ ____
ROOT
ATOM      1  C   UNL     1      -0.879   3.300   1.495  0.00  0.00    +0.197 C 
ATOM      2  O   UNL     1      -0.450   4.108   0.698  0.00  0.00    -0.278 OA
ATOM      3  N   UNL     1      -0.729   1.981   1.263  0.00  0.00    -0.308 N 
ATOM      4  H   UNL     1      -1.118   1.248   1.986  0.00  0.00    +0.149 HD
ENDROOT
BRANCH   1   5
ATOM      5  C   UNL     1      -1.580   3.771   2.743  0.00  0.00    +0.019 C 
BRANCH   5   6
ATOM      6  N   UNL     1      -1.613   5.240   2.761  0.00  0.00    +0.388 N 
ATOM      7  H   UNL     1      -0.588   5.603   2.602  0.00  0.00    -0.081 HD
BRANCH   6   9
ATOM      8  C   UNL     1      -3.904   5.337   1.900  0.00  0.00    -0.017 C 
ATOM      9  C   UNL     1      -2.451   5.760   1.673  0.00  0.00    -0.081 C 
ENDBRANCH   6   9
BRANCH   6  10
ATOM     10  C   UNL     1      -2.072   5.740   4.064  0.00  0.00    -0.035 C 
BRANCH  10  11
ATOM     11  C   UNL     1      -1.749   7.207   4.180  0.00  0.00    -0.026 A 
ATOM     12  C   UNL     1      -2.536   8.278   3.913  0.00  0.00    +0.010 A 
ATOM     13  C   UNL     1      -2.023   9.549   4.094  0.00  0.00    +0.023 A 
ATOM     14  C   UNL     1      -0.748   9.686   4.535  0.00  0.00    +0.055 A 
ATOM     15  S   UNL     1      -0.234   7.986   4.715  0.00  0.00    -0.088 S 
ATOM     16 BR   UNL     1       0.229  11.268   4.878  0.00  0.00    -0.043 Br
ENDBRANCH  10  11
ENDBRANCH   6  10
ENDBRANCH   5   6
ENDBRANCH   1   5
BRANCH   3  17
ATOM     17  C   UNL     1      -0.049   1.522   0.050  0.00  0.00    +0.200 C 
BRANCH  17  18
ATOM     18  C   UNL     1      -0.014   0.016   0.031  0.00  0.00    +0.234 C 
ATOM     19  O   UNL     1      -0.509  -0.613   0.942  0.00  0.00    -0.274 OA
ATOM     20  N   UNL     1       0.567  -0.632  -0.997  0.00  0.00    -0.282 N 
ATOM     21  H   UNL     1       0.952  -0.065  -1.858  0.00  0.00    +0.155 HD
BRANCH  20  22
ATOM     22  C   UNL     1       0.682  -2.029  -0.971  0.00  0.00    +0.072 A 
ATOM     23  C   UNL     1      -0.313  -2.797  -0.383  0.00  0.00    +0.029 A 
ATOM     24  C   UNL     1      -0.202  -4.174  -0.360  0.00  0.00    +0.043 A 
ATOM     25  C   UNL     1       0.907  -4.789  -0.915  0.00  0.00    +0.161 A 
ATOM     26  C   UNL     1       1.907  -4.026  -1.499  0.00  0.00    +0.195 A 
ATOM     27  C   UNL     1       1.796  -2.646  -1.527  0.00  0.00    +0.182 A 
ATOM     28  F   UNL     1       2.769  -1.901  -2.096  0.00  0.00    -0.200 F 
ATOM     29  F   UNL     1       2.988  -4.629  -2.039  0.00  0.00    -0.199 F 
ATOM     30  F   UNL     1       1.016  -6.136  -0.887  0.00  0.00    -0.202 F 
ENDBRANCH  20  22
ENDBRANCH  17  18
ENDBRANCH   3  17
TORSDOF 8
