REMARK  Name = ZINC40720484
REMARK  12 active torsions:
REMARK  status: ('A' for Active; 'I' for Inactive)
REMARK    1  A    between atoms: C_1  and  C_2
REMARK    2  A    between atoms: C_2  and  N_3
REMARK    3  A    between atoms: C_7  and  C_9
REMARK    4  A    between atoms: C_9  and  N_10
REMARK    5  A    between atoms: N_10  and  C_11
REMARK    6  A    between atoms: C_11  and  C_12
REMARK    7  A    between atoms: C_14  and  O_29
REMARK    8  A    between atoms: C_15  and  O_19
REMARK    9  A    between atoms: O_19  and  C_20
REMARK   10  A    between atoms: C_20  and  C_21
REMARK   11  A    between atoms: O_29  and  C_30
REMARK   12  A    between atoms: C_30  and  C_31
REMARK                            x       y       z     vdW  Elec       q    Type
REMARK                         _______ _______ _______ _____ _____    ______ ____
ROOT
ATOM      1  C   UNL     1      -1.701  -1.403  -4.949  0.00  0.00    -0.060 A 
ATOM      2  C   UNL     1      -2.198  -0.171  -5.331  0.00  0.00    +0.051 A 
ATOM      3  C   UNL     1      -1.663   0.482  -6.430  0.00  0.00    +0.163 A 
ATOM      4  C   UNL     1      -0.626  -0.106  -7.148  0.00  0.00    +0.176 A 
ATOM      5  C   UNL     1      -0.132  -1.342  -6.760  0.00  0.00    +0.063 A 
ATOM      6  C   UNL     1      -0.668  -1.985  -5.658  0.00  0.00    +0.021 A 
ATOM      7 BR   UNL     1       1.278  -2.145  -7.731  0.00  0.00    -0.046 Br
ENDROOT
BRANCH   1   8
ATOM      8  C   UNL     1      -2.285  -2.111  -3.753  0.00  0.00    -0.047 C 
BRANCH   8   9
ATOM      9  N   UNL     1      -1.555  -1.710  -2.543  0.00  0.00    +0.381 N 
ATOM     10  H   UNL     1      -1.637  -0.712  -2.416  0.00  0.00    -0.086 HD
ATOM     11  H   UNL     1      -0.582  -1.958  -2.639  0.00  0.00    -0.086 HD
BRANCH   9  12
ATOM     12  C   UNL     1      -2.124  -2.399  -1.377  0.00  0.00    -0.098 C 
BRANCH  12  17
ATOM     13  N   UNL     1      -1.376  -0.512   0.012  0.00  0.00    +0.380 N 
ATOM     14  C   UNL     1      -2.028  -0.158   1.291  0.00  0.00    -0.079 C 
ATOM     15  C   UNL     1      -2.935  -1.369   1.623  0.00  0.00    -0.020 C 
ATOM     16  C   UNL     1      -2.064  -2.556   1.133  0.00  0.00    -0.019 C 
ATOM     17  C   UNL     1      -1.364  -1.981  -0.117  0.00  0.00    -0.086 C 
ATOM     18  H   UNL     1      -1.894  -0.109  -0.754  0.00  0.00    -0.082 HD
BRANCH  13  20
ATOM     19  C   UNL     1      -0.019   1.526   0.010  0.00  0.00    -0.017 C 
ATOM     20  C   UNL     1       0.002  -0.004   0.002  0.00  0.00    -0.082 C 
ENDBRANCH  13  20
ENDBRANCH  12  17
ENDBRANCH   9  12
ENDBRANCH   8   9
ENDBRANCH   1   8
BRANCH   4  21
ATOM     21  O   UNL     1      -0.098   0.530  -8.228  0.00  0.00    -0.483 OA
BRANCH  21  22
ATOM     22  C   UNL     1       1.002   1.410  -7.989  0.00  0.00    +0.264 C 
BRANCH  22  23
ATOM     23  C   UNL     1       1.451   2.019  -9.292  0.00  0.00    -0.009 A 
ATOM     24  C   UNL     1       2.415   1.387 -10.055  0.00  0.00    +0.008 A 
ATOM     25  C   UNL     1       2.827   1.945 -11.250  0.00  0.00    +0.022 A 
ATOM     26  C   UNL     1       2.275   3.137 -11.684  0.00  0.00    +0.059 A 
ATOM     27  C   UNL     1       1.310   3.770 -10.920  0.00  0.00    +0.060 A 
ATOM     28  C   UNL     1       0.894   3.208  -9.726  0.00  0.00    +0.028 A 
ATOM     29 CL   UNL     1       0.616   5.266 -11.462  0.00  0.00    -0.082 Cl
ATOM     30 CL   UNL     1       2.793   3.839 -13.185  0.00  0.00    -0.082 Cl
ENDBRANCH  22  23
ENDBRANCH  21  22
ENDBRANCH   4  21
BRANCH   3  31
ATOM     31  O   UNL     1      -2.151   1.694  -6.807  0.00  0.00    -0.489 OA
BRANCH  31  32
ATOM     32  C   UNL     1      -3.216   2.236  -6.025  0.00  0.00    +0.226 C 
ATOM     33  C   UNL     1      -3.630   3.594  -6.597  0.00  0.00    +0.048 C 
ENDBRANCH  31  32
ENDBRANCH   3  31
TORSDOF 10
