REMARK  Name = ZINC52132861
REMARK  7 active torsions:
REMARK  status: ('A' for Active; 'I' for Inactive)
REMARK    1  A    between atoms: C_1  and  O_2
REMARK    2  A    between atoms: O_2  and  C_3
REMARK    3  A    between atoms: C_6  and  C_9
REMARK    4  A    between atoms: C_9  and  C_10
REMARK    5  A    between atoms: N_15  and  C_16
REMARK    6  A    between atoms: C_16  and  C_17
REMARK    7  A    between atoms: C_23  and  C_25
REMARK                            x       y       z     vdW  Elec       q    Type
REMARK                         _______ _______ _______ _____ _____    ______ ____
ROOT
ATOM      1  C   UNL     1       1.577  -2.808   5.431  0.00  0.00    -0.064 C 
ATOM      2  C   UNL     1       2.256  -3.578   6.582  0.00  0.00    -0.017 C 
ATOM      3  C   UNL     1       2.631  -2.453   7.582  0.00  0.00    -0.020 C 
ATOM      4  C   UNL     1       1.436  -1.481   7.423  0.00  0.00    -0.078 C 
ATOM      5  N   UNL     1       1.100  -1.526   5.980  0.00  0.00    +0.387 N 
ATOM      6  H   UNL     1       1.552  -0.761   5.502  0.00  0.00    -0.081 HD
ENDROOT
BRANCH   1   7
ATOM      7  C   UNL     1       2.587  -2.550   4.310  0.00  0.00    +0.020 C 
BRANCH   7  11
ATOM      8  C   UNL     1       0.626  -0.618   1.042  0.00  0.00    +0.120 A 
ATOM      9  C   UNL     1       1.202   0.138   2.051  0.00  0.00    +0.046 A 
ATOM     10  C   UNL     1       1.835  -0.488   3.107  0.00  0.00    +0.007 A 
ATOM     11  C   UNL     1       1.895  -1.869   3.158  0.00  0.00    -0.049 A 
ATOM     12  C   UNL     1       1.322  -2.625   2.152  0.00  0.00    +0.007 A 
ATOM     13  C   UNL     1       0.682  -2.003   1.098  0.00  0.00    +0.046 A 
BRANCH   8  15
ATOM     14  C   UNL     1      -0.017   1.425   0.010  0.00  0.00    +0.277 C 
ATOM     15  O   UNL     1       0.002  -0.004   0.002  0.00  0.00    -0.495 OA
ENDBRANCH   8  15
ENDBRANCH   7  11
ENDBRANCH   1   7
BRANCH   5  16
ATOM     16  C   UNL     1      -0.355  -1.424   5.805  0.00  0.00    +0.019 C 
BRANCH  16  17
ATOM     17  C   UNL     1      -0.822  -0.063   6.255  0.00  0.00    +0.200 C 
ATOM     18  O   UNL     1      -0.021   0.742   6.680  0.00  0.00    -0.278 OA
ATOM     19  N   UNL     1      -2.129   0.258   6.186  0.00  0.00    -0.295 N 
ATOM     20  C   UNL     1      -3.205  -0.623   5.698  0.00  0.00    +0.108 C 
ATOM     21  C   UNL     1      -4.493  -0.086   6.373  0.00  0.00    +0.021 C 
ATOM     22  C   UNL     1      -4.239   1.444   6.354  0.00  0.00    +0.029 C 
ATOM     23  C   UNL     1      -2.717   1.544   6.589  0.00  0.00    +0.113 C 
BRANCH  23  24
ATOM     24  C   UNL     1      -2.144   2.656   5.750  0.00  0.00    +0.010 A 
ATOM     25  C   UNL     1      -1.772   3.904   6.126  0.00  0.00    +0.013 A 
ATOM     26  C   UNL     1      -1.264   4.768   5.174  0.00  0.00    +0.008 A 
ATOM     27  C   UNL     1      -1.152   4.341   3.893  0.00  0.00    +0.045 A 
ATOM     28  S   UNL     1      -1.770   2.670   4.005  0.00  0.00    -0.100 S 
ENDBRANCH  23  24
ENDBRANCH  16  17
ENDBRANCH   5  16
TORSDOF 6
