REMARK  Name = ZINC64981517
REMARK  8 active torsions:
REMARK  status: ('A' for Active; 'I' for Inactive)
REMARK    1  A    between atoms: C_1  and  C_2
REMARK    2  A    between atoms: C_2  and  N_3
REMARK    3  A    between atoms: N_16  and  N_17
REMARK    4  A    between atoms: C_18  and  C_19
REMARK    5  A    between atoms: C_21  and  O_27
REMARK    6  A    between atoms: C_22  and  O_26
REMARK    7  A    between atoms: O_27  and  C_28
REMARK    8  A    between atoms: C_28  and  C_29
REMARK                            x       y       z     vdW  Elec       q    Type
REMARK                         _______ _______ _______ _____ _____    ______ ____
ROOT
ATOM      1  N   UNL     1      -1.372  -0.511   0.012  0.00  0.00    -0.324 N 
ATOM      2  C   UNL     1      -2.105  -0.786   1.156  0.00  0.00    +0.053 A 
ATOM      3  C   UNL     1      -1.803  -0.679   2.509  0.00  0.00    +0.026 A 
ATOM      4  C   UNL     1      -2.742  -1.030   3.456  0.00  0.00    +0.002 A 
ATOM      5  C   UNL     1      -3.992  -1.490   3.073  0.00  0.00    +0.001 A 
ATOM      6  C   UNL     1      -4.310  -1.603   1.737  0.00  0.00    +0.012 A 
ATOM      7  C   UNL     1      -3.371  -1.252   0.769  0.00  0.00    +0.029 A 
ATOM      8  C   UNL     1      -3.383  -1.250  -0.703  0.00  0.00    +0.138 A 
ATOM      9  C   UNL     1      -2.118  -0.776  -1.109  0.00  0.00    +0.166 A 
ATOM     10  N   UNL     1      -1.872  -0.672  -2.412  0.00  0.00    -0.192 NA
ATOM     11  C   UNL     1      -2.816  -1.012  -3.280  0.00  0.00    +0.256 A 
ATOM     12  N   UNL     1      -4.001  -1.453  -2.873  0.00  0.00    -0.111 NA
ATOM     13  N   UNL     1      -4.281  -1.578  -1.621  0.00  0.00    -0.142 NA
ATOM     14  N   UNL     1      -2.561  -0.904  -4.636  0.00  0.00    -0.204 N 
ATOM     15  H   UNL     1      -1.699  -0.583  -4.944  0.00  0.00    +0.177 HD
ENDROOT
BRANCH   1  17
ATOM     16  C   UNL     1      -0.019   1.526   0.010  0.00  0.00    +0.027 C 
ATOM     17  C   UNL     1       0.002  -0.004   0.002  0.00  0.00    +0.120 C 
ENDBRANCH   1  17
BRANCH  14  18
ATOM     18  N   UNL     1      -3.548  -1.259  -5.565  0.00  0.00    -0.187 NA
ATOM     19  C   UNL     1      -3.309  -1.158  -6.837  0.00  0.00    +0.138 C 
BRANCH  19  20
ATOM     20  C   UNL     1      -4.348  -1.532  -7.814  0.00  0.00    -0.001 A 
ATOM     21  C   UNL     1      -4.090  -1.429  -9.184  0.00  0.00    +0.059 A 
ATOM     22  C   UNL     1      -5.067  -1.781 -10.096  0.00  0.00    +0.163 A 
ATOM     23  C   UNL     1      -6.306  -2.236  -9.650  0.00  0.00    +0.173 A 
ATOM     24  C   UNL     1      -6.562  -2.338  -8.290  0.00  0.00    +0.063 A 
ATOM     25  C   UNL     1      -5.589  -1.994  -7.373  0.00  0.00    +0.028 A 
ATOM     26 BR   UNL     1      -8.246  -2.957  -7.691  0.00  0.00    -0.046 Br
BRANCH  23  27
ATOM     27  O   UNL     1      -7.265  -2.582 -10.549  0.00  0.00    -0.503 OA
ATOM     28  H   UNL     1      -7.240  -3.511 -10.814  0.00  0.00    +0.292 HD
ENDBRANCH  23  27
BRANCH  22  29
ATOM     29  O   UNL     1      -4.819  -1.682 -11.430  0.00  0.00    -0.489 OA
BRANCH  29  30
ATOM     30  C   UNL     1      -3.528  -1.207 -11.816  0.00  0.00    +0.226 C 
ATOM     31  C   UNL     1      -3.436  -1.165 -13.343  0.00  0.00    +0.048 C 
ENDBRANCH  29  30
ENDBRANCH  22  29
ENDBRANCH  19  20
ENDBRANCH  14  18
TORSDOF 6
