REMARK  Name = ZINC02343362
REMARK  8 active torsions:
REMARK  status: ('A' for Active; 'I' for Inactive)
REMARK    1  A    between atoms: C_1  and  C_2
REMARK    2  A    between atoms: C_2  and  C_3
REMARK    3  A    between atoms: C_2  and  C_4
REMARK    4  A    between atoms: C_7  and  C_10
REMARK    5  A    between atoms: C_12  and  C_27
REMARK    6  A    between atoms: C_13  and  S_22
REMARK    7  A    between atoms: S_22  and  C_23
REMARK    8  A    between atoms: C_23  and  C_24
REMARK                            x       y       z     vdW  Elec       q    Type
REMARK                         _______ _______ _______ _____ _____    ______ ____
ROOT
ATOM      1  C   UNL     1      -5.419  -2.005   0.043  0.00  0.00    +0.097 C 
ATOM      2  C   UNL     1      -6.143  -1.493  -1.167  0.00  0.00    +0.069 C 
ATOM      3  C   UNL     1      -6.357  -2.292  -2.247  0.00  0.00    +0.080 C 
ATOM      4  N   UNL     1      -5.915  -3.594  -2.239  0.00  0.00    -0.311 N 
ATOM      5  C   UNL     1      -5.627  -4.225  -1.060  0.00  0.00    +0.016 C 
ATOM      6  C   UNL     1      -5.389  -3.512   0.061  0.00  0.00    +0.024 C 
ATOM      7  C   UNL     1      -5.108  -4.154   1.279  0.00  0.00    +0.162 C 
ATOM      8  O   UNL     1      -4.891  -3.483   2.270  0.00  0.00    -0.292 OA
ATOM      9  C   UNL     1      -5.069  -5.654   1.381  0.00  0.00    +0.080 C 
ATOM     10  C   UNL     1      -6.005  -6.250   0.325  0.00  0.00    +0.014 C 
ATOM     11  C   UNL     1      -5.577  -5.733  -1.047  0.00  0.00    +0.051 C 
ATOM     12  H   UNL     1      -5.808  -4.070  -3.078  0.00  0.00    +0.152 HD
ENDROOT
BRANCH   1  16
ATOM     13  C   UNL     1      -1.412  -0.526   0.013  0.00  0.00    -0.045 A 
ATOM     14  C   UNL     1      -2.259  -0.204   1.056  0.00  0.00    +0.004 A 
ATOM     15  C   UNL     1      -3.556  -0.683   1.066  0.00  0.00    +0.005 A 
ATOM     16  C   UNL     1      -4.006  -1.482   0.032  0.00  0.00    -0.035 A 
ATOM     17  C   UNL     1      -3.159  -1.803  -1.012  0.00  0.00    +0.005 A 
ATOM     18  C   UNL     1      -1.863  -1.321  -1.024  0.00  0.00    +0.004 A 
BRANCH  13  20
ATOM     19  C   UNL     1      -0.019   1.526   0.010  0.00  0.00    +0.012 C 
ATOM     20  C   UNL     1       0.002  -0.004   0.002  0.00  0.00    +0.013 C 
ATOM     21  C   UNL     1       0.742  -0.511   1.242  0.00  0.00    +0.012 C 
ENDBRANCH  13  20
ENDBRANCH   1  16
BRANCH   2  22
ATOM     22  C   UNL     1      -6.615  -0.141  -1.186  0.00  0.00    +0.098 C 
ATOM     23  N   UNL     1      -6.990   0.931  -1.202  0.00  0.00    -0.191 NA
ENDBRANCH   2  22
BRANCH   3  24
ATOM     24  S   UNL     1      -7.202  -1.657  -3.657  0.00  0.00    -0.100 S 
BRANCH  24  25
ATOM     25  C   UNL     1      -7.247  -3.058  -4.809  0.00  0.00    +0.171 C 
BRANCH  25  26
ATOM     26  C   UNL     1      -7.953  -2.645  -6.074  0.00  0.00    +0.221 C 
ATOM     27  O   UNL     1      -8.384  -1.517  -6.188  0.00  0.00    -0.275 OA
ATOM     28  N   UNL     1      -8.106  -3.530  -7.080  0.00  0.00    -0.329 N 
ATOM     29  H   UNL     1      -7.761  -4.432  -6.989  0.00  0.00    +0.145 HD
ATOM     30  H   UNL     1      -8.560  -3.264  -7.894  0.00  0.00    +0.145 HD
ENDBRANCH  25  26
ENDBRANCH  24  25
ENDBRANCH   3  24
TORSDOF 6
