REMARK  Name = ZINC63821786
REMARK  6 active torsions:
REMARK  status: ('A' for Active; 'I' for Inactive)
REMARK    1  A    between atoms: C_1  and  O_2
REMARK    2  A    between atoms: O_2  and  C_3
REMARK    3  A    between atoms: C_3  and  C_4
REMARK    4  A    between atoms: C_4  and  N_5
REMARK    5  A    between atoms: C_14  and  C_22
REMARK    6  A    between atoms: N_24  and  C_25
REMARK                            x       y       z     vdW  Elec       q    Type
REMARK                         _______ _______ _______ _____ _____    ______ ____
ROOT
ATOM      1  N   UNL     1      -0.251  -2.578   1.181  0.00  0.00    -0.288 N 
ATOM      2  C   UNL     1       1.102  -2.594   1.230  0.00  0.00    +0.247 C 
ATOM      3  O   UNL     1       1.753  -2.500   0.211  0.00  0.00    -0.270 OA
ATOM      4  C   UNL     1       1.770  -2.678   2.546  0.00  0.00    +0.041 A 
ATOM      5  C   UNL     1       3.148  -2.861   2.639  0.00  0.00    +0.013 A 
ATOM      6  C   UNL     1       3.743  -2.940   3.882  0.00  0.00    +0.001 A 
ATOM      7  C   UNL     1       2.974  -2.842   5.029  0.00  0.00    +0.000 A 
ATOM      8  C   UNL     1       1.605  -2.660   4.941  0.00  0.00    +0.005 A 
ATOM      9  C   UNL     1       1.000  -2.571   3.705  0.00  0.00    -0.021 A 
ATOM     10  C   UNL     1      -0.485  -2.346   3.591  0.00  0.00    +0.129 C 
ATOM     11  C   UNL     1      -1.013  -3.060   2.330  0.00  0.00    +0.053 C 
ATOM     12  C   UNL     1      -0.728  -4.555   2.530  0.00  0.00    +0.027 C 
ATOM     13  C   UNL     1      -1.366  -5.371   1.409  0.00  0.00    +0.002 C 
ATOM     14  C   UNL     1      -2.885  -5.199   1.499  0.00  0.00    +0.000 C 
ATOM     15  C   UNL     1      -3.234  -3.734   1.252  0.00  0.00    +0.002 C 
ATOM     16  C   UNL     1      -2.504  -2.806   2.210  0.00  0.00    +0.027 C 
ENDROOT
BRANCH  10  17
ATOM     17  C   UNL     1      -0.760  -0.871   3.498  0.00  0.00    +0.225 C 
ATOM     18  O   UNL     1      -1.467  -0.440   2.612  0.00  0.00    -0.275 OA
ATOM     19  N   UNL     1      -0.220  -0.027   4.400  0.00  0.00    -0.278 N 
ATOM     20  H   UNL     1       0.345  -0.371   5.109  0.00  0.00    +0.152 HD
BRANCH  19  21
ATOM     21  C   UNL     1      -0.488   1.411   4.310  0.00  0.00    +0.269 C 
ATOM     22  N   UNL     1       0.341   2.013   3.258  0.00  0.00    -0.348 N 
ATOM     23  C   UNL     1       1.101   2.906   3.823  0.00  0.00    +0.061 A 
ATOM     24  C   UNL     1       2.123   3.823   3.300  0.00  0.00    +0.027 A 
ATOM     25  C   UNL     1       2.762   4.657   4.144  0.00  0.00    +0.002 A 
ATOM     26  C   UNL     1       2.493   4.693   5.524  0.00  0.00    +0.002 A 
ATOM     27  C   UNL     1       1.575   3.896   6.106  0.00  0.00    +0.027 A 
ATOM     28  C   UNL     1       0.815   2.945   5.284  0.00  0.00    +0.061 A 
ATOM     29  N   UNL     1      -0.110   2.073   5.565  0.00  0.00    -0.348 N 
ATOM     30  H   UNL     1      -0.482   1.894   6.443  0.00  0.00    +0.163 HD
ATOM     31  H   UNL     1       0.326   1.786   2.315  0.00  0.00    +0.163 HD
ENDBRANCH  19  21
ENDBRANCH  10  17
BRANCH   1  32
ATOM     32  C   UNL     1      -0.888  -2.079  -0.035  0.00  0.00    +0.136 C 
BRANCH  32  33
ATOM     33  C   UNL     1      -0.748  -0.557  -0.096  0.00  0.00    +0.178 C 
BRANCH  33  35
ATOM     34  C   UNL     1       0.874   1.196  -0.306  0.00  0.00    +0.194 C 
ATOM     35  O   UNL     1       0.632  -0.211  -0.239  0.00  0.00    -0.381 OA
ENDBRANCH  33  35
ENDBRANCH  32  33
ENDBRANCH   1  32
TORSDOF 5
