REMARK  Name = ZINC63934037
REMARK  7 active torsions:
REMARK  status: ('A' for Active; 'I' for Inactive)
REMARK    1  A    between atoms: C_1  and  C_2
REMARK    2  A    between atoms: C_6  and  N_8
REMARK    3  A    between atoms: C_9  and  O_35
REMARK    4  A    between atoms: C_12  and  O_34
REMARK    5  A    between atoms: C_13  and  C_17
REMARK    6  A    between atoms: C_24  and  O_29
REMARK    7  A    between atoms: O_29  and  C_30
REMARK                            x       y       z     vdW  Elec       q    Type
REMARK                         _______ _______ _______ _____ _____    ______ ____
ROOT
ATOM      1  N   UNL     1       1.451  -6.518   2.219  0.00  0.00    -0.225 N 
ATOM      2  C   UNL     1       1.072  -5.816   1.001  0.00  0.00    +0.338 C 
ATOM      3  N   UNL     1       0.546  -4.489   1.274  0.00  0.00    -0.204 NA
ATOM      4  C   UNL     1       0.082  -4.120   2.405  0.00  0.00    +0.200 C 
ATOM      5  C   UNL     1       0.028  -5.026   3.599  0.00  0.00    +0.179 C 
ATOM      6  C   UNL     1       0.972  -6.181   3.424  0.00  0.00    +0.237 C 
ATOM      7  O   UNL     1       1.313  -6.821   4.396  0.00  0.00    -0.274 OA
ENDROOT
BRANCH   5   8
ATOM      8  C   UNL     1      -1.395  -5.567   3.760  0.00  0.00    +0.101 C 
ATOM      9  C   UNL     1      -1.487  -6.403   5.039  0.00  0.00    +0.124 C 
ATOM     10  C   UNL     1      -2.873  -7.037   5.034  0.00  0.00    -0.036 C 
ATOM     11  C   UNL     1      -3.438  -6.714   6.188  0.00  0.00    +0.003 A 
ATOM     12  C   UNL     1      -4.723  -7.094   6.796  0.00  0.00    +0.055 A 
ATOM     13  C   UNL     1      -5.004  -6.557   8.015  0.00  0.00    +0.121 A 
ATOM     14  C   UNL     1      -4.151  -5.681   8.702  0.00  0.00    +0.047 A 
ATOM     15  C   UNL     1      -2.943  -5.270   8.237  0.00  0.00    +0.029 A 
ATOM     16  C   UNL     1      -2.524  -5.788   6.928  0.00  0.00    +0.043 A 
ATOM     17  N   UNL     1      -1.413  -5.587   6.251  0.00  0.00    -0.376 N 
ATOM     18  C   UNL     1      -3.400  -7.778   3.829  0.00  0.00    +0.048 C 
ATOM     19  C   UNL     1      -3.127  -6.871   2.614  0.00  0.00    +0.085 C 
ATOM     20  N   UNL     1      -1.730  -6.430   2.617  0.00  0.00    -0.310 NA
ATOM     21  H   UNL     1      -1.489  -5.984   1.744  0.00  0.00    +0.122 HD
ATOM     22  H   UNL     1      -0.677  -5.005   6.499  0.00  0.00    +0.160 HD
BRANCH  13  23
ATOM     23  O   UNL     1      -6.184  -6.889   8.602  0.00  0.00    -0.495 OA
ATOM     24  C   UNL     1      -6.457  -6.313   9.881  0.00  0.00    +0.277 C 
ENDBRANCH  13  23
ENDBRANCH   5   8
BRANCH   1  30
ATOM     25  C   UNL     1       2.236 -11.342   1.692  0.00  0.00    +0.044 C 
ATOM     26  C   UNL     1       2.754  -9.938   1.871  0.00  0.00    -0.049 A 
ATOM     27  C   UNL     1       4.115  -9.708   1.944  0.00  0.00    +0.003 A 
ATOM     28  C   UNL     1       4.594  -8.421   2.108  0.00  0.00    +0.002 A 
ATOM     29  C   UNL     1       3.713  -7.361   2.200  0.00  0.00    +0.023 A 
ATOM     30  C   UNL     1       2.346  -7.589   2.126  0.00  0.00    +0.041 A 
ATOM     31  C   UNL     1       1.868  -8.882   1.956  0.00  0.00    +0.027 A 
ENDBRANCH   1  30
BRANCH   4  32
ATOM     32  O   UNL     1      -0.381  -2.858   2.531  0.00  0.00    -0.495 OA
ATOM     33  H   UNL     1      -0.314  -2.332   1.722  0.00  0.00    +0.293 HD
ENDBRANCH   4  32
BRANCH   2  34
ATOM     34  O   UNL     1       0.073  -6.577   0.319  0.00  0.00    -0.356 OA
ATOM     35  H   UNL     1      -0.233  -6.175  -0.506  0.00  0.00    +0.214 HD
ENDBRANCH   2  34
TORSDOF 5
