REMARK  Name = ZINC52906390
REMARK  7 active torsions:
REMARK  status: ('A' for Active; 'I' for Inactive)
REMARK    1  A    between atoms: C_1  and  C_2
REMARK    2  A    between atoms: C_2  and  C_4
REMARK    3  A    between atoms: C_2  and  N_10
REMARK    4  A    between atoms: C_4  and  N_5
REMARK    5  A    between atoms: N_10  and  C_11
REMARK    6  A    between atoms: C_16  and  C_17
REMARK    7  A    between atoms: C_17  and  N_19
REMARK                            x       y       z     vdW  Elec       q    Type
REMARK                         _______ _______ _______ _____ _____    ______ ____
ROOT
ATOM      1  C   UNL     1      -2.078  -0.634  -1.179  0.00  0.00    +0.038 A 
ATOM      2  C   UNL     1      -1.515  -0.200  -2.372  0.00  0.00    +0.024 A 
ATOM      3  C   UNL     1      -2.206  -0.347  -3.558  0.00  0.00    +0.003 A 
ATOM      4  C   UNL     1      -3.463  -0.928  -3.570  0.00  0.00    +0.021 A 
ATOM      5  C   UNL     1      -4.040  -1.367  -2.397  0.00  0.00    +0.052 A 
ATOM      6  C   UNL     1      -3.350  -1.230  -1.187  0.00  0.00    +0.042 A 
ATOM      7 CL   UNL     1      -5.616  -2.093  -2.420  0.00  0.00    -0.083 Cl
ENDROOT
BRANCH   1   8
ATOM      8  N   UNL     1      -1.384  -0.486   0.015  0.00  0.00    -0.339 N 
ATOM      9  H   UNL     1      -1.810  -0.716   0.856  0.00  0.00    +0.146 HD
BRANCH   8  11
ATOM     10  C   UNL     1      -0.026   1.548  -0.004  0.00  0.00    +0.029 C 
ATOM     11  C   UNL     1      -0.009   0.018   0.006  0.00  0.00    +0.087 C 
BRANCH  11  12
ATOM     12  C   UNL     1       0.724  -0.475   1.255  0.00  0.00    +0.144 C 
BRANCH  12  13
ATOM     13  N   UNL     1       0.846  -1.934   1.205  0.00  0.00    -0.337 N 
ATOM     14  C   UNL     1      -0.052  -2.841   1.698  0.00  0.00    +0.104 A 
ATOM     15  C   UNL     1       0.449  -4.065   1.441  0.00  0.00    +0.101 A 
ATOM     16  N   UNL     1       1.621  -3.909   0.808  0.00  0.00    -0.352 N 
ATOM     17  C   UNL     1       1.863  -2.635   0.658  0.00  0.00    +0.173 A 
ATOM     18  H   UNL     1       2.196  -4.629   0.505  0.00  0.00    +0.166 HD
ENDBRANCH  12  13
ENDBRANCH  11  12
ENDBRANCH   8  11
ENDBRANCH   1   8
BRANCH   6  19
ATOM     19  C   UNL     1      -3.955  -1.701   0.069  0.00  0.00    +0.080 C 
ATOM     20  S   UNL     1      -5.020  -0.683   0.941  0.00  0.00    -0.035 S 
BRANCH  19  21
ATOM     21  N   UNL     1      -3.671  -2.934   0.533  0.00  0.00    -0.352 N 
ATOM     22  H   UNL     1      -3.013  -3.483   0.079  0.00  0.00    +0.143 HD
ATOM     23  H   UNL     1      -4.125  -3.272   1.321  0.00  0.00    +0.143 HD
ENDBRANCH  19  21
ENDBRANCH   6  19
TORSDOF 6
