REMARK  Name = ZINC59147963
REMARK  8 active torsions:
REMARK  status: ('A' for Active; 'I' for Inactive)
REMARK    1  A    between atoms: C_1  and  C_2
REMARK    2  A    between atoms: C_2  and  C_4
REMARK    3  A    between atoms: C_2  and  S_17
REMARK    4  A    between atoms: N_6  and  N_7
REMARK    5  A    between atoms: C_8  and  C_9
REMARK    6  A    between atoms: C_14  and  O_15
REMARK    7  A    between atoms: S_17  and  C_18
REMARK    8  A    between atoms: C_18  and  C_19
REMARK                            x       y       z     vdW  Elec       q    Type
REMARK                         _______ _______ _______ _____ _____    ______ ____
ROOT
ATOM      1  C   UNL     1      -1.412  -0.526   0.013  0.00  0.00    +0.245 C 
ATOM      2  O   UNL     1      -1.939  -0.827   1.063  0.00  0.00    -0.273 OA
ATOM      3  N   UNL     1      -2.090  -0.657  -1.144  0.00  0.00    -0.206 N 
ATOM      4  H   UNL     1      -1.669  -0.416  -1.984  0.00  0.00    +0.177 HD
ENDROOT
BRANCH   1   6
ATOM      5  C   UNL     1      -0.019   1.526   0.010  0.00  0.00    +0.029 C 
ATOM      6  C   UNL     1       0.002  -0.004   0.002  0.00  0.00    +0.131 C 
BRANCH   6   7
ATOM      7  S   UNL     1       0.879  -0.605   1.472  0.00  0.00    -0.144 S 
BRANCH   7   8
ATOM      8  C   UNL     1       2.582  -0.025   1.234  0.00  0.00    +0.105 C 
BRANCH   8   9
ATOM      9  C   UNL     1       3.429  -0.463   2.401  0.00  0.00    -0.038 A 
ATOM     10  C   UNL     1       3.547   0.350   3.513  0.00  0.00    +0.004 A 
ATOM     11  C   UNL     1       4.324  -0.052   4.583  0.00  0.00    +0.000 A 
ATOM     12  C   UNL     1       4.983  -1.267   4.542  0.00  0.00    +0.000 A 
ATOM     13  C   UNL     1       4.864  -2.080   3.430  0.00  0.00    +0.000 A 
ATOM     14  C   UNL     1       4.083  -1.680   2.362  0.00  0.00    +0.004 A 
ENDBRANCH   8   9
ENDBRANCH   7   8
ENDBRANCH   6   7
ENDBRANCH   1   6
BRANCH   3  15
ATOM     15  N   UNL     1      -3.405  -1.142  -1.134  0.00  0.00    -0.188 NA
ATOM     16  C   UNL     1      -4.058  -1.269  -2.249  0.00  0.00    +0.142 C 
BRANCH  16  17
ATOM     17  C   UNL     1      -5.441  -1.779  -2.238  0.00  0.00    +0.037 A 
ATOM     18  C   UNL     1      -6.145  -1.922  -3.436  0.00  0.00    +0.028 A 
ATOM     19  C   UNL     1      -7.439  -2.401  -3.419  0.00  0.00    +0.019 A 
ATOM     20  C   UNL     1      -8.043  -2.740  -2.219  0.00  0.00    +0.019 A 
ATOM     21  C   UNL     1      -7.356  -2.602  -1.028  0.00  0.00    +0.047 A 
ATOM     22  C   UNL     1      -6.054  -2.128  -1.027  0.00  0.00    +0.126 A 
ATOM     23 BR   UNL     1      -8.393  -2.595  -5.040  0.00  0.00    -0.050 Br
BRANCH  22  24
ATOM     24  O   UNL     1      -5.376  -1.998   0.142  0.00  0.00    -0.506 OA
ATOM     25  H   UNL     1      -5.484  -1.135   0.565  0.00  0.00    +0.292 HD
ENDBRANCH  22  24
ENDBRANCH  16  17
ENDBRANCH   3  15
TORSDOF 7
