REMARK  Name = ZINC65265895
REMARK  2 active torsions:
REMARK  status: ('A' for Active; 'I' for Inactive)
REMARK    1  A    between atoms: C_14  and  C_16
REMARK    2  A    between atoms: N_23  and  C_24
REMARK                            x       y       z     vdW  Elec       q    Type
REMARK                         _______ _______ _______ _____ _____    ______ ____
ROOT
ATOM      1  C   UNL     1       0.120   1.452  -0.234  0.00  0.00    +0.000 A 
ATOM      2  C   UNL     1       1.317   2.147  -0.262  0.00  0.00    +0.002 A 
ATOM      3  C   UNL     1       2.507   1.448  -0.247  0.00  0.00    +0.023 A 
ATOM      4  C   UNL     1       2.501   0.060  -0.208  0.00  0.00    +0.037 A 
ATOM      5  C   UNL     1       1.305  -0.646  -0.193  0.00  0.00    -0.012 A 
ATOM      6  C   UNL     1       0.115   0.075  -0.199  0.00  0.00    +0.007 A 
ATOM      7  C   UNL     1       1.190  -2.149  -0.186  0.00  0.00    +0.119 C 
ATOM      8  N   UNL     1       2.310  -2.802   0.502  0.00  0.00    -0.299 NA
ATOM      9  C   UNL     1       3.430  -3.050  -0.434  0.00  0.00    +0.091 C 
ATOM     10  C   UNL     1       2.990  -4.023  -1.544  0.00  0.00    +0.050 C 
ATOM     11  C   UNL     1       3.222  -5.396  -0.861  0.00  0.00    +0.110 C 
ATOM     12  N   UNL     1       4.430  -5.212  -0.035  0.00  0.00    -0.295 N 
ATOM     13  C   UNL     1       4.576  -3.779   0.274  0.00  0.00    +0.137 C 
ATOM     14  C   UNL     1       5.263  -6.192   0.369  0.00  0.00    +0.247 C 
ATOM     15  O   UNL     1       4.999  -7.354   0.124  0.00  0.00    -0.270 OA
ATOM     16  C   UNL     1       3.857  -1.734  -0.991  0.00  0.00    +0.095 C 
ATOM     17  N   UNL     1       3.702  -0.641  -0.174  0.00  0.00    -0.303 N 
ATOM     18  N   UNL     1       4.348  -1.629  -2.183  0.00  0.00    -0.372 N 
ATOM     19  H   UNL     1       2.616  -2.256   1.294  0.00  0.00    +0.123 HD
ATOM     20  H   UNL     1       4.446  -2.417  -2.739  0.00  0.00    +0.161 HD
ATOM     21  H   UNL     1       4.419  -0.361   0.416  0.00  0.00    +0.153 HD
ENDROOT
BRANCH  14  22
ATOM     22  C   UNL     1       6.491  -5.856   1.107  0.00  0.00    +0.044 A 
ATOM     23  C   UNL     1       7.479  -6.858   1.425  0.00  0.00    +0.020 A 
ATOM     24  C   UNL     1       8.559  -6.422   2.104  0.00  0.00    +0.046 A 
ATOM     25  S   UNL     1       8.233  -4.684   2.305  0.00  0.00    -0.104 S 
ATOM     26  C   UNL     1       6.753  -4.570   1.523  0.00  0.00    +0.058 A 
ENDBRANCH  14  22
BRANCH  18  27
ATOM     27  C   UNL     1       4.755  -0.317  -2.693  0.00  0.00    +0.080 C 
ATOM     28  C   UNL     1       3.555   0.386  -3.360  0.00  0.00    +0.024 C 
ATOM     29  C   UNL     1       4.174   1.124  -4.574  0.00  0.00    +0.002 C 
ATOM     30  C   UNL     1       5.242   0.121  -5.075  0.00  0.00    +0.002 C 
ATOM     31  C   UNL     1       5.828  -0.486  -3.784  0.00  0.00    +0.024 C 
ENDBRANCH  18  27
TORSDOF 2
