REMARK  Name = ZINC39855864
REMARK  9 active torsions:
REMARK  status: ('A' for Active; 'I' for Inactive)
REMARK    1  A    between atoms: C_1  and  C_2
REMARK    2  A    between atoms: C_6  and  C_7
REMARK    3  A    between atoms: N_9  and  N_10
REMARK    4  A    between atoms: C_11  and  C_13
REMARK    5  A    between atoms: C_16  and  N_19
REMARK    6  A    between atoms: C_23  and  C_34
REMARK    7  A    between atoms: C_23  and  C_35
REMARK    8  A    between atoms: N_26  and  N_27
REMARK    9  A    between atoms: N_27  and  C_28
REMARK                            x       y       z     vdW  Elec       q    Type
REMARK                         _______ _______ _______ _____ _____    ______ ____
ROOT
ATOM      1  C   UNL     1      -0.018   1.503   0.010  0.00  0.00    +0.048 C 
ATOM      2  C   UNL     1       0.002  -0.004   0.002  0.00  0.00    +0.009 A 
ATOM      3  C   UNL     1       0.008  -0.838  -1.122  0.00  0.00    +0.042 A 
ATOM      4  C   UNL     1       0.026  -2.137  -0.673  0.00  0.00    +0.116 A 
ATOM      5  O   UNL     1       0.034  -2.112   0.658  0.00  0.00    -0.454 OA
ATOM      6  C   UNL     1       0.024  -0.830   1.091  0.00  0.00    +0.194 A 
ATOM      7  C   UNL     1       0.033  -3.326  -1.600  0.00  0.00    +0.081 C 
ATOM      8  C   UNL     1      -0.492  -2.902  -2.975  0.00  0.00    -0.023 C 
ATOM      9  C   UNL     1       0.279  -1.684  -3.495  0.00  0.00    +0.064 C 
ATOM     10  C   UNL     1       0.001  -0.511  -2.566  0.00  0.00    +0.070 C 
ATOM     11  N   UNL     1      -0.227   0.687  -3.008  0.00  0.00    -0.186 NA
ATOM     12  C   UNL     1      -1.976  -2.548  -2.861  0.00  0.00    +0.011 C 
ATOM     13  C   UNL     1      -0.325  -4.062  -3.958  0.00  0.00    +0.011 C 
ENDROOT
BRANCH   6  14
ATOM     14  C   UNL     1       0.032  -0.400   2.494  0.00  0.00    +0.296 C 
ATOM     15  O   UNL     1       0.018   0.786   2.766  0.00  0.00    -0.265 OA
ATOM     16  N   UNL     1       0.054  -1.317   3.480  0.00  0.00    -0.228 N 
ATOM     17  H   UNL     1       0.065  -2.263   3.263  0.00  0.00    +0.173 HD
BRANCH  16  18
ATOM     18  N   UNL     1       0.061  -0.906   4.820  0.00  0.00    -0.230 N 
ATOM     19  C   UNL     1       0.084  -1.824   5.806  0.00  0.00    +0.260 C 
ATOM     20  O   UNL     1       0.097  -3.008   5.534  0.00  0.00    -0.269 OA
ATOM     21  H   UNL     1       0.050   0.039   5.037  0.00  0.00    +0.173 HD
BRANCH  19  22
ATOM     22  C   UNL     1       0.091  -1.390   7.220  0.00  0.00    +0.038 A 
ATOM     23  C   UNL     1       0.069  -0.030   7.535  0.00  0.00    +0.015 A 
ATOM     24  C   UNL     1       0.076   0.368   8.856  0.00  0.00    +0.033 A 
ATOM     25  C   UNL     1       0.105  -0.577   9.867  0.00  0.00    +0.126 A 
ATOM     26  C   UNL     1       0.127  -1.926   9.560  0.00  0.00    +0.033 A 
ATOM     27  C   UNL     1       0.114  -2.338   8.244  0.00  0.00    +0.015 A 
BRANCH  25  28
ATOM     28  N   UNL     1       0.113  -0.142  11.282  0.00  0.00    +0.056 N 
ATOM     29  O   UNL     1       0.094   1.036  11.552  0.00  0.00    -0.126 OA
ATOM     30  O   UNL     1       0.138  -0.965  12.167  0.00  0.00    -0.126 OA
ENDBRANCH  25  28
ENDBRANCH  19  22
ENDBRANCH  16  18
ENDBRANCH   6  14
BRANCH  11  31
ATOM     31  N   UNL     1      -0.222   0.939  -4.386  0.00  0.00    -0.238 N 
ATOM     32  H   UNL     1      -0.048   0.217  -5.010  0.00  0.00    +0.174 HD
BRANCH  31  33
ATOM     33  C   UNL     1      -0.467   2.228  -4.861  0.00  0.00    +0.048 A 
ATOM     34  C   UNL     1      -0.710   3.265  -3.967  0.00  0.00    +0.025 A 
ATOM     35  C   UNL     1      -0.952   4.539  -4.441  0.00  0.00    +0.002 A 
ATOM     36  C   UNL     1      -0.953   4.784  -5.802  0.00  0.00    +0.000 A 
ATOM     37  C   UNL     1      -0.711   3.755  -6.694  0.00  0.00    +0.002 A 
ATOM     38  C   UNL     1      -0.462   2.479  -6.228  0.00  0.00    +0.025 A 
ENDBRANCH  31  33
ENDBRANCH  11  31
TORSDOF 6
