REMARK  Name = ZINC26353896
REMARK  4 active torsions:
REMARK  status: ('A' for Active; 'I' for Inactive)
REMARK    1  A    between atoms: C_3  and  N_22
REMARK    2  A    between atoms: C_6  and  N_7
REMARK    3  A    between atoms: C_8  and  C_10
REMARK    4  A    between atoms: C_11  and  C_12
REMARK                            x       y       z     vdW  Elec       q    Type
REMARK                         _______ _______ _______ _____ _____    ______ ____
ROOT
ATOM      1  N   UNL     1      -7.296  -0.168   0.059  0.00  0.00    -0.282 N 
ATOM      2  C   UNL     1      -6.118  -0.823   0.041  0.00  0.00    +0.241 C 
ATOM      3  O   UNL     1      -6.099  -2.040   0.017  0.00  0.00    -0.270 OA
ATOM      4  H   UNL     1      -7.315   0.928   0.158  0.00  0.00    +0.155 HD
ENDROOT
BRANCH   1  10
ATOM      5  C   UNL     1      -9.575  -0.329  -0.725  0.00  0.00    +0.025 A 
ATOM      6  C   UNL     1     -10.756  -1.035  -0.835  0.00  0.00    +0.025 A 
ATOM      7  C   UNL     1     -10.869  -2.293  -0.257  0.00  0.00    +0.035 A 
ATOM      8  C   UNL     1      -9.792  -2.843   0.426  0.00  0.00    +0.025 A 
ATOM      9  C   UNL     1      -8.609  -2.140   0.530  0.00  0.00    +0.025 A 
ATOM     10  C   UNL     1      -8.496  -0.881  -0.047  0.00  0.00    +0.034 A 
BRANCH   7  11
ATOM     11  N   UNL     1     -12.069  -3.007  -0.363  0.00  0.00    -0.270 N 
ATOM     12  C   UNL     1     -12.812  -2.914  -1.484  0.00  0.00    +0.301 C 
ATOM     13  O   UNL     1     -12.485  -2.146  -2.368  0.00  0.00    -0.253 OA
ATOM     14  N   UNL     1     -13.918  -3.671  -1.625  0.00  0.00    -0.313 N 
ATOM     15  H   UNL     1     -12.406  -3.644   0.468  0.00  0.00    +0.156 HD
ATOM     16  H   UNL     1     -14.524  -3.595  -2.539  0.00  0.00    +0.146 HD
ATOM     17  H   UNL     1     -14.214  -4.366  -0.825  0.00  0.00    +0.146 HD
ENDBRANCH   7  11
ENDBRANCH   1  10
BRANCH   2  18
ATOM     18  C   UNL     1      -4.864  -0.072   0.050  0.00  0.00    +0.068 C 
ATOM     19  C   UNL     1      -3.684  -0.728   0.032  0.00  0.00    +0.013 C 
BRANCH  19  20
ATOM     20  C   UNL     1      -2.423   0.027   0.041  0.00  0.00    -0.021 A 
ATOM     21  C   UNL     1      -2.442   1.426   0.070  0.00  0.00    +0.012 A 
ATOM     22  C   UNL     1      -1.258   2.130   0.073  0.00  0.00    +0.050 A 
ATOM     23  C   UNL     1      -0.042   1.456   0.057  0.00  0.00    +0.162 A 
ATOM     24  C   UNL     1      -0.015   0.064   0.032  0.00  0.00    +0.163 A 
ATOM     25  C   UNL     1      -1.199  -0.650   0.023  0.00  0.00    +0.057 A 
ATOM     26  O   UNL     1       1.168  -0.610   0.016  0.00  0.00    -0.485 OA
ATOM     27  C   UNL     1       2.330   0.141  -0.352  0.00  0.00    +0.270 C 
ATOM     28  C   UNL     1       2.308   1.469   0.418  0.00  0.00    +0.270 C 
ATOM     29  O   UNL     1       1.114   2.173   0.061  0.00  0.00    -0.485 OA
ENDBRANCH  19  20
ENDBRANCH   2  18
TORSDOF 4
