REMARK  Name = ZINC00860657
REMARK  9 active torsions:
REMARK  status: ('A' for Active; 'I' for Inactive)
REMARK    1  A    between atoms: N_13  and  C_14
REMARK    2  A    between atoms: C_14  and  C_15
REMARK    3  A    between atoms: C_15  and  C_17
REMARK    4  A    between atoms: C_15  and  O_36
REMARK    5  A    between atoms: C_17  and  O_18
REMARK    6  A    between atoms: O_18  and  C_19
REMARK    7  A    between atoms: C_22  and  C_25
REMARK    8  A    between atoms: N_26  and  N_27
REMARK    9  A    between atoms: C_28  and  C_30
REMARK                            x       y       z     vdW  Elec       q    Type
REMARK                         _______ _______ _______ _____ _____    ______ ____
ROOT
ATOM      1  O   UNL     1     -10.832   6.176   0.130  0.00  0.00    -0.489 OA
ENDROOT
BRANCH   1   2
ATOM      2  C   UNL     1      -9.664   5.483   0.116  0.00  0.00    +0.121 A 
ATOM      3  C   UNL     1      -9.684   4.094   0.110  0.00  0.00    +0.046 A 
ATOM      4  C   UNL     1      -8.501   3.386   0.096  0.00  0.00    +0.013 A 
ATOM      5  C   UNL     1      -7.281   4.068   0.088  0.00  0.00    -0.005 A 
ATOM      6  C   UNL     1      -7.267   5.465   0.100  0.00  0.00    +0.013 A 
ATOM      7  C   UNL     1      -8.454   6.165   0.108  0.00  0.00    +0.046 A 
BRANCH   5   8
ATOM      8  C   UNL     1      -6.014   3.315   0.073  0.00  0.00    +0.138 C 
ATOM      9  N   UNL     1      -4.882   3.951   0.066  0.00  0.00    -0.187 NA
BRANCH   9  10
ATOM     10  N   UNL     1      -3.677   3.236   0.052  0.00  0.00    -0.203 N 
ATOM     11  C   UNL     1      -2.502   3.895   0.044  0.00  0.00    +0.263 C 
ATOM     12  O   UNL     1      -2.487   5.111   0.049  0.00  0.00    -0.268 OA
ATOM     13  H   UNL     1      -3.689   2.265   0.048  0.00  0.00    +0.178 HD
BRANCH  11  14
ATOM     14  C   UNL     1      -1.229   3.139   0.029  0.00  0.00    +0.041 A 
ATOM     15  C   UNL     1      -1.223   1.741   0.017  0.00  0.00    +0.033 A 
ATOM     16  C   UNL     1      -0.013   1.076   0.008  0.00  0.00    +0.111 A 
ATOM     17  N   UNL     1       1.125   1.742   0.001  0.00  0.00    -0.263 NA
ATOM     18  C   UNL     1       1.165   3.059   0.007  0.00  0.00    +0.111 A 
ATOM     19  C   UNL     1       0.002   3.804   0.021  0.00  0.00    +0.033 A 
ENDBRANCH  11  14
ENDBRANCH   9  10
ENDBRANCH   5   8
ENDBRANCH   1   2
BRANCH   1  20
ATOM     20  C   UNL     1     -10.740   7.602   0.135  0.00  0.00    +0.262 C 
BRANCH  20  21
ATOM     21  C   UNL     1     -12.146   8.204   0.151  0.00  0.00    +0.171 C 
BRANCH  21  22
ATOM     22  O   UNL     1     -12.820   7.873  -1.065  0.00  0.00    -0.387 OA
ATOM     23  H   UNL     1     -12.378   8.201  -1.861  0.00  0.00    +0.210 HD
ENDBRANCH  21  22
BRANCH  21  24
ATOM     24  C   UNL     1     -12.049   9.725   0.282  0.00  0.00    +0.157 C 
BRANCH  24  37
ATOM     25  C   UNL     1     -16.165  11.668  -2.337  0.00  0.00    +0.001 A 
ATOM     26  C   UNL     1     -14.969  11.192  -2.853  0.00  0.00    +0.002 A 
ATOM     27  C   UNL     1     -13.985  10.713  -2.014  0.00  0.00    +0.026 A 
ATOM     28  C   UNL     1     -14.187  10.704  -0.637  0.00  0.00    +0.050 A 
ATOM     29  C   UNL     1     -15.398  11.184  -0.118  0.00  0.00    +0.008 A 
ATOM     30  C   UNL     1     -16.386  11.661  -0.977  0.00  0.00    +0.010 A 
ATOM     31  C   UNL     1     -15.307  11.051   1.347  0.00  0.00    +0.008 A 
ATOM     32  C   UNL     1     -16.175  11.356   2.393  0.00  0.00    +0.010 A 
ATOM     33  C   UNL     1     -15.794  11.109   3.694  0.00  0.00    +0.001 A 
ATOM     34  C   UNL     1     -14.550  10.560   3.964  0.00  0.00    +0.002 A 
ATOM     35  C   UNL     1     -13.681  10.253   2.939  0.00  0.00    +0.026 A 
ATOM     36  C   UNL     1     -14.048  10.495   1.619  0.00  0.00    +0.050 A 
ATOM     37  N   UNL     1     -13.393  10.291   0.418  0.00  0.00    -0.337 N 
ENDBRANCH  24  37
ENDBRANCH  21  24
ENDBRANCH  20  21
ENDBRANCH   1  20
TORSDOF 9
