REMARK  Name = ZINC39609066
REMARK  7 active torsions:
REMARK  status: ('A' for Active; 'I' for Inactive)
REMARK    1  A    between atoms: C_1  and  N_2
REMARK    2  A    between atoms: C_6  and  C_7
REMARK    3  A    between atoms: C_11  and  C_20
REMARK    4  A    between atoms: N_22  and  C_23
REMARK    5  A    between atoms: C_28  and  O_30
REMARK    6  A    between atoms: O_30  and  C_31
REMARK    7  A    between atoms: C_31  and  C_32
REMARK                            x       y       z     vdW  Elec       q    Type
REMARK                         _______ _______ _______ _____ _____    ______ ____
ROOT
ATOM      1  C   UNL     1      -0.178  -0.369   2.543  0.00  0.00    +0.263 C 
ATOM      2  O   UNL     1      -0.133  -1.180   3.450  0.00  0.00    -0.268 OA
ATOM      3  N   UNL     1      -0.391   0.934   2.814  0.00  0.00    -0.295 N 
ATOM      4  C   UNL     1      -0.620   2.036   1.850  0.00  0.00    +0.121 C 
ATOM      5  C   UNL     1      -1.706   2.914   2.512  0.00  0.00    +0.100 C 
ATOM      6  C   UNL     1      -1.588   2.617   4.016  0.00  0.00    -0.004 C 
ATOM      7  C   UNL     1      -0.456   1.587   4.143  0.00  0.00    +0.115 C 
ATOM      8  C   UNL     1      -2.893   2.025   4.542  0.00  0.00    -0.010 C 
ATOM      9  C   UNL     1      -2.770   1.791   6.051  0.00  0.00    -0.082 C 
ATOM     10  N   UNL     1      -2.480   3.064   6.723  0.00  0.00    +0.379 N 
ATOM     11  C   UNL     1      -1.179   3.579   6.279  0.00  0.00    -0.082 C 
ATOM     12  C   UNL     1      -1.234   3.889   4.781  0.00  0.00    -0.010 C 
ATOM     13  H   UNL     1      -3.200   3.733   6.497  0.00  0.00    -0.086 HD
ATOM     14  H   UNL     1      -2.460   2.918   7.721  0.00  0.00    -0.086 HD
ENDROOT
BRANCH   1  20
ATOM     15  C   UNL     1      -0.018  -3.305   1.567  0.00  0.00    +0.149 C 
ATOM     16  N   UNL     1       0.070  -2.114   0.719  0.00  0.00    -0.346 N 
ATOM     17  C   UNL     1       0.230  -2.112  -0.627  0.00  0.00    +0.086 A 
ATOM     18  C   UNL     1       0.267  -0.830  -1.062  0.00  0.00    +0.020 A 
ATOM     19  C   UNL     1       0.126   0.005   0.051  0.00  0.00    +0.032 A 
ATOM     20  C   UNL     1      -0.002  -0.810   1.155  0.00  0.00    +0.104 A 
ENDBRANCH   1  20
BRANCH   5  21
ATOM     21  C   UNL     1      -1.439   4.372   2.241  0.00  0.00    +0.218 C 
ATOM     22  O   UNL     1      -0.298   4.776   2.164  0.00  0.00    -0.275 OA
ATOM     23  N   UNL     1      -2.469   5.227   2.083  0.00  0.00    -0.310 N 
ATOM     24  H   UNL     1      -3.381   4.904   2.144  0.00  0.00    +0.149 HD
BRANCH  23  25
ATOM     25  C   UNL     1      -2.210   6.645   1.819  0.00  0.00    +0.102 C 
ATOM     26  C   UNL     1      -2.042   7.406   3.146  0.00  0.00    +0.025 C 
ATOM     27  C   UNL     1      -3.154   8.475   3.184  0.00  0.00    +0.004 C 
ATOM     28  C   UNL     1      -3.513   8.704   1.694  0.00  0.00    +0.033 C 
ATOM     29  C   UNL     1      -3.417   7.277   1.096  0.00  0.00    +0.139 C 
BRANCH  29  30
ATOM     30  O   UNL     1      -3.180   7.339  -0.312  0.00  0.00    -0.370 OA
BRANCH  30  31
ATOM     31  C   UNL     1      -4.366   7.250  -1.105  0.00  0.00    +0.195 C 
BRANCH  31  32
ATOM     32  C   UNL     1      -4.000   7.325  -2.565  0.00  0.00    -0.022 A 
ATOM     33  C   UNL     1      -3.939   8.552  -3.200  0.00  0.00    +0.006 A 
ATOM     34  C   UNL     1      -3.604   8.622  -4.539  0.00  0.00    +0.000 A 
ATOM     35  C   UNL     1      -3.329   7.465  -5.243  0.00  0.00    +0.000 A 
ATOM     36  C   UNL     1      -3.389   6.238  -4.609  0.00  0.00    +0.000 A 
ATOM     37  C   UNL     1      -3.720   6.169  -3.268  0.00  0.00    +0.006 A 
ENDBRANCH  31  32
ENDBRANCH  30  31
ENDBRANCH  29  30
ENDBRANCH  23  25
ENDBRANCH   5  21
TORSDOF 6
