REMARK  Name = ZINC22473291
REMARK  10 active torsions:
REMARK  status: ('A' for Active; 'I' for Inactive)
REMARK    1  A    between atoms: C_4  and  C_7
REMARK    2  A    between atoms: C_7  and  N_8
REMARK    3  A    between atoms: N_8  and  C_9
REMARK    4  A    between atoms: C_9  and  C_10
REMARK    5  A    between atoms: C_10  and  C_11
REMARK    6  A    between atoms: C_11  and  N_12
REMARK    7  A    between atoms: C_15  and  O_16
REMARK    8  A    between atoms: C_24  and  C_26
REMARK    9  A    between atoms: C_26  and  S_27
REMARK   10  A    between atoms: S_27  and  C_28
REMARK                            x       y       z     vdW  Elec       q    Type
REMARK                         _______ _______ _______ _____ _____    ______ ____
ROOT
ATOM      1  N   UNL     1      -5.944   2.598   0.050  0.00  0.00    -0.296 N 
ATOM      2  C   UNL     1      -6.630   2.950  -1.055  0.00  0.00    +0.226 C 
ATOM      3  O   UNL     1      -6.160   2.737  -2.153  0.00  0.00    -0.275 OA
ENDROOT
BRANCH   1   4
ATOM      4  C   UNL     1      -6.458   2.954   1.375  0.00  0.00    +0.142 C 
BRANCH   4   8
ATOM      5  C   UNL     1      -8.644  -0.343   2.987  0.00  0.00    +0.000 A 
ATOM      6  C   UNL     1      -7.269  -0.295   3.118  0.00  0.00    +0.000 A 
ATOM      7  C   UNL     1      -6.561   0.771   2.596  0.00  0.00    +0.005 A 
ATOM      8  C   UNL     1      -7.229   1.791   1.944  0.00  0.00    -0.030 A 
ATOM      9  C   UNL     1      -8.605   1.746   1.818  0.00  0.00    +0.005 A 
ATOM     10  C   UNL     1      -9.312   0.677   2.336  0.00  0.00    +0.000 A 
ENDBRANCH   4   8
ENDBRANCH   1   4
BRANCH   1  11
ATOM     11  C   UNL     1      -4.684   1.860  -0.072  0.00  0.00    +0.110 C 
BRANCH  11  12
ATOM     12  C   UNL     1      -3.521   2.849  -0.168  0.00  0.00    +0.040 C 
BRANCH  12  13
ATOM     13  C   UNL     1      -2.206   2.078  -0.296  0.00  0.00    +0.114 C 
BRANCH  13  14
ATOM     14  N   UNL     1      -1.092   3.025  -0.388  0.00  0.00    -0.384 N 
ATOM     15  C   UNL     1       0.199   2.560  -0.511  0.00  0.00    +0.053 A 
ATOM     16  C   UNL     1       0.465   1.216  -0.549  0.00  0.00    +0.113 A 
ATOM     17  C   UNL     1       1.788   0.774  -0.681  0.00  0.00    +0.286 A 
ATOM     18  O   UNL     1       2.817   1.631  -0.771  0.00  0.00    -0.425 OA
ATOM     19  C   UNL     1       2.631   2.969  -0.740  0.00  0.00    +0.141 A 
ATOM     20  C   UNL     1       1.335   3.492  -0.611  0.00  0.00    +0.041 A 
ATOM     21  C   UNL     1       1.139   4.873  -0.580  0.00  0.00    +0.013 A 
ATOM     22  C   UNL     1       2.223   5.718  -0.677  0.00  0.00    +0.001 A 
ATOM     23  C   UNL     1       3.503   5.200  -0.805  0.00  0.00    +0.004 A 
ATOM     24  C   UNL     1       3.711   3.837  -0.836  0.00  0.00    +0.047 A 
ATOM     25  H   UNL     1      -1.286   4.107  -0.359  0.00  0.00    +0.160 HD
BRANCH  17  26
ATOM     26  O   UNL     1       2.011  -0.424  -0.713  0.00  0.00    -0.480 OA
ATOM     27  H   UNL     1       3.044  -0.789  -0.816  0.00  0.00    +0.295 HD
ENDBRANCH  17  26
ENDBRANCH  13  14
ENDBRANCH  12  13
ENDBRANCH  11  12
ENDBRANCH   1  11
BRANCH   2  28
ATOM     28  C   UNL     1      -7.979   3.607  -0.928  0.00  0.00    +0.170 C 
BRANCH  28  29
ATOM     29  S   UNL     1      -8.696   3.841  -2.578  0.00  0.00    -0.116 S 
BRANCH  29  30
ATOM     30  C   UNL     1     -10.250   4.610  -2.262  0.00  0.00    +0.008 A 
ATOM     31  C   UNL     1     -10.641   4.879  -0.956  0.00  0.00    +0.016 A 
ATOM     32  C   UNL     1     -11.857   5.486  -0.712  0.00  0.00    +0.021 A 
ATOM     33  C   UNL     1     -12.691   5.816  -1.766  0.00  0.00    +0.041 A 
ATOM     34  C   UNL     1     -12.307   5.544  -3.068  0.00  0.00    +0.021 A 
ATOM     35  C   UNL     1     -11.090   4.942  -3.318  0.00  0.00    +0.016 A 
ATOM     36 CL   UNL     1     -14.222   6.574  -1.455  0.00  0.00    -0.084 Cl
ENDBRANCH  29  30
ENDBRANCH  28  29
ENDBRANCH   2  28
TORSDOF 10
