REMARK  Name = ZINC03887447
REMARK  6 active torsions:
REMARK  status: ('A' for Active; 'I' for Inactive)
REMARK    1  A    between atoms: C_4  and  N_7
REMARK    2  A    between atoms: N_7  and  N_8
REMARK    3  A    between atoms: C_9  and  C_10
REMARK    4  A    between atoms: C_9  and  C_17
REMARK    5  A    between atoms: C_15  and  O_16
REMARK    6  A    between atoms: N_20  and  C_22
REMARK                            x       y       z     vdW  Elec       q    Type
REMARK                         _______ _______ _______ _____ _____    ______ ____
ROOT
ATOM      1  N   UNL     1       3.699  -2.107   0.308  0.00  0.00    -0.181 NA
ATOM      2  C   UNL     1       4.775  -2.684  -0.158  0.00  0.00    +0.102 C 
ENDROOT
BRANCH   2   3
ATOM      3  C   UNL     1       4.713  -4.077  -0.652  0.00  0.00    +0.044 A 
ATOM      4  C   UNL     1       5.881  -4.737  -1.035  0.00  0.00    +0.014 A 
ATOM      5  C   UNL     1       5.817  -6.036  -1.495  0.00  0.00    +0.001 A 
ATOM      6  C   UNL     1       4.598  -6.687  -1.579  0.00  0.00    +0.004 A 
ATOM      7  C   UNL     1       3.435  -6.043  -1.202  0.00  0.00    +0.046 A 
ATOM      8  C   UNL     1       3.483  -4.740  -0.733  0.00  0.00    +0.126 A 
BRANCH   8   9
ATOM      9  O   UNL     1       2.341  -4.108  -0.357  0.00  0.00    -0.506 OA
ATOM     10  H   UNL     1       1.904  -3.627  -1.074  0.00  0.00    +0.292 HD
ENDBRANCH   8   9
ENDBRANCH   2   3
BRANCH   2  11
ATOM     11  C   UNL     1       6.058  -1.942  -0.190  0.00  0.00    +0.040 A 
ATOM     12  C   UNL     1       6.524  -1.040   0.789  0.00  0.00    +0.144 A 
ATOM     13  N   UNL     1       7.691  -0.593   0.406  0.00  0.00    -0.174 NA
ATOM     14  N   UNL     1       8.015  -1.184  -0.820  0.00  0.00    -0.239 N 
ATOM     15  C   UNL     1       7.007  -2.013  -1.170  0.00  0.00    +0.124 A 
BRANCH  14  16
ATOM     16  C   UNL     1       9.187  -0.960  -1.556  0.00  0.00    +0.065 A 
ATOM     17  C   UNL     1       9.383  -1.610  -2.767  0.00  0.00    +0.028 A 
ATOM     18  C   UNL     1      10.538  -1.387  -3.490  0.00  0.00    +0.002 A 
ATOM     19  C   UNL     1      11.499  -0.517  -3.009  0.00  0.00    +0.000 A 
ATOM     20  C   UNL     1      11.307   0.132  -1.803  0.00  0.00    +0.002 A 
ATOM     21  C   UNL     1      10.151  -0.083  -1.078  0.00  0.00    +0.028 A 
ENDBRANCH  14  16
ENDBRANCH   2  11
BRANCH   1  22
ATOM     22  N   UNL     1       3.719  -0.744   0.631  0.00  0.00    -0.237 N 
ATOM     23  H   UNL     1       4.545  -0.241   0.561  0.00  0.00    +0.174 HD
BRANCH  22  27
ATOM     24  C   UNL     1       0.232   1.145   1.895  0.00  0.00    +0.000 A 
ATOM     25  C   UNL     1       1.409   1.864   1.795  0.00  0.00    +0.002 A 
ATOM     26  C   UNL     1       2.568   1.241   1.376  0.00  0.00    +0.025 A 
ATOM     27  C   UNL     1       2.551  -0.111   1.055  0.00  0.00    +0.048 A 
ATOM     28  C   UNL     1       1.365  -0.831   1.156  0.00  0.00    +0.025 A 
ATOM     29  C   UNL     1       0.211  -0.201   1.576  0.00  0.00    +0.002 A 
ENDBRANCH  22  27
ENDBRANCH   1  22
TORSDOF 6
