REMARK  Name = ZINC04259122
REMARK  10 active torsions:
REMARK  status: ('A' for Active; 'I' for Inactive)
REMARK    1  A    between atoms: C_1  and  C_2
REMARK    2  A    between atoms: C_5  and  S_8
REMARK    3  A    between atoms: S_8  and  N_11
REMARK    4  A    between atoms: N_11  and  C_12
REMARK    5  A    between atoms: C_12  and  C_13
REMARK    6  A    between atoms: N_15  and  N_16
REMARK    7  A    between atoms: C_17  and  C_18
REMARK    8  A    between atoms: C_21  and  O_24
REMARK    9  A    between atoms: O_24  and  C_25
REMARK   10  A    between atoms: C_25  and  C_27
REMARK                            x       y       z     vdW  Elec       q    Type
REMARK                         _______ _______ _______ _____ _____    ______ ____
ROOT
ATOM      1  N   UNL     1      -5.985  -2.234  -0.308  0.00  0.00    -0.188 NA
ATOM      2  C   UNL     1      -5.979  -0.939  -0.388  0.00  0.00    +0.138 C 
ENDROOT
BRANCH   2   3
ATOM      3  C   UNL     1      -4.706  -0.201  -0.308  0.00  0.00    -0.005 A 
ATOM      4  C   UNL     1      -4.698   1.194  -0.394  0.00  0.00    +0.013 A 
ATOM      5  C   UNL     1      -3.505   1.880  -0.318  0.00  0.00    +0.047 A 
ATOM      6  C   UNL     1      -2.312   1.187  -0.155  0.00  0.00    +0.132 A 
ATOM      7  C   UNL     1      -2.315  -0.200  -0.075  0.00  0.00    +0.047 A 
ATOM      8  C   UNL     1      -3.503  -0.893  -0.144  0.00  0.00    +0.013 A 
BRANCH   6   9
ATOM      9  O   UNL     1      -1.139   1.868  -0.081  0.00  0.00    -0.422 OA
BRANCH   9  10
ATOM     10  C   UNL     1      -0.875   2.510   1.075  0.00  0.00    +0.345 C 
ATOM     11  O   UNL     1      -1.626   2.387   2.022  0.00  0.00    -0.245 OA
BRANCH  10  12
ATOM     12  C   UNL     1       0.325   3.355   1.190  0.00  0.00    +0.067 A 
ATOM     13  C   UNL     1       1.255   3.413   0.159  0.00  0.00    +0.015 A 
ATOM     14  C   UNL     1       2.382   4.215   0.269  0.00  0.00    +0.001 A 
ATOM     15  C   UNL     1       2.627   4.961   1.381  0.00  0.00    +0.008 A 
ATOM     16  C   UNL     1       1.733   4.947   2.465  0.00  0.00    -0.017 A 
ATOM     17  C   UNL     1       0.566   4.147   2.395  0.00  0.00    -0.004 A 
ATOM     18  C   UNL     1      -0.327   4.130   3.473  0.00  0.00    +0.009 A 
ATOM     19  C   UNL     1      -0.064   4.884   4.578  0.00  0.00    +0.001 A 
ATOM     20  C   UNL     1       1.083   5.672   4.650  0.00  0.00    +0.001 A 
ATOM     21  C   UNL     1       1.973   5.712   3.620  0.00  0.00    +0.008 A 
ENDBRANCH  10  12
ENDBRANCH   9  10
ENDBRANCH   6   9
ENDBRANCH   2   3
BRANCH   1  24
ATOM     22  C   UNL     1      -7.200  -4.281  -0.301  0.00  0.00    +0.248 C 
ATOM     23  O   UNL     1      -6.157  -4.885  -0.160  0.00  0.00    -0.273 OA
ATOM     24  N   UNL     1      -7.195  -2.936  -0.385  0.00  0.00    -0.206 N 
ATOM     25  H   UNL     1      -8.141  -2.389  -0.513  0.00  0.00    +0.177 HD
BRANCH  22  26
ATOM     26  C   UNL     1      -8.502  -5.036  -0.384  0.00  0.00    +0.203 C 
BRANCH  26  27
ATOM     27  N   UNL     1      -8.242  -6.473  -0.268  0.00  0.00    -0.181 NA
ATOM     28  H   UNL     1      -7.259  -6.878  -0.550  0.00  0.00    +0.149 HD
BRANCH  27  29
ATOM     29  S   UNL     1      -9.487  -7.518   0.047  0.00  0.00    +0.059 S 
ATOM     30  O   UNL     1      -8.926  -8.823   0.072  0.00  0.00    -0.153 OA
ATOM     31  O   UNL     1     -10.204  -6.975   1.148  0.00  0.00    -0.153 OA
BRANCH  29  36
ATOM     32  C   UNL     1     -13.213  -7.333  -4.695  0.00  0.00    +0.044 C 
ATOM     33  C   UNL     1     -12.283  -7.380  -3.510  0.00  0.00    -0.050 A 
ATOM     34  C   UNL     1     -11.242  -8.288  -3.485  0.00  0.00    +0.005 A 
ATOM     35  C   UNL     1     -10.388  -8.331  -2.398  0.00  0.00    +0.029 A 
ATOM     36  C   UNL     1     -10.575  -7.464  -1.338  0.00  0.00    +0.105 A 
ATOM     37  C   UNL     1     -11.620  -6.558  -1.361  0.00  0.00    +0.029 A 
ATOM     38  C   UNL     1     -12.470  -6.513  -2.450  0.00  0.00    +0.005 A 
ENDBRANCH  29  36
ENDBRANCH  27  29
ENDBRANCH  26  27
ENDBRANCH  22  26
ENDBRANCH   1  24
TORSDOF 9
