REMARK  Name = ZINC39984026
REMARK  4 active torsions:
REMARK  status: ('A' for Active; 'I' for Inactive)
REMARK    1  A    between atoms: C_1  and  C_2
REMARK    2  A    between atoms: C_3  and  C_17
REMARK    3  A    between atoms: C_4  and  C_10
REMARK    4  A    between atoms: C_19  and  C_22
REMARK                            x       y       z     vdW  Elec       q    Type
REMARK                         _______ _______ _______ _____ _____    ______ ____
ROOT
ATOM      1  C   UNL     1      -0.018   1.503   0.010  0.00  0.00    +0.061 C 
ATOM      2  C   UNL     1       0.002  -0.004   0.002  0.00  0.00    +0.017 C 
ATOM      3  C   UNL     1      -1.161  -0.682   0.004  0.00  0.00    +0.058 C 
ATOM      4  C   UNL     1      -1.096  -2.196  -0.005  0.00  0.00    +0.139 C 
ATOM      5  N   UNL     1       0.243  -2.808  -0.015  0.00  0.00    -0.315 N 
ATOM      6  C   UNL     1       1.319  -1.996  -0.016  0.00  0.00    +0.135 C 
ATOM      7  N   UNL     1       1.204  -0.662  -0.013  0.00  0.00    -0.300 N 
ATOM      8  S   UNL     1       2.883  -2.693  -0.028  0.00  0.00    -0.019 S 
ATOM      9  H   UNL     1       2.017  -0.132  -0.018  0.00  0.00    +0.154 HD
ATOM     10  H   UNL     1       0.348  -3.772  -0.021  0.00  0.00    +0.149 HD
ENDROOT
BRANCH   4  11
ATOM     11  C   UNL     1      -1.839  -2.685  -1.222  0.00  0.00    -0.023 A 
ATOM     12  C   UNL     1      -1.222  -2.672  -2.459  0.00  0.00    +0.007 A 
ATOM     13  C   UNL     1      -1.902  -3.120  -3.576  0.00  0.00    +0.020 A 
ATOM     14  C   UNL     1      -3.200  -3.583  -3.455  0.00  0.00    +0.041 A 
ATOM     15  C   UNL     1      -3.817  -3.596  -2.216  0.00  0.00    +0.020 A 
ATOM     16  C   UNL     1      -3.134  -3.153  -1.100  0.00  0.00    +0.007 A 
ATOM     17 CL   UNL     1      -4.056  -4.146  -4.857  0.00  0.00    -0.084 Cl
ENDBRANCH   4  11
BRANCH   3  18
ATOM     18  C   UNL     1      -2.445   0.019   0.015  0.00  0.00    +0.258 A 
ATOM     19  N   UNL     1      -2.613   1.327   0.018  0.00  0.00    -0.187 NA
ATOM     20  C   UNL     1      -3.921   1.618   0.029  0.00  0.00    +0.202 A 
ATOM     21  N   UNL     1      -4.607   0.500   0.032  0.00  0.00    -0.056 NA
ATOM     22  O   UNL     1      -3.662  -0.559   0.017  0.00  0.00    -0.333 OA
BRANCH  20  23
ATOM     23  C   UNL     1      -4.500   2.985   0.036  0.00  0.00    +0.022 A 
ATOM     24  C   UNL     1      -3.664   4.099   0.026  0.00  0.00    +0.012 A 
ATOM     25  C   UNL     1      -4.207   5.368   0.033  0.00  0.00    +0.001 A 
ATOM     26  C   UNL     1      -5.580   5.534   0.050  0.00  0.00    +0.000 A 
ATOM     27  C   UNL     1      -6.416   4.432   0.060  0.00  0.00    +0.001 A 
ATOM     28  C   UNL     1      -5.883   3.159   0.047  0.00  0.00    +0.012 A 
ENDBRANCH  20  23
ENDBRANCH   3  18
TORSDOF 3
