REMARK  Name = ZINC62626040
REMARK  7 active torsions:
REMARK  status: ('A' for Active; 'I' for Inactive)
REMARK    1  A    between atoms: C_1  and  C_2
REMARK    2  A    between atoms: C_8  and  C_35
REMARK    3  A    between atoms: C_9  and  C_14
REMARK    4  A    between atoms: C_17  and  C_20
REMARK    5  A    between atoms: C_30  and  C_32
REMARK    6  A    between atoms: C_32  and  C_33
REMARK    7  A    between atoms: C_32  and  C_34
REMARK                            x       y       z     vdW  Elec       q    Type
REMARK                         _______ _______ _______ _____ _____    ______ ____
ROOT
ATOM      1  C   UNL     1       0.043  -5.145   3.534  0.00  0.00    +0.075 C 
ATOM      2  N   UNL     1       0.122  -6.433   3.526  0.00  0.00    -0.181 NA
ATOM      3  N   UNL     1       0.095  -7.012   4.793  0.00  0.00    -0.185 N 
ATOM      4  C   UNL     1      -0.018  -5.947   5.802  0.00  0.00    +0.137 C 
ATOM      5  C   UNL     1      -0.051  -4.654   4.962  0.00  0.00    +0.087 C 
ATOM      6  C   UNL     1       0.163  -8.333   5.053  0.00  0.00    +0.238 C 
ATOM      7  O   UNL     1       0.131  -8.728   6.200  0.00  0.00    -0.274 OA
ENDROOT
BRANCH   1  16
ATOM      8  C   UNL     1      -3.448  -1.270  -1.805  0.00  0.00    +0.044 C 
ATOM      9  C   UNL     1      -2.184  -1.757  -1.145  0.00  0.00    -0.050 A 
ATOM     10  C   UNL     1      -0.951  -1.393  -1.667  0.00  0.00    +0.005 A 
ATOM     11  C   UNL     1       0.217  -1.828  -1.078  0.00  0.00    +0.026 A 
ATOM     12  C   UNL     1       0.164  -2.640   0.052  0.00  0.00    +0.050 A 
ATOM     13  C   UNL     1      -1.088  -3.006   0.577  0.00  0.00    +0.007 A 
ATOM     14  C   UNL     1      -2.261  -2.549  -0.034  0.00  0.00    +0.014 A 
ATOM     15  C   UNL     1      -1.152  -3.863   1.769  0.00  0.00    +0.005 A 
ATOM     16  C   UNL     1       0.049  -4.288   2.342  0.00  0.00    +0.070 A 
ATOM     17  C   UNL     1       1.314  -3.865   1.737  0.00  0.00    +0.259 A 
ATOM     18  O   UNL     1       2.367  -4.229   2.229  0.00  0.00    -0.267 OA
ATOM     19  N   UNL     1       1.329  -3.080   0.646  0.00  0.00    -0.322 N 
ATOM     20  H   UNL     1       2.182  -2.816   0.267  0.00  0.00    +0.169 HD
BRANCH  15  21
ATOM     21  C   UNL     1      -2.451  -4.264   2.345  0.00  0.00    -0.016 A 
ATOM     22  C   UNL     1      -2.852  -5.602   2.307  0.00  0.00    +0.008 A 
ATOM     23  C   UNL     1      -4.067  -5.970   2.847  0.00  0.00    +0.001 A 
ATOM     24  C   UNL     1      -4.888  -5.017   3.425  0.00  0.00    +0.000 A 
ATOM     25  C   UNL     1      -4.497  -3.690   3.467  0.00  0.00    +0.001 A 
ATOM     26  C   UNL     1      -3.282  -3.309   2.936  0.00  0.00    +0.008 A 
ENDBRANCH  15  21
ENDBRANCH   1  16
BRANCH   4  27
ATOM     27  C   UNL     1       1.179  -5.952   6.717  0.00  0.00    -0.023 A 
ATOM     28  C   UNL     1       2.444  -6.207   6.191  0.00  0.00    +0.008 A 
ATOM     29  C   UNL     1       3.546  -6.220   6.990  0.00  0.00    +0.030 A 
ATOM     30  C   UNL     1       3.410  -5.972   8.367  0.00  0.00    +0.089 A 
ATOM     31  C   UNL     1       2.123  -5.713   8.902  0.00  0.00    +0.089 A 
ATOM     32  C   UNL     1       1.009  -5.703   8.044  0.00  0.00    +0.035 A 
ATOM     33  N   UNL     1       1.988  -5.476  10.211  0.00  0.00    -0.252 NA
ATOM     34  C   UNL     1       3.047  -5.487  10.988  0.00  0.00    +0.131 A 
ATOM     35  C   UNL     1       4.315  -5.741  10.460  0.00  0.00    +0.131 A 
ATOM     36  N   UNL     1       4.473  -5.976   9.178  0.00  0.00    -0.252 NA
ENDBRANCH   4  27
BRANCH   6  37
ATOM     37  C   UNL     1       0.279  -9.319   3.920  0.00  0.00    +0.071 C 
ATOM     38  C   UNL     1       1.554  -9.033   3.123  0.00  0.00    +0.017 C 
ATOM     39  C   UNL     1       0.338 -10.740   4.484  0.00  0.00    +0.017 C 
ENDBRANCH   6  37
TORSDOF 4
