REMARK  Name = ZINC45631962
REMARK  9 active torsions:
REMARK  status: ('A' for Active; 'I' for Inactive)
REMARK    1  A    between atoms: C_1  and  C_2
REMARK    2  A    between atoms: C_2  and  O_3
REMARK    3  A    between atoms: O_3  and  C_4
REMARK    4  A    between atoms: C_4  and  C_6
REMARK    5  A    between atoms: C_7  and  C_20
REMARK    6  A    between atoms: C_12  and  C_14
REMARK    7  A    between atoms: C_20  and  O_21
REMARK    8  A    between atoms: O_21  and  C_22
REMARK    9  A    between atoms: C_25  and  C_29
REMARK                            x       y       z     vdW  Elec       q    Type
REMARK                         _______ _______ _______ _____ _____    ______ ____
ROOT
ATOM      1  C   UNL     1       1.330  -2.340  -2.530  0.00  0.00    +0.081 C 
ATOM      2  C   UNL     1       1.628  -3.654  -2.615  0.00  0.00    +0.061 C 
ATOM      3  N   UNL     1       2.352  -4.147  -3.663  0.00  0.00    -0.269 N 
ATOM      4  C   UNL     1       2.815  -3.390  -4.666  0.00  0.00    +0.304 C 
ATOM      5  O   UNL     1       3.451  -3.920  -5.556  0.00  0.00    -0.252 OA
ATOM      6  N   UNL     1       2.599  -2.061  -4.720  0.00  0.00    -0.288 N 
ATOM      7  C   UNL     1       1.823  -1.432  -3.639  0.00  0.00    +0.144 C 
ATOM      8  H   UNL     1       2.541  -5.098  -3.682  0.00  0.00    +0.156 HD
ATOM      9  H   UNL     1       2.945  -1.532  -5.456  0.00  0.00    +0.151 HD
ENDROOT
BRANCH   7  10
ATOM     10  C   UNL     1       2.683  -0.362  -3.017  0.00  0.00    -0.022 A 
ATOM     11  C   UNL     1       3.997  -0.637  -2.687  0.00  0.00    +0.006 A 
ATOM     12  C   UNL     1       4.786   0.344  -2.116  0.00  0.00    +0.000 A 
ATOM     13  C   UNL     1       4.261   1.600  -1.876  0.00  0.00    +0.000 A 
ATOM     14  C   UNL     1       2.947   1.875  -2.207  0.00  0.00    +0.000 A 
ATOM     15  C   UNL     1       2.159   0.895  -2.781  0.00  0.00    +0.006 A 
ENDBRANCH   7  10
BRANCH   1  16
ATOM     16  C   UNL     1       0.580  -1.828  -1.445  0.00  0.00    +0.339 C 
ATOM     17  O   UNL     1      -0.604  -1.586  -1.585  0.00  0.00    -0.245 OA
BRANCH  16  18
ATOM     18  O   UNL     1       1.178  -1.609  -0.255  0.00  0.00    -0.462 OA
BRANCH  18  20
ATOM     19  C   UNL     1       1.206  -0.910   2.058  0.00  0.00    +0.048 C 
ATOM     20  C   UNL     1       0.360  -1.092   0.796  0.00  0.00    +0.229 C 
ENDBRANCH  18  20
ENDBRANCH  16  18
ENDBRANCH   1  16
BRANCH   2  21
ATOM     21  C   UNL     1       1.153  -4.593  -1.536  0.00  0.00    +0.280 C 
BRANCH  21  22
ATOM     22  O   UNL     1       0.209  -5.513  -2.086  0.00  0.00    -0.485 OA
BRANCH  22  23
ATOM     23  C   UNL     1      -0.320  -6.434  -1.240  0.00  0.00    +0.139 A 
ATOM     24  C   UNL     1       0.060  -6.446   0.096  0.00  0.00    +0.048 A 
ATOM     25  C   UNL     1      -0.474  -7.378   0.958  0.00  0.00    +0.022 A 
ATOM     26  C   UNL     1      -1.400  -8.313   0.488  0.00  0.00    +0.053 A 
ATOM     27  C   UNL     1      -1.780  -8.298  -0.857  0.00  0.00    +0.042 A 
ATOM     28  C   UNL     1      -1.245  -7.359  -1.712  0.00  0.00    +0.084 A 
ATOM     29 CL   UNL     1      -1.721  -7.335  -3.381  0.00  0.00    -0.080 Cl
BRANCH  26  30
ATOM     30  C   UNL     1      -1.957  -9.284   1.381  0.00  0.00    +0.099 C 
ATOM     31  N   UNL     1      -2.398 -10.055   2.089  0.00  0.00    -0.191 NA
ENDBRANCH  26  30
ENDBRANCH  22  23
ENDBRANCH  21  22
ENDBRANCH   2  21
TORSDOF 8
