REMARK  Name = ZINC19535367
REMARK  10 active torsions:
REMARK  status: ('A' for Active; 'I' for Inactive)
REMARK    1  A    between atoms: C_1  and  C_2
REMARK    2  A    between atoms: C_2  and  O_3
REMARK    3  A    between atoms: O_3  and  C_4
REMARK    4  A    between atoms: C_9  and  C_10
REMARK    5  A    between atoms: C_10  and  C_11
REMARK    6  A    between atoms: C_10  and  C_19
REMARK    7  A    between atoms: C_12  and  C_18
REMARK    8  A    between atoms: C_16  and  O_17
REMARK    9  A    between atoms: C_20  and  C_26
REMARK   10  A    between atoms: C_24  and  O_25
REMARK                            x       y       z     vdW  Elec       q    Type
REMARK                         _______ _______ _______ _____ _____    ______ ____
ROOT
ATOM      1  C   UNL     1       1.984  -1.394  -3.471  0.00  0.00    +0.096 C 
ENDROOT
BRANCH   1   7
ATOM      2  C   UNL     1       1.199  -1.334  -1.090  0.00  0.00    +0.125 A 
ATOM      3  C   UNL     1       0.686  -1.958   0.038  0.00  0.00    +0.047 A 
ATOM      4  C   UNL     1       0.415  -3.312   0.014  0.00  0.00    +0.023 A 
ATOM      5  C   UNL     1       0.656  -4.047  -1.134  0.00  0.00    +0.041 A 
ATOM      6  C   UNL     1       1.168  -3.426  -2.260  0.00  0.00    +0.028 A 
ATOM      7  C   UNL     1       1.434  -2.071  -2.242  0.00  0.00    +0.008 A 
ATOM      8 CL   UNL     1       0.316  -5.749  -1.161  0.00  0.00    -0.084 Cl
BRANCH   2   9
ATOM      9  O   UNL     1       1.466  -0.001  -1.069  0.00  0.00    -0.492 OA
BRANCH   9  11
ATOM     10  C   UNL     1       1.559   2.172  -0.016  0.00  0.00    +0.048 C 
ATOM     11  C   UNL     1       1.199   0.694   0.151  0.00  0.00    +0.225 C 
ENDBRANCH   9  11
ENDBRANCH   2   9
ENDBRANCH   1   7
BRANCH   1  12
ATOM     12  C   UNL     1       1.107  -1.710  -4.654  0.00  0.00    +0.048 A 
ATOM     13  C   UNL     1       1.497  -1.690  -5.997  0.00  0.00    +0.068 A 
ATOM     14  N   UNL     1       0.464  -2.021  -6.729  0.00  0.00    -0.176 NA
ATOM     15  N   UNL     1      -0.621  -2.263  -5.877  0.00  0.00    -0.247 N 
ATOM     16  H   UNL     1      -1.514  -2.526  -6.150  0.00  0.00    +0.192 HD
ATOM     17  C   UNL     1      -0.203  -2.072  -4.606  0.00  0.00    +0.213 A 
ATOM     18  C   UNL     1       2.870  -1.346  -6.513  0.00  0.00    +0.068 C 
BRANCH  17  19
ATOM     19  O   UNL     1      -0.955  -2.213  -3.485  0.00  0.00    -0.492 OA
ATOM     20  H   UNL     1      -1.349  -1.388  -3.169  0.00  0.00    +0.294 HD
ENDBRANCH  17  19
ENDBRANCH   1  12
BRANCH   1  21
ATOM     21  C   UNL     1       3.382  -1.892  -3.734  0.00  0.00    +0.048 A 
ATOM     22  C   UNL     1       4.519  -1.167  -3.628  0.00  0.00    +0.041 A 
ATOM     23  N   UNL     1       5.554  -1.972  -3.947  0.00  0.00    -0.278 N 
ATOM     24  N   UNL     1       5.039  -3.236  -4.260  0.00  0.00    -0.136 NA
ATOM     25  H   UNL     1       6.491  -1.719  -3.957  0.00  0.00    +0.189 HD
ATOM     26  C   UNL     1       3.736  -3.192  -4.127  0.00  0.00    +0.236 A 
ATOM     27  C   UNL     1       4.613   0.283  -3.226  0.00  0.00    +0.065 C 
BRANCH  26  28
ATOM     28  O   UNL     1       2.876  -4.224  -4.337  0.00  0.00    -0.491 OA
ATOM     29  H   UNL     1       2.613  -4.335  -5.261  0.00  0.00    +0.294 HD
ENDBRANCH  26  28
ENDBRANCH   1  21
TORSDOF 7
