REMARK  Name = ZINC19595497
REMARK  6 active torsions:
REMARK  status: ('A' for Active; 'I' for Inactive)
REMARK    1  A    between atoms: C_1  and  C_2
REMARK    2  A    between atoms: C_5  and  C_7
REMARK    3  A    between atoms: C_7  and  N_8
REMARK    4  A    between atoms: C_9  and  C_11
REMARK    5  A    between atoms: C_11  and  C_12
REMARK    6  A    between atoms: N_19  and  C_20
REMARK                            x       y       z     vdW  Elec       q    Type
REMARK                         _______ _______ _______ _____ _____    ______ ____
ROOT
ATOM      1  C   UNL     1       2.931   5.239   0.151  0.00  0.00    +0.028 C 
ATOM      2  C   UNL     1       4.286   5.854  -0.058  0.00  0.00    +0.200 C 
ATOM      3  O   UNL     1       5.053   5.322  -0.833  0.00  0.00    -0.278 OA
ATOM      4  N   UNL     1       4.682   6.963   0.576  0.00  0.00    -0.318 N 
ATOM      5  C   UNL     1       3.851   7.658   1.554  0.00  0.00    +0.085 C 
ATOM      6  C   UNL     1       2.390   7.230   1.399  0.00  0.00    -0.058 C 
ATOM      7  N   UNL     1       2.328   5.759   1.385  0.00  0.00    +0.391 N 
ATOM      8  H   UNL     1       5.683   7.348   0.332  0.00  0.00    +0.149 HD
ATOM      9  H   UNL     1       2.902   5.375   2.241  0.00  0.00    -0.080 HD
ENDROOT
BRANCH   7  10
ATOM     10  C   UNL     1       0.944   5.289   1.534  0.00  0.00    -0.059 C 
ATOM     11  C   UNL     1       0.006   6.029   0.556  0.00  0.00    +0.020 C 
ATOM     12  C   UNL     1      -1.299   6.192   1.312  0.00  0.00    -0.046 A 
ATOM     13  C   UNL     1      -2.571   6.488   0.850  0.00  0.00    +0.004 A 
ATOM     14  C   UNL     1      -3.626   6.585   1.735  0.00  0.00    +0.000 A 
ATOM     15  C   UNL     1      -3.414   6.387   3.087  0.00  0.00    +0.000 A 
ATOM     16  C   UNL     1      -2.147   6.092   3.549  0.00  0.00    +0.004 A 
ATOM     17  C   UNL     1      -1.087   5.994   2.663  0.00  0.00    -0.046 A 
ATOM     18  C   UNL     1       0.375   5.687   2.912  0.00  0.00    +0.020 C 
ENDBRANCH   7  10
BRANCH   1  19
ATOM     19  C   UNL     1       3.074   3.719   0.257  0.00  0.00    +0.089 C 
BRANCH  19  21
ATOM     20  N   UNL     1       4.073   2.087   1.823  0.00  0.00    -0.311 N 
ATOM     21  C   UNL     1       3.896   3.376   1.472  0.00  0.00    +0.212 C 
ATOM     22  O   UNL     1       4.397   4.259   2.135  0.00  0.00    -0.276 OA
ATOM     23  H   UNL     1       3.619   1.285   1.223  0.00  0.00    +0.149 HD
BRANCH  20  24
ATOM     24  C   UNL     1       4.872   1.752   3.005  0.00  0.00    +0.146 C 
BRANCH  24  29
ATOM     25  C   UNL     1       4.218  -3.747   4.195  0.00  0.00    +0.051 C 
ATOM     26  C   UNL     1       4.604  -2.363   3.743  0.00  0.00    -0.013 A 
ATOM     27  C   UNL     1       5.645  -1.977   2.966  0.00  0.00    +0.011 A 
ATOM     28  C   UNL     1       5.802  -0.636   2.671  0.00  0.00    +0.013 A 
ATOM     29  C   UNL     1       4.915   0.256   3.176  0.00  0.00    +0.007 A 
ATOM     30  S   UNL     1       3.806  -0.804   4.090  0.00  0.00    -0.097 S 
ENDBRANCH  24  29
ENDBRANCH  20  24
ENDBRANCH  19  21
ENDBRANCH   1  19
TORSDOF 5
