REMARK  Name = ZINC63896716
REMARK  12 active torsions:
REMARK  status: ('A' for Active; 'I' for Inactive)
REMARK    1  A    between atoms: C_1  and  C_2
REMARK    2  A    between atoms: C_2  and  N_3
REMARK    3  A    between atoms: N_3  and  C_4
REMARK    4  A    between atoms: C_5  and  N_20
REMARK    5  A    between atoms: N_6  and  C_13
REMARK    6  A    between atoms: C_13  and  C_14
REMARK    7  A    between atoms: C_21  and  C_23
REMARK    8  A    between atoms: C_23  and  O_24
REMARK    9  A    between atoms: O_24  and  C_25
REMARK   10  A    between atoms: C_25  and  C_27
REMARK   11  A    between atoms: C_27  and  C_28
REMARK   12  A    between atoms: C_28  and  C_29
REMARK                            x       y       z     vdW  Elec       q    Type
REMARK                         _______ _______ _______ _____ _____    ______ ____
ROOT
ATOM      1  N   UNL     1      -1.309  -0.523   0.024  0.00  0.00    -0.262 N 
ATOM      2  C   UNL     1      -1.766  -0.875   1.244  0.00  0.00    +0.258 C 
ATOM      3  O   UNL     1      -2.848  -1.411   1.355  0.00  0.00    -0.272 OA
ENDROOT
BRANCH   1   4
ATOM      4  C   UNL     1      -2.136  -0.676  -1.110  0.00  0.00    +0.140 A 
ATOM      5  C   UNL     1      -1.809  -1.580  -2.100  0.00  0.00    +0.128 A 
ATOM      6  N   UNL     1      -2.635  -1.706  -3.193  0.00  0.00    -0.276 N 
ATOM      7  C   UNL     1      -3.748  -0.957  -3.295  0.00  0.00    +0.331 A 
ATOM      8  O   UNL     1      -4.465  -1.084  -4.270  0.00  0.00    -0.246 OA
ATOM      9  N   UNL     1      -4.083  -0.072  -2.340  0.00  0.00    -0.273 N 
ATOM     10  H   UNL     1      -4.891   0.455  -2.437  0.00  0.00    +0.173 HD
ATOM     11  C   UNL     1      -3.311   0.086  -1.246  0.00  0.00    +0.277 A 
ATOM     12  O   UNL     1      -3.627   0.888  -0.384  0.00  0.00    -0.266 OA
BRANCH   5  13
ATOM     13  N   UNL     1      -0.671  -2.344  -1.996  0.00  0.00    -0.343 N 
ATOM     14  H   UNL     1      -0.059  -2.204  -1.257  0.00  0.00    +0.144 HD
ATOM     15  H   UNL     1      -0.481  -3.023  -2.662  0.00  0.00    +0.144 HD
ENDBRANCH   5  13
BRANCH   6  16
ATOM     16  C   UNL     1      -2.300  -2.661  -4.252  0.00  0.00    +0.163 C 
BRANCH  16  17
ATOM     17  C   UNL     1      -2.924  -3.997  -3.940  0.00  0.00    -0.028 A 
ATOM     18  C   UNL     1      -2.228  -4.927  -3.192  0.00  0.00    +0.005 A 
ATOM     19  C   UNL     1      -2.801  -6.152  -2.906  0.00  0.00    +0.000 A 
ATOM     20  C   UNL     1      -4.070  -6.447  -3.367  0.00  0.00    +0.000 A 
ATOM     21  C   UNL     1      -4.767  -5.516  -4.115  0.00  0.00    +0.000 A 
ATOM     22  C   UNL     1      -4.196  -4.289  -4.397  0.00  0.00    +0.005 A 
ENDBRANCH  16  17
ENDBRANCH   6  16
ENDBRANCH   1   4
BRANCH   1  24
ATOM     23  C   UNL     1      -0.011   1.545  -0.100  0.00  0.00    +0.025 C 
ATOM     24  C   UNL     1       0.044   0.016  -0.125  0.00  0.00    +0.110 C 
ENDBRANCH   1  24
BRANCH   2  25
ATOM     25  C   UNL     1      -0.931  -0.600   2.468  0.00  0.00    +0.328 C 
BRANCH  25  26
ATOM     26  O   UNL     1      -1.625  -1.059   3.630  0.00  0.00    -0.455 OA
BRANCH  26  27
ATOM     27  C   UNL     1      -1.013  -0.888   4.812  0.00  0.00    +0.308 C 
ATOM     28  O   UNL     1       0.075  -0.365   4.859  0.00  0.00    -0.251 OA
BRANCH  27  29
ATOM     29  C   UNL     1      -1.683  -1.348   6.082  0.00  0.00    +0.125 C 
BRANCH  29  30
ATOM     30  C   UNL     1      -0.780  -1.037   7.277  0.00  0.00    +0.044 C 
BRANCH  30  31
ATOM     31  C   UNL     1      -1.450  -1.497   8.546  0.00  0.00    -0.041 C 
ATOM     32  C   UNL     1      -1.266  -2.677   9.181  0.00  0.00    -0.001 A 
ATOM     33  C   UNL     1      -0.421  -3.841   8.891  0.00  0.00    +0.010 A 
ATOM     34  C   UNL     1      -0.452  -4.900   9.732  0.00  0.00    +0.001 A 
ATOM     35  C   UNL     1      -1.271  -4.914  10.869  0.00  0.00    +0.002 A 
ATOM     36  C   UNL     1      -2.075  -3.882  11.202  0.00  0.00    +0.026 A 
ATOM     37  C   UNL     1      -2.122  -2.716  10.389  0.00  0.00    +0.043 A 
ATOM     38  N   UNL     1      -2.807  -1.604  10.496  0.00  0.00    -0.380 N 
ATOM     39  C   UNL     1      -2.460  -0.730   9.370  0.00  0.00    +0.144 C 
ATOM     40  H   UNL     1      -3.436  -1.393  11.204  0.00  0.00    +0.160 HD
ENDBRANCH  30  31
ENDBRANCH  29  30
ENDBRANCH  27  29
ENDBRANCH  26  27
ENDBRANCH  25  26
ENDBRANCH   2  25
TORSDOF 11
