REMARK  Name = ZINC27603125
REMARK  11 active torsions:
REMARK  status: ('A' for Active; 'I' for Inactive)
REMARK    1  A    between atoms: C_1  and  C_2
REMARK    2  A    between atoms: C_5  and  C_30
REMARK    3  A    between atoms: C_6  and  S_8
REMARK    4  A    between atoms: S_8  and  N_11
REMARK    5  A    between atoms: N_11  and  C_12
REMARK    6  A    between atoms: C_12  and  C_13
REMARK    7  A    between atoms: C_13  and  C_14
REMARK    8  A    between atoms: N_16  and  C_17
REMARK    9  A    between atoms: C_17  and  C_18
REMARK   10  A    between atoms: C_18  and  C_20
REMARK   11  A    between atoms: C_18  and  N_25
REMARK                            x       y       z     vdW  Elec       q    Type
REMARK                         _______ _______ _______ _____ _____    ______ ____
ROOT
ATOM      1  C   UNL     1       3.288   0.879   2.046  0.00  0.00    +0.214 C 
ATOM      2  O   UNL     1       3.969   1.616   1.364  0.00  0.00    -0.276 OA
ATOM      3  N   UNL     1       1.996   0.668   1.727  0.00  0.00    -0.316 N 
ATOM      4  H   UNL     1       1.379  -0.001   2.346  0.00  0.00    +0.149 HD
ENDROOT
BRANCH   1   5
ATOM      5  C   UNL     1       3.888   0.199   3.250  0.00  0.00    +0.112 C 
BRANCH   5   6
ATOM      6  C   UNL     1       5.357   0.606   3.386  0.00  0.00    +0.115 C 
BRANCH   6   7
ATOM      7  N   UNL     1       5.940  -0.055   4.556  0.00  0.00    -0.189 NA
ATOM      8  H   UNL     1       5.293  -0.377   5.385  0.00  0.00    +0.148 HD
BRANCH   7   9
ATOM      9  S   UNL     1       7.585  -0.099   4.748  0.00  0.00    +0.059 S 
ATOM     10  O   UNL     1       7.831  -0.734   5.996  0.00  0.00    -0.153 OA
ATOM     11  O   UNL     1       8.124  -0.585   3.527  0.00  0.00    -0.153 OA
BRANCH   9  17
ATOM     12  C   UNL     1      10.236   4.054   3.003  0.00  0.00    +0.044 C 
ATOM     13  C   UNL     1       9.364   3.438   4.068  0.00  0.00    -0.049 A 
ATOM     14  C   UNL     1       8.997   4.181   5.175  0.00  0.00    +0.004 A 
ATOM     15  C   UNL     1       8.198   3.616   6.151  0.00  0.00    +0.005 A 
ATOM     16  C   UNL     1       7.767   2.309   6.021  0.00  0.00    -0.024 A 
ATOM     17  C   UNL     1       8.134   1.567   4.914  0.00  0.00    +0.108 A 
ATOM     18  C   UNL     1       8.937   2.130   3.940  0.00  0.00    +0.032 A 
ATOM     19  C   UNL     1       6.897   1.693   7.086  0.00  0.00    +0.046 C 
ENDBRANCH   9  17
ENDBRANCH   7   9
ENDBRANCH   6   7
ENDBRANCH   5   6
ENDBRANCH   1   5
BRANCH   3  20
ATOM     20  C   UNL     1       1.413   1.329   0.557  0.00  0.00    +0.094 C 
BRANCH  20  21
ATOM     21  C   UNL     1      -0.092   1.056   0.514  0.00  0.00    -0.013 C 
BRANCH  21  22
ATOM     22  N   UNL     1      -0.738   1.691   1.670  0.00  0.00    +0.386 N 
ATOM     23  C   UNL     1      -2.218   1.652   1.541  0.00  0.00    -0.078 C 
ATOM     24  C   UNL     1      -2.706   1.852   2.998  0.00  0.00    -0.020 C 
ATOM     25  C   UNL     1      -1.667   1.059   3.823  0.00  0.00    -0.020 C 
ATOM     26  C   UNL     1      -0.423   0.964   2.919  0.00  0.00    -0.078 C 
ATOM     27  H   UNL     1      -0.357   2.723   1.697  0.00  0.00    -0.081 HD
ENDBRANCH  21  22
BRANCH  21  28
ATOM     28  C   UNL     1      -0.669   1.622  -0.758  0.00  0.00    -0.022 A 
ATOM     29  C   UNL     1      -1.084   0.969  -1.871  0.00  0.00    +0.009 A 
ATOM     30  C   UNL     1      -1.586   1.702  -2.930  0.00  0.00    +0.008 A 
ATOM     31  C   UNL     1      -1.649   3.052  -2.824  0.00  0.00    +0.045 A 
ATOM     32  S   UNL     1      -0.991   3.325  -1.186  0.00  0.00    -0.103 S 
ENDBRANCH  21  28
ENDBRANCH  20  21
ENDBRANCH   3  20
TORSDOF 9
