REMARK  Name = ZINC39465831
REMARK  8 active torsions:
REMARK  status: ('A' for Active; 'I' for Inactive)
REMARK    1  A    between atoms: C_1  and  C_2
REMARK    2  A    between atoms: C_2  and  C_3
REMARK    3  A    between atoms: C_2  and  S_4
REMARK    4  A    between atoms: S_4  and  C_7
REMARK    5  A    between atoms: C_12  and  S_13
REMARK    6  A    between atoms: S_13  and  C_14
REMARK    7  A    between atoms: P_22  and  S_25
REMARK    8  A    between atoms: S_25  and  C_28
REMARK                            x       y       z     vdW  Elec       q    Type
REMARK                         _______ _______ _______ _____ _____    ______ ____
ROOT
ATOM      1  C   UNL     1       2.363  -0.017  -1.239  0.00  0.00    +0.102 A 
ATOM      2  C   UNL     1       3.473  -0.834  -1.211  0.00  0.00    +0.033 A 
ATOM      3  C   UNL     1       4.738  -0.298  -1.007  0.00  0.00    -0.022 A 
ATOM      4  C   UNL     1       4.884   1.062  -0.832  0.00  0.00    -0.040 A 
ATOM      5  C   UNL     1       3.773   1.888  -0.860  0.00  0.00    +0.020 A 
ATOM      6  C   UNL     1       2.509   1.354  -1.069  0.00  0.00    +0.033 A 
ATOM      7  C   UNL     1       6.238   1.685  -0.605  0.00  0.00    +0.052 C 
ATOM      8  C   UNL     1       7.331   0.719  -1.061  0.00  0.00    +0.108 C 
ATOM      9  N   UNL     1       7.101  -0.589  -0.429  0.00  0.00    -0.224 NA
ATOM     10  C   UNL     1       5.915  -1.238  -0.987  0.00  0.00    +0.130 C 
ATOM     11  C   UNL     1       5.542  -2.487  -0.182  0.00  0.00    +0.195 C 
ATOM     12  O   UNL     1       6.627  -3.432  -0.266  0.00  0.00    -0.298 OA
ATOM     13  P   UNL     1       8.132  -2.906   0.058  0.00  0.00    +0.424 P 
ATOM     14  O   UNL     1       9.131  -3.786  -0.588  0.00  0.00    -0.246 OA
ATOM     15  N   UNL     1       8.218  -1.382  -0.577  0.00  0.00    -0.161 NA
ATOM     16  H   UNL     1       9.014  -1.062  -1.030  0.00  0.00    +0.152 HD
ENDROOT
BRANCH   1  17
ATOM     17  S   UNL     1       0.763  -0.710  -1.498  0.00  0.00    +0.000 S 
ATOM     18  O   UNL     1      -0.038  -0.171  -0.456  0.00  0.00    -0.169 OA
ATOM     19  O   UNL     1       0.985  -2.110  -1.591  0.00  0.00    -0.169 OA
BRANCH  17  21
ATOM     20  C   UNL     1       1.212  -0.491  -4.188  0.00  0.00    +0.032 C 
ATOM     21  C   UNL     1       0.226  -0.054  -3.102  0.00  0.00    +0.130 C 
ATOM     22  C   UNL     1      -1.167  -0.593  -3.432  0.00  0.00    +0.032 C 
ENDBRANCH  17  21
ENDBRANCH   1  17
BRANCH  13  23
ATOM     23  S   UNL     1       8.453  -2.850   2.153  0.00  0.00    +0.085 S 
ATOM     24  O   UNL     1       9.823  -2.524   2.345  0.00  0.00    -0.159 OA
ATOM     25  O   UNL     1       7.400  -2.072   2.705  0.00  0.00    -0.159 OA
BRANCH  23  26
ATOM     26  C   UNL     1       8.237  -4.491   2.757  0.00  0.00    +0.099 A 
ATOM     27  C   UNL     1       6.987  -4.920   3.161  0.00  0.00    +0.027 A 
ATOM     28  C   UNL     1       6.817  -6.208   3.635  0.00  0.00    +0.002 A 
ATOM     29  C   UNL     1       7.898  -7.067   3.704  0.00  0.00    +0.000 A 
ATOM     30  C   UNL     1       9.148  -6.638   3.299  0.00  0.00    +0.002 A 
ATOM     31  C   UNL     1       9.317  -5.352   2.821  0.00  0.00    +0.027 A 
ENDBRANCH  23  26
ENDBRANCH  13  23
BRANCH   6  32
ATOM     32  S   UNL     1       1.098   2.408  -1.110  0.00  0.00    -0.127 S 
ATOM     33  C   UNL     1       1.781   4.067  -0.847  0.00  0.00    +0.090 C 
ENDBRANCH   6  32
TORSDOF 5
