REMARK  Name = ZINC39665764
REMARK  9 active torsions:
REMARK  status: ('A' for Active; 'I' for Inactive)
REMARK    1  A    between atoms: C_1  and  C_2
REMARK    2  A    between atoms: C_2  and  C_4
REMARK    3  A    between atoms: C_2  and  O_29
REMARK    4  A    between atoms: C_4  and  N_5
REMARK    5  A    between atoms: C_6  and  C_8
REMARK    6  A    between atoms: C_19  and  C_21
REMARK    7  A    between atoms: O_29  and  C_30
REMARK    8  A    between atoms: C_33  and  O_36
REMARK    9  A    between atoms: O_36  and  C_37
REMARK                            x       y       z     vdW  Elec       q    Type
REMARK                         _______ _______ _______ _____ _____    ______ ____
ROOT
ATOM      1  C   UNL     1       1.570  -4.673   2.639  0.00  0.00    +0.100 C 
ATOM      2  C   UNL     1       0.177  -5.333   2.530  0.00  0.00    +0.121 C 
ATOM      3  N   UNL     1       0.257  -6.523   3.409  0.00  0.00    -0.296 N 
ATOM      4  C   UNL     1       1.037  -6.064   4.583  0.00  0.00    +0.115 C 
ATOM      5  C   UNL     1       2.131  -5.155   3.987  0.00  0.00    -0.004 C 
ATOM      6  C   UNL     1       2.386  -3.966   4.909  0.00  0.00    -0.010 C 
ATOM      7  C   UNL     1       2.998  -4.464   6.221  0.00  0.00    -0.082 C 
ATOM      8  N   UNL     1       4.254  -5.170   5.940  0.00  0.00    +0.379 N 
ATOM      9  C   UNL     1       3.987  -6.365   5.131  0.00  0.00    -0.082 C 
ATOM     10  C   UNL     1       3.417  -5.947   3.772  0.00  0.00    -0.010 C 
ATOM     11  C   UNL     1      -0.262  -7.748   3.190  0.00  0.00    +0.249 C 
ATOM     12  O   UNL     1      -0.168  -8.609   4.043  0.00  0.00    -0.270 OA
ATOM     13  H   UNL     1       4.878  -4.557   5.436  0.00  0.00    -0.086 HD
ATOM     14  H   UNL     1       4.686  -5.444   6.810  0.00  0.00    -0.086 HD
ENDROOT
BRANCH  11  15
ATOM     15  C   UNL     1      -0.946  -8.043   1.914  0.00  0.00    +0.073 A 
ATOM     16  C   UNL     1      -1.714  -7.060   1.286  0.00  0.00    +0.036 A 
ATOM     17  C   UNL     1      -2.349  -7.343   0.095  0.00  0.00    +0.042 A 
ATOM     18  C   UNL     1      -2.227  -8.597  -0.480  0.00  0.00    +0.023 A 
ATOM     19  C   UNL     1      -1.469  -9.575   0.134  0.00  0.00    +0.040 A 
ATOM     20  C   UNL     1      -0.822  -9.306   1.327  0.00  0.00    +0.136 A 
ATOM     21  F   UNL     1      -0.076 -10.261   1.924  0.00  0.00    -0.205 F 
ATOM     22 CL   UNL     1      -3.305  -6.122  -0.687  0.00  0.00    -0.084 Cl
ENDBRANCH  11  15
BRANCH   1  24
ATOM     23  N   UNL     1       2.430  -2.414   2.115  0.00  0.00    -0.312 N 
ATOM     24  C   UNL     1       1.442  -3.172   2.630  0.00  0.00    +0.218 C 
ATOM     25  O   UNL     1       0.449  -2.645   3.086  0.00  0.00    -0.275 OA
ATOM     26  H   UNL     1       3.225  -2.835   1.751  0.00  0.00    +0.149 HD
BRANCH  23  27
ATOM     27  C   UNL     1       2.306  -0.954   2.107  0.00  0.00    +0.148 C 
BRANCH  27  29
ATOM     28  C   UNL     1       3.482   1.185   1.576  0.00  0.00    +0.053 C 
ATOM     29  C   UNL     1       3.555  -0.340   1.473  0.00  0.00    +0.187 C 
BRANCH  29  30
ATOM     30  O   UNL     1       3.628  -0.721   0.098  0.00  0.00    -0.488 OA
BRANCH  30  31
ATOM     31  C   UNL     1       4.860  -0.718  -0.479  0.00  0.00    +0.121 A 
ATOM     32  C   UNL     1       4.991  -0.978  -1.836  0.00  0.00    +0.049 A 
ATOM     33  C   UNL     1       6.242  -0.974  -2.422  0.00  0.00    +0.049 A 
ATOM     34  C   UNL     1       7.367  -0.711  -1.654  0.00  0.00    +0.120 A 
ATOM     35  C   UNL     1       7.235  -0.450  -0.298  0.00  0.00    +0.049 A 
ATOM     36  C   UNL     1       5.984  -0.449   0.287  0.00  0.00    +0.049 A 
BRANCH  34  37
ATOM     37  O   UNL     1       8.598  -0.708  -2.231  0.00  0.00    -0.495 OA
ATOM     38  C   UNL     1       9.712  -0.429  -1.381  0.00  0.00    +0.277 C 
ENDBRANCH  34  37
ENDBRANCH  30  31
ENDBRANCH  29  30
ENDBRANCH  27  29
ENDBRANCH  23  27
ENDBRANCH   1  24
TORSDOF 7
