REMARK  Name = ZINC63081518
REMARK  7 active torsions:
REMARK  status: ('A' for Active; 'I' for Inactive)
REMARK    1  A    between atoms: C_1  and  C_2
REMARK    2  A    between atoms: C_2  and  C_4
REMARK    3  A    between atoms: C_2  and  N_12
REMARK    4  A    between atoms: N_12  and  C_13
REMARK    5  A    between atoms: C_13  and  C_14
REMARK    6  A    between atoms: C_14  and  C_16
REMARK    7  A    between atoms: C_14  and  C_22
REMARK                            x       y       z     vdW  Elec       q    Type
REMARK                         _______ _______ _______ _____ _____    ______ ____
ROOT
ATOM      1  C   UNL     1      -3.269  -1.161  -1.315  0.00  0.00    +0.014 C 
ENDROOT
BRANCH   1   2
ATOM      2  C   UNL     1      -4.181  -0.609  -0.249  0.00  0.00    -0.039 C 
ATOM      3  C   UNL     1      -4.742  -1.291   0.774  0.00  0.00    -0.001 A 
ATOM      4  C   UNL     1      -4.677  -2.699   1.186  0.00  0.00    +0.010 A 
ATOM      5  C   UNL     1      -5.364  -3.095   2.281  0.00  0.00    +0.001 A 
ATOM      6  C   UNL     1      -6.137  -2.197   3.030  0.00  0.00    +0.002 A 
ATOM      7  C   UNL     1      -6.247  -0.889   2.715  0.00  0.00    +0.026 A 
ATOM      8  C   UNL     1      -5.565  -0.363   1.583  0.00  0.00    +0.043 A 
ATOM      9  N   UNL     1      -5.514   0.846   1.079  0.00  0.00    -0.380 N 
ATOM     10  C   UNL     1      -4.647   0.823  -0.104  0.00  0.00    +0.145 C 
ATOM     11  H   UNL     1      -5.969   1.626   1.432  0.00  0.00    +0.160 HD
ENDBRANCH   1   2
BRANCH   1  12
ATOM     12  C   UNL     1      -3.903  -0.944  -2.691  0.00  0.00    +0.060 C 
ATOM     13  C   UNL     1      -5.201  -1.777  -2.857  0.00  0.00    +0.042 C 
ATOM     14  C   UNL     1      -5.302  -2.328  -4.243  0.00  0.00    -0.019 C 
ATOM     15  C   UNL     1      -4.227  -2.391  -5.004  0.00  0.00    +0.036 C 
ATOM     16  S   UNL     1      -2.896  -1.714  -4.027  0.00  0.00    -0.129 S 
ENDBRANCH   1  12
BRANCH   1  17
ATOM     17  C   UNL     1      -1.920  -0.442  -1.255  0.00  0.00    -0.073 C 
BRANCH  17  18
ATOM     18  N   UNL     1      -1.261  -0.744   0.023  0.00  0.00    +0.387 N 
ATOM     19  H   UNL     1      -1.192  -1.744   0.138  0.00  0.00    -0.085 HD
ATOM     20  H   UNL     1      -1.802  -0.354   0.780  0.00  0.00    -0.085 HD
BRANCH  18  22
ATOM     21  C   UNL     1      -0.024   1.369  -0.020  0.00  0.00    -0.004 C 
ATOM     22  C   UNL     1       0.085  -0.156   0.030  0.00  0.00    +0.013 C 
BRANCH  22  23
ATOM     23  C   UNL     1       0.807  -0.568   1.287  0.00  0.00    +0.201 C 
ATOM     24  O   UNL     1       0.175  -0.853   2.283  0.00  0.00    -0.277 OA
ATOM     25  N   UNL     1       2.153  -0.619   1.306  0.00  0.00    -0.303 N 
ATOM     26  C   UNL     1       2.935  -0.172   0.145  0.00  0.00    +0.107 C 
ATOM     27  C   UNL     1       3.961   0.866   0.612  0.00  0.00    +0.019 C 
ATOM     28  C   UNL     1       4.801   0.272   1.745  0.00  0.00    +0.003 C 
ATOM     29  C   UNL     1       3.894  -0.076   2.927  0.00  0.00    +0.019 C 
ATOM     30  C   UNL     1       2.867  -1.118   2.489  0.00  0.00    +0.107 C 
ENDBRANCH  22  23
ENDBRANCH  18  22
ENDBRANCH  17  18
ENDBRANCH   1  17
TORSDOF 6
