REMARK  Name = ZINC22240195
REMARK  9 active torsions:
REMARK  status: ('A' for Active; 'I' for Inactive)
REMARK    1  A    between atoms: C_1  and  C_2
REMARK    2  A    between atoms: C_2  and  C_3
REMARK    3  A    between atoms: C_3  and  C_4
REMARK    4  A    between atoms: C_4  and  C_31
REMARK    5  A    between atoms: N_7  and  C_11
REMARK    6  A    between atoms: C_11  and  C_12
REMARK    7  A    between atoms: C_25  and  C_27
REMARK    8  A    between atoms: C_31  and  C_32
REMARK    9  A    between atoms: C_32  and  C_33
REMARK                            x       y       z     vdW  Elec       q    Type
REMARK                         _______ _______ _______ _____ _____    ______ ____
ROOT
ATOM      1  C   UNL     1      -2.757   5.283  -0.115  0.00  0.00    +0.238 C 
ATOM      2  O   UNL     1      -2.472   4.560  -1.046  0.00  0.00    -0.273 OA
ATOM      3  N   UNL     1      -3.216   6.529  -0.345  0.00  0.00    -0.256 N 
ATOM      4  C   UNL     1      -3.550   7.376   0.721  0.00  0.00    +0.058 A 
ATOM      5  C   UNL     1      -4.686   7.143   1.479  0.00  0.00    +0.025 A 
ATOM      6  C   UNL     1      -5.011   8.003   2.512  0.00  0.00    +0.002 A 
ATOM      7  C   UNL     1      -4.208   9.093   2.791  0.00  0.00    +0.002 A 
ATOM      8  C   UNL     1      -3.067   9.327   2.045  0.00  0.00    +0.025 A 
ATOM      9  C   UNL     1      -2.728   8.465   1.016  0.00  0.00    +0.055 A 
ATOM     10  N   UNL     1      -1.550   8.649   0.283  0.00  0.00    -0.284 N 
ATOM     11  C   UNL     1      -1.569   8.608  -1.067  0.00  0.00    +0.219 C 
ATOM     12  O   UNL     1      -0.529   8.687  -1.687  0.00  0.00    -0.275 OA
ATOM     13  C   UNL     1      -2.873   8.465  -1.808  0.00  0.00    +0.128 C 
ATOM     14  C   UNL     1      -3.370   7.025  -1.714  0.00  0.00    +0.194 C 
ATOM     15  H   UNL     1      -0.600   8.829   0.807  0.00  0.00    +0.155 HD
ENDROOT
BRANCH  14  16
ATOM     16  C   UNL     1      -4.847   6.976  -2.110  0.00  0.00    +0.409 C 
ATOM     17  F   UNL     1      -5.590   7.777  -1.237  0.00  0.00    -0.169 F 
ATOM     18  F   UNL     1      -4.995   7.450  -3.418  0.00  0.00    -0.169 F 
ATOM     19  F   UNL     1      -5.305   5.656  -2.038  0.00  0.00    -0.169 F 
ENDBRANCH  14  16
BRANCH   1  20
ATOM     20  C   UNL     1      -2.599   4.788   1.300  0.00  0.00    +0.214 C 
BRANCH  20  24
ATOM     21  C   UNL     1      -0.729   1.579   1.267  0.00  0.00    +0.113 C 
ATOM     22  C   UNL     1      -0.779   3.094   1.293  0.00  0.00    +0.247 C 
ATOM     23  O   UNL     1       0.162   3.858   1.316  0.00  0.00    -0.273 OA
ATOM     24  N   UNL     1      -2.088   3.415   1.283  0.00  0.00    -0.215 N 
ATOM     25  C   UNL     1      -2.864   2.325   1.255  0.00  0.00    +0.310 C 
ATOM     26  O   UNL     1      -4.078   2.361   1.242  0.00  0.00    -0.252 OA
ATOM     27  N   UNL     1      -2.148   1.186   1.243  0.00  0.00    -0.285 N 
ATOM     28  H   UNL     1      -2.424   0.121   1.222  0.00  0.00    +0.151 HD
BRANCH  21  29
ATOM     29  C   UNL     1      -0.013   1.086   0.008  0.00  0.00    +0.035 C 
BRANCH  29  31
ATOM     30  C   UNL     1      -0.037   1.099  -2.490  0.00  0.00    +0.004 C 
ATOM     31  C   UNL     1      -0.753   1.593  -1.232  0.00  0.00    -0.001 C 
ENDBRANCH  29  31
ENDBRANCH  21  29
BRANCH  21  32
ATOM     32  C   UNL     1      -0.039   1.042   2.522  0.00  0.00    +0.035 C 
BRANCH  32  33
ATOM     33  C   UNL     1      -0.844   1.446   3.759  0.00  0.00    -0.001 C 
ATOM     34  C   UNL     1      -0.154   0.908   5.014  0.00  0.00    +0.004 C 
ENDBRANCH  32  33
ENDBRANCH  21  32
ENDBRANCH  20  24
ENDBRANCH   1  20
TORSDOF 7
