REMARK  Name = ZINC67292243
REMARK  6 active torsions:
REMARK  status: ('A' for Active; 'I' for Inactive)
REMARK    1  A    between atoms: C_1  and  C_2
REMARK    2  A    between atoms: C_2  and  C_3
REMARK    3  A    between atoms: C_7  and  N_9
REMARK    4  A    between atoms: C_11  and  C_21
REMARK    5  A    between atoms: N_23  and  C_24
REMARK    6  A    between atoms: C_24  and  C_25
REMARK                            x       y       z     vdW  Elec       q    Type
REMARK                         _______ _______ _______ _____ _____    ______ ____
ROOT
ATOM      1  N   UNL     1       0.018  -1.467   4.671  0.00  0.00    -0.325 N 
ATOM      2  C   UNL     1       0.253  -2.570   5.348  0.00  0.00    +0.212 A 
ATOM      3  C   UNL     1      -0.393  -2.815   6.652  0.00  0.00    +0.097 A 
ATOM      4  C   UNL     1      -0.573  -4.139   7.030  0.00  0.00    +0.030 A 
ATOM      5  C   UNL     1      -0.108  -5.173   6.103  0.00  0.00    +0.019 A 
ATOM      6  C   UNL     1      -0.484  -6.511   6.274  0.00  0.00    +0.026 A 
ATOM      7  C   UNL     1      -0.035  -7.463   5.385  0.00  0.00    +0.019 A 
ATOM      8  C   UNL     1       0.784  -7.102   4.324  0.00  0.00    +0.019 A 
ATOM      9  C   UNL     1       1.164  -5.787   4.144  0.00  0.00    +0.048 A 
ATOM     10  C   UNL     1       0.727  -4.812   5.028  0.00  0.00    +0.137 A 
ATOM     11  O   UNL     1       1.094  -3.521   4.865  0.00  0.00    -0.439 OA
ATOM     12 BR   UNL     1      -0.539  -9.271   5.611  0.00  0.00    -0.050 Br
ATOM     13  H   UNL     1      -0.650  -0.838   4.986  0.00  0.00    +0.169 HD
ENDROOT
BRANCH   1  18
ATOM     14  C   UNL     1       0.755  -0.487   1.232  0.00  0.00    -0.046 A 
ATOM     15  C   UNL     1       2.126  -0.679   1.200  0.00  0.00    +0.004 A 
ATOM     16  C   UNL     1       2.794  -1.135   2.323  0.00  0.00    +0.002 A 
ATOM     17  C   UNL     1       2.097  -1.399   3.484  0.00  0.00    +0.026 A 
ATOM     18  C   UNL     1       0.714  -1.206   3.524  0.00  0.00    +0.042 A 
ATOM     19  C   UNL     1       0.047  -0.742   2.387  0.00  0.00    +0.029 A 
BRANCH  14  21
ATOM     20  C   UNL     1       0.002   1.539   0.016  0.00  0.00    +0.009 C 
ATOM     21  C   UNL     1       0.037   0.009   0.004  0.00  0.00    +0.032 C 
ENDBRANCH  14  21
ENDBRANCH   1  18
BRANCH   3  22
ATOM     22  C   UNL     1      -0.826  -1.704   7.516  0.00  0.00    +0.249 C 
ATOM     23  O   UNL     1      -0.735  -0.556   7.122  0.00  0.00    -0.270 OA
ATOM     24  N   UNL     1      -1.324  -1.958   8.743  0.00  0.00    -0.309 N 
ATOM     25  H   UNL     1      -1.327  -2.865   9.086  0.00  0.00    +0.149 HD
BRANCH  24  26
ATOM     26  C   UNL     1      -1.859  -0.864   9.557  0.00  0.00    +0.136 C 
BRANCH  26  27
ATOM     27  C   UNL     1      -2.355  -1.419  10.894  0.00  0.00    +0.135 C 
ATOM     28  C   UNL     1      -2.958  -0.282  11.757  0.00  0.00    +0.035 C 
ATOM     29  C   UNL     1      -3.924  -1.086  12.669  0.00  0.00    +0.031 C 
ATOM     30  C   UNL     1      -4.404  -2.211  11.728  0.00  0.00    +0.160 C 
ATOM     31  O   UNL     1      -3.435  -2.342  10.680  0.00  0.00    -0.375 OA
ENDBRANCH  26  27
ENDBRANCH  24  26
ENDBRANCH   3  22
TORSDOF 5
