REMARK  Name = ZINC03467646
REMARK  6 active torsions:
REMARK  status: ('A' for Active; 'I' for Inactive)
REMARK    1  A    between atoms: C_1  and  C_2
REMARK    2  A    between atoms: C_3  and  C_18
REMARK    3  A    between atoms: C_11  and  C_12
REMARK    4  A    between atoms: C_18  and  O_20
REMARK    5  A    between atoms: O_20  and  C_21
REMARK    6  A    between atoms: C_21  and  C_22
REMARK                            x       y       z     vdW  Elec       q    Type
REMARK                         _______ _______ _______ _____ _____    ______ ____
ROOT
ATOM      1  C   UNL     1      -0.013   1.086   0.008  0.00  0.00    +0.047 C 
ATOM      2  C   UNL     1      -0.718   1.572   1.248  0.00  0.00    -0.010 A 
ATOM      3  C   UNL     1      -2.089   1.792   1.233  0.00  0.00    +0.073 A 
ATOM      4  C   UNL     1      -2.707   2.260   2.474  0.00  0.00    +0.015 A 
ATOM      5  C   UNL     1      -4.081   2.506   2.559  0.00  0.00    +0.011 A 
ATOM      6  C   UNL     1      -4.615   2.946   3.734  0.00  0.00    +0.001 A 
ATOM      7  C   UNL     1      -3.809   3.154   4.851  0.00  0.00    +0.002 A 
ATOM      8  C   UNL     1      -2.469   2.924   4.803  0.00  0.00    +0.028 A 
ATOM      9  C   UNL     1      -1.881   2.469   3.608  0.00  0.00    +0.072 A 
ATOM     10  N   UNL     1      -0.571   2.236   3.531  0.00  0.00    -0.246 NA
ATOM     11  C   UNL     1       0.005   1.811   2.426  0.00  0.00    +0.075 A 
ENDROOT
BRANCH  11  12
ATOM     12  C   UNL     1       1.469   1.577   2.427  0.00  0.00    +0.001 A 
ATOM     13  C   UNL     1       2.011   0.529   1.683  0.00  0.00    +0.010 A 
ATOM     14  C   UNL     1       3.374   0.319   1.683  0.00  0.00    +0.001 A 
ATOM     15  C   UNL     1       4.203   1.138   2.429  0.00  0.00    +0.000 A 
ATOM     16  C   UNL     1       3.671   2.175   3.174  0.00  0.00    +0.001 A 
ATOM     17  C   UNL     1       2.309   2.399   3.176  0.00  0.00    +0.010 A 
ENDBRANCH  11  12
BRANCH   3  18
ATOM     18  C   UNL     1      -2.892   1.560   0.014  0.00  0.00    +0.341 C 
ATOM     19  O   UNL     1      -3.385   0.469  -0.189  0.00  0.00    -0.245 OA
BRANCH  18  20
ATOM     20  O   UNL     1      -3.076   2.558  -0.871  0.00  0.00    -0.452 OA
BRANCH  20  21
ATOM     21  C   UNL     1      -3.876   2.259  -2.045  0.00  0.00    +0.328 C 
BRANCH  21  22
ATOM     22  C   UNL     1      -3.973   3.486  -2.914  0.00  0.00    +0.258 C 
ATOM     23  O   UNL     1      -3.422   4.513  -2.577  0.00  0.00    -0.272 OA
ATOM     24  N   UNL     1      -4.671   3.444  -4.066  0.00  0.00    -0.238 N 
ATOM     25  C   UNL     1      -4.758   4.542  -4.843  0.00  0.00    +0.303 C 
ATOM     26  O   UNL     1      -4.206   5.570  -4.505  0.00  0.00    -0.253 OA
ATOM     27  N   UNL     1      -5.456   4.499  -5.995  0.00  0.00    -0.313 N 
ATOM     28  H   UNL     1      -5.112   2.623  -4.336  0.00  0.00    +0.159 HD
ATOM     29  H   UNL     1      -5.897   3.678  -6.264  0.00  0.00    +0.146 HD
ATOM     30  H   UNL     1      -5.518   5.289  -6.554  0.00  0.00    +0.146 HD
ENDBRANCH  21  22
ENDBRANCH  20  21
ENDBRANCH  18  20
ENDBRANCH   3  18
TORSDOF 5
