REMARK  Name = ZINC57796844
REMARK  5 active torsions:
REMARK  status: ('A' for Active; 'I' for Inactive)
REMARK    1  A    between atoms: C_1  and  C_2
REMARK    2  A    between atoms: C_3  and  C_12
REMARK    3  A    between atoms: C_12  and  N_13
REMARK    4  A    between atoms: C_20  and  C_24
REMARK    5  A    between atoms: C_20  and  O_31
REMARK                            x       y       z     vdW  Elec       q    Type
REMARK                         _______ _______ _______ _____ _____    ______ ____
ROOT
ATOM      1  N   UNL     1      -2.957  -0.063  -1.501  0.00  0.00    +0.383 N 
ATOM      2  C   UNL     1      -3.500  -1.294  -2.133  0.00  0.00    -0.075 C 
ATOM      3  C   UNL     1      -4.930  -0.959  -2.535  0.00  0.00    -0.023 C 
ATOM      4  C   UNL     1      -5.955  -2.071  -2.454  0.00  0.00    +0.002 C 
ATOM      5  C   UNL     1      -7.306  -1.472  -2.880  0.00  0.00    +0.003 C 
ATOM      6  C   UNL     1      -7.691  -0.279  -2.011  0.00  0.00    +0.040 C 
ATOM      7  C   UNL     1      -6.580   0.785  -1.981  0.00  0.00    +0.092 C 
ATOM      8  C   UNL     1      -5.322   0.111  -1.477  0.00  0.00    +0.010 C 
ATOM      9  C   UNL     1      -4.045   0.955  -1.449  0.00  0.00    -0.072 C 
ATOM     10  H   UNL     1      -2.188   0.289  -2.050  0.00  0.00    -0.081 HD
ENDROOT
BRANCH   7  11
ATOM     11  C   UNL     1      -6.344   1.321  -3.369  0.00  0.00    -0.016 A 
ATOM     12  C   UNL     1      -7.085   0.837  -4.432  0.00  0.00    +0.009 A 
ATOM     13  C   UNL     1      -6.869   1.329  -5.705  0.00  0.00    +0.039 A 
ATOM     14  C   UNL     1      -5.911   2.305  -5.917  0.00  0.00    +0.123 A 
ATOM     15  C   UNL     1      -5.169   2.789  -4.852  0.00  0.00    +0.039 A 
ATOM     16  C   UNL     1      -5.391   2.300  -3.579  0.00  0.00    +0.009 A 
ATOM     17  F   UNL     1      -5.699   2.786  -7.162  0.00  0.00    -0.205 F 
ENDBRANCH   7  11
BRANCH   7  18
ATOM     18  O   UNL     1      -6.949   1.849  -1.102  0.00  0.00    -0.384 OA
ATOM     19  H   UNL     1      -7.765   2.303  -1.354  0.00  0.00    +0.211 HD
ENDBRANCH   7  18
BRANCH   1  20
ATOM     20  C   UNL     1      -2.498  -0.366  -0.139  0.00  0.00    -0.036 C 
BRANCH  20  23
ATOM     21  C   UNL     1      -2.607  -3.037   0.908  0.00  0.00    +0.064 C 
ATOM     22  C   UNL     1      -1.336  -2.517   0.287  0.00  0.00    +0.024 A 
ATOM     23  C   UNL     1      -1.287  -1.260  -0.205  0.00  0.00    +0.019 A 
ATOM     24  C   UNL     1      -0.081  -0.794  -0.783  0.00  0.00    +0.256 A 
ATOM     25  O   UNL     1      -0.012   0.336  -1.233  0.00  0.00    -0.267 OA
ATOM     26  N   UNL     1       0.989  -1.612  -0.831  0.00  0.00    -0.275 N 
ATOM     27  H   UNL     1       1.819  -1.300  -1.226  0.00  0.00    +0.173 HD
ATOM     28  C   UNL     1       0.912  -2.861  -0.334  0.00  0.00    +0.327 A 
ATOM     29  O   UNL     1       1.885  -3.587  -0.384  0.00  0.00    -0.247 OA
ATOM     30  N   UNL     1      -0.226  -3.314   0.223  0.00  0.00    -0.312 N 
ATOM     31  H   UNL     1      -0.261  -4.215   0.580  0.00  0.00    +0.170 HD
ENDBRANCH  20  23
ENDBRANCH   1  20
TORSDOF 4
