REMARK  Name = ZINC06245695
REMARK  6 active torsions:
REMARK  status: ('A' for Active; 'I' for Inactive)
REMARK    1  A    between atoms: C_1  and  C_2
REMARK    2  A    between atoms: C_5  and  C_8
REMARK    3  A    between atoms: C_19  and  C_21
REMARK    4  A    between atoms: C_24  and  N_27
REMARK    5  A    between atoms: N_27  and  C_28
REMARK    6  A    between atoms: N_27  and  C_29
REMARK                            x       y       z     vdW  Elec       q    Type
REMARK                         _______ _______ _______ _____ _____    ______ ____
ROOT
ATOM      1  C   UNL     1      -0.017  -4.164  -0.239  0.00  0.00    +0.163 C 
ATOM      2  C   UNL     1       1.402  -4.654  -0.057  0.00  0.00    +0.028 C 
ATOM      3  C   UNL     1       1.677  -5.412   1.025  0.00  0.00    +0.083 C 
ATOM      4  C   UNL     1       3.072  -5.895   1.187  0.00  0.00    +0.044 A 
ATOM      5  C   UNL     1       3.528  -6.399   2.397  0.00  0.00    +0.033 A 
ATOM      6  C   UNL     1       4.836  -6.835   2.505  0.00  0.00    +0.042 A 
ATOM      7  C   UNL     1       5.685  -6.769   1.413  0.00  0.00    +0.023 A 
ATOM      8  C   UNL     1       5.236  -6.269   0.204  0.00  0.00    +0.048 A 
ATOM      9  C   UNL     1       3.929  -5.831   0.082  0.00  0.00    +0.131 A 
ATOM     10  O   UNL     1       3.461  -5.343  -1.095  0.00  0.00    -0.479 OA
ATOM     11  C   UNL     1       2.482  -4.304  -1.039  0.00  0.00    +0.234 C 
ATOM     12 CL   UNL     1       5.416  -7.468   4.014  0.00  0.00    -0.084 Cl
ATOM     13  N   UNL     1       0.717  -5.723   1.929  0.00  0.00    -0.216 NA
ATOM     14  C   UNL     1      -0.536  -5.335   1.839  0.00  0.00    +0.209 C 
ATOM     15  N   UNL     1      -0.973  -4.566   0.804  0.00  0.00    -0.182 N 
ATOM     16  N   UNL     1      -2.334  -4.329   1.000  0.00  0.00    -0.169 NA
ATOM     17  C   UNL     1      -2.697  -4.917   2.095  0.00  0.00    +0.208 C 
ATOM     18  N   UNL     1      -1.623  -5.553   2.644  0.00  0.00    -0.275 N 
ATOM     19  H   UNL     1      -1.627  -6.067   3.467  0.00  0.00    +0.156 HD
ENDROOT
BRANCH   1  24
ATOM     20  C   UNL     1       0.079   1.609  -0.463  0.00  0.00    +0.044 C 
ATOM     21  C   UNL     1       0.054   0.103  -0.405  0.00  0.00    -0.050 A 
ATOM     22  C   UNL     1      -0.067  -0.632  -1.569  0.00  0.00    +0.004 A 
ATOM     23  C   UNL     1      -0.089  -2.013  -1.516  0.00  0.00    +0.006 A 
ATOM     24  C   UNL     1       0.009  -2.659  -0.297  0.00  0.00    -0.021 A 
ATOM     25  C   UNL     1       0.130  -1.924   0.867  0.00  0.00    +0.006 A 
ATOM     26  C   UNL     1       0.157  -0.543   0.813  0.00  0.00    +0.004 A 
ENDBRANCH   1  24
BRANCH  11  27
ATOM     27  C   UNL     1       3.143  -3.018  -0.615  0.00  0.00    -0.003 A 
ATOM     28  C   UNL     1       3.959  -2.997   0.501  0.00  0.00    +0.009 A 
ATOM     29  C   UNL     1       4.567  -1.820   0.892  0.00  0.00    +0.023 A 
ATOM     30  C   UNL     1       4.357  -0.656   0.163  0.00  0.00    +0.029 A 
ATOM     31  C   UNL     1       3.537  -0.680  -0.958  0.00  0.00    +0.023 A 
ATOM     32  C   UNL     1       2.937  -1.862  -1.347  0.00  0.00    +0.009 A 
BRANCH  30  33
ATOM     33  N   UNL     1       4.970   0.536   0.556  0.00  0.00    -0.336 N 
ATOM     34  C   UNL     1       5.835   0.560   1.738  0.00  0.00    +0.129 C 
ATOM     35  C   UNL     1       4.748   1.762  -0.214  0.00  0.00    +0.129 C 
ENDBRANCH  30  33
ENDBRANCH  11  27
TORSDOF 3
