REMARK  Name = ZINC11461700
REMARK  10 active torsions:
REMARK  status: ('A' for Active; 'I' for Inactive)
REMARK    1  A    between atoms: C_1  and  C_2
REMARK    2  A    between atoms: C_2  and  C_3
REMARK    3  A    between atoms: C_2  and  C_4
REMARK    4  A    between atoms: C_4  and  N_5
REMARK    5  A    between atoms: C_6  and  C_8
REMARK    6  A    between atoms: C_13  and  N_14
REMARK    7  A    between atoms: C_15  and  C_17
REMARK    8  A    between atoms: C_17  and  O_18
REMARK    9  A    between atoms: O_18  and  C_19
REMARK   10  A    between atoms: C_19  and  C_21
REMARK                            x       y       z     vdW  Elec       q    Type
REMARK                         _______ _______ _______ _____ _____    ______ ____
ROOT
ATOM      1  N   UNL     1      -5.907  -1.442  -2.005  0.00  0.00    -0.282 N 
ATOM      2  C   UNL     1      -7.116  -1.978  -2.264  0.00  0.00    +0.255 C 
ATOM      3  O   UNL     1      -7.612  -1.856  -3.364  0.00  0.00    -0.272 OA
ATOM      4  H   UNL     1      -5.484  -1.590  -1.145  0.00  0.00    +0.155 HD
ENDROOT
BRANCH   1  10
ATOM      5  C   UNL     1      -4.394   0.357  -2.592  0.00  0.00    +0.058 A 
ATOM      6  C   UNL     1      -3.752   1.117  -3.573  0.00  0.00    +0.015 A 
ATOM      7  C   UNL     1      -3.981   0.852  -4.906  0.00  0.00    +0.001 A 
ATOM      8  C   UNL     1      -4.846  -0.164  -5.280  0.00  0.00    +0.002 A 
ATOM      9  C   UNL     1      -5.488  -0.922  -4.322  0.00  0.00    +0.024 A 
ATOM     10  C   UNL     1      -5.265  -0.674  -2.974  0.00  0.00    +0.046 A 
BRANCH   5  12
ATOM     11  N   UNL     1      -3.215   1.531  -0.800  0.00  0.00    -0.311 N 
ATOM     12  C   UNL     1      -4.153   0.634  -1.163  0.00  0.00    +0.246 C 
ATOM     13  O   UNL     1      -4.801   0.054  -0.314  0.00  0.00    -0.270 OA
ATOM     14  H   UNL     1      -2.698   1.995  -1.478  0.00  0.00    +0.149 HD
BRANCH  11  15
ATOM     15  C   UNL     1      -2.976   1.807   0.619  0.00  0.00    +0.107 C 
BRANCH  15  17
ATOM     16  C   UNL     1      -2.347   4.181   0.161  0.00  0.00    +0.009 C 
ATOM     17  C   UNL     1      -1.869   2.854   0.756  0.00  0.00    -0.000 C 
ATOM     18  C   UNL     1      -1.533   3.051   2.235  0.00  0.00    +0.009 C 
ENDBRANCH  15  17
ENDBRANCH  11  15
ENDBRANCH   5  12
ENDBRANCH   1  10
BRANCH   2  19
ATOM     19  C   UNL     1      -7.853  -2.730  -1.185  0.00  0.00    +0.328 C 
BRANCH  19  20
ATOM     20  O   UNL     1      -9.101  -3.199  -1.699  0.00  0.00    -0.452 OA
BRANCH  20  21
ATOM     21  C   UNL     1      -9.886  -3.896  -0.856  0.00  0.00    +0.340 C 
ATOM     22  O   UNL     1      -9.522  -4.100   0.284  0.00  0.00    -0.245 OA
BRANCH  21  23
ATOM     23  C   UNL     1     -11.196  -4.413  -1.319  0.00  0.00    +0.073 A 
ATOM     24  C   UNL     1     -11.944  -5.233  -0.523  0.00  0.00    +0.085 A 
ATOM     25  C   UNL     1     -13.231  -5.728  -1.008  0.00  0.00    +0.250 A 
ATOM     26  O   UNL     1     -13.899  -6.459  -0.299  0.00  0.00    -0.268 OA
ATOM     27  N   UNL     1     -13.689  -5.387  -2.225  0.00  0.00    -0.322 N 
ATOM     28  H   UNL     1     -14.546  -5.728  -2.523  0.00  0.00    +0.169 HD
ATOM     29  C   UNL     1     -12.964  -4.561  -3.059  0.00  0.00    +0.050 A 
ATOM     30  C   UNL     1     -11.722  -4.051  -2.644  0.00  0.00    +0.012 A 
ATOM     31  C   UNL     1     -10.996  -3.210  -3.494  0.00  0.00    +0.011 A 
ATOM     32  C   UNL     1     -11.501  -2.884  -4.721  0.00  0.00    +0.001 A 
ATOM     33  C   UNL     1     -12.730  -3.381  -5.132  0.00  0.00    +0.002 A 
ATOM     34  C   UNL     1     -13.457  -4.220  -4.316  0.00  0.00    +0.026 A 
ENDBRANCH  21  23
ENDBRANCH  20  21
ENDBRANCH  19  20
ENDBRANCH   2  19
TORSDOF 8
