REMARK  Name = ZINC11933804
REMARK  11 active torsions:
REMARK  status: ('A' for Active; 'I' for Inactive)
REMARK    1  A    between atoms: C_1  and  C_2
REMARK    2  A    between atoms: C_2  and  N_70
REMARK    3  A    between atoms: C_6  and  C_8
REMARK    4  A    between atoms: C_8  and  N_9
REMARK    5  A    between atoms: C_10  and  C_12
REMARK    6  A    between atoms: C_12  and  C_13
REMARK    7  A    between atoms: C_13  and  C_14
REMARK    8  A    between atoms: C_19  and  C_20
REMARK    9  A    between atoms: C_19  and  N_72
REMARK   10  A    between atoms: C_26  and  O_30
REMARK   11  A    between atoms: O_30  and  C_31
REMARK                            x       y       z     vdW  Elec       q    Type
REMARK                         _______ _______ _______ _____ _____    ______ ____
ROOT
ATOM      1  C   UNL     1       4.138   7.267  -3.612  0.00  0.00    -0.014 C 
ATOM      2  C   UNL     1       3.943   8.196  -2.411  0.00  0.00    -0.015 C 
ATOM      3  C   UNL     1       3.677   7.356  -1.160  0.00  0.00    -0.078 C 
ATOM      4  C   UNL     1       2.659   5.601  -2.485  0.00  0.00    -0.078 C 
ATOM      5  C   UNL     1       2.895   6.388  -3.776  0.00  0.00    -0.015 C 
ATOM      6  N   UNL     1       2.454   6.552  -1.373  0.00  0.00    +0.382 N 
ATOM      7  H   UNL     1       1.679   7.182  -1.612  0.00  0.00    -0.081 HD
ENDROOT
BRANCH   1   8
ATOM      8  C   UNL     1       4.344   8.102  -4.877  0.00  0.00    +0.012 C 
BRANCH   8   9
ATOM      9  C   UNL     1       4.663   7.177  -6.053  0.00  0.00    +0.096 C 
BRANCH   9  11
ATOM     10  N   UNL     1       5.159   7.394  -8.467  0.00  0.00    -0.317 N 
ATOM     11  C   UNL     1       4.866   8.000  -7.299  0.00  0.00    +0.213 C 
ATOM     12  O   UNL     1       4.765   9.207  -7.252  0.00  0.00    -0.276 OA
ATOM     13  H   UNL     1       5.240   6.428  -8.505  0.00  0.00    +0.149 HD
BRANCH  10  14
ATOM     14  C   UNL     1       5.356   8.194  -9.678  0.00  0.00    +0.089 C 
BRANCH  14  18
ATOM     15  C   UNL     1       7.939   6.575 -11.697  0.00  0.00    -0.078 C 
ATOM     16  C   UNL     1       7.120   7.211 -12.841  0.00  0.00    -0.020 C 
ATOM     17  C   UNL     1       6.118   8.124 -12.088  0.00  0.00    -0.016 C 
ATOM     18  C   UNL     1       5.824   7.287 -10.818  0.00  0.00    -0.051 C 
ATOM     19  N   UNL     1       7.123   6.673 -10.475  0.00  0.00    +0.382 N 
ATOM     20  H   UNL     1       7.608   7.264  -9.790  0.00  0.00    -0.081 HD
BRANCH  19  22
ATOM     21  C   UNL     1       8.269   4.654  -9.662  0.00  0.00    -0.017 C 
ATOM     22  C   UNL     1       6.913   5.324  -9.890  0.00  0.00    -0.082 C 
ENDBRANCH  19  22
ENDBRANCH  14  18
ENDBRANCH  10  14
ENDBRANCH   9  11
ENDBRANCH   8   9
ENDBRANCH   1   8
BRANCH   6  23
ATOM     23  C   UNL     1       2.112   5.818  -0.137  0.00  0.00    -0.044 C 
BRANCH  23  24
ATOM     24  C   UNL     1       0.755   5.186  -0.308  0.00  0.00    -0.049 C 
ATOM     25  C   UNL     1       0.657   3.919  -0.698  0.00  0.00    +0.012 C 
ATOM     26  C   UNL     1      -0.692   3.345  -0.888  0.00  0.00    +0.020 A 
ATOM     27  C   UNL     1      -0.890   1.974  -1.010  0.00  0.00    +0.012 A 
ATOM     28  C   UNL     1      -2.167   1.479  -1.183  0.00  0.00    +0.004 A 
ATOM     29  C   UNL     1      -3.248   2.341  -1.246  0.00  0.00    +0.049 A 
ATOM     30  C   UNL     1      -3.062   3.711  -1.132  0.00  0.00    +0.162 A 
ATOM     31  C   UNL     1      -1.783   4.220  -0.962  0.00  0.00    +0.169 A 
ATOM     32  O   UNL     1      -1.563   5.558  -0.872  0.00  0.00    -0.484 OA
ATOM     33  C   UNL     1      -0.489   5.992  -0.038  0.00  0.00    +0.258 C 
BRANCH  30  34
ATOM     34  O   UNL     1      -4.129   4.552  -1.192  0.00  0.00    -0.491 OA
ATOM     35  C   UNL     1      -5.416   3.956  -1.369  0.00  0.00    +0.277 C 
ENDBRANCH  30  34
ENDBRANCH  23  24
ENDBRANCH   6  23
TORSDOF 9
