REMARK  Name = ZINC13540103
REMARK  8 active torsions:
REMARK  status: ('A' for Active; 'I' for Inactive)
REMARK    1  A    between atoms: C_1  and  C_2
REMARK    2  A    between atoms: C_5  and  C_8
REMARK    3  A    between atoms: N_12  and  C_16
REMARK    4  A    between atoms: C_16  and  C_17
REMARK    5  A    between atoms: C_17  and  C_18
REMARK    6  A    between atoms: N_20  and  C_21
REMARK    7  A    between atoms: C_24  and  C_28
REMARK    8  A    between atoms: C_25  and  O_27
REMARK                            x       y       z     vdW  Elec       q    Type
REMARK                         _______ _______ _______ _____ _____    ______ ____
ROOT
ATOM      1  C   UNL     1       1.713   1.431  -1.105  0.00  0.00    +0.124 C 
ENDROOT
BRANCH   1   6
ATOM      2  C   UNL     1      -0.447   4.088  -4.696  0.00  0.00    +0.028 C 
ATOM      3  C   UNL     1      -0.239   3.024  -3.881  0.00  0.00    +0.077 C 
ATOM      4  C   UNL     1       0.769   2.836  -2.816  0.00  0.00    +0.258 C 
ATOM      5  O   UNL     1       1.583   3.699  -2.545  0.00  0.00    -0.269 OA
ATOM      6  N   UNL     1       0.740   1.681  -2.172  0.00  0.00    -0.255 N 
ATOM      7  C   UNL     1      -0.161   0.725  -2.478  0.00  0.00    +0.121 C 
ATOM      8  S   UNL     1      -0.351  -0.822  -1.770  0.00  0.00    -0.027 S 
ATOM      9  S   UNL     1      -1.109   1.465  -3.798  0.00  0.00    -0.061 S 
BRANCH   2  14
ATOM     10  C   UNL     1      -4.146   3.673  -9.075  0.00  0.00    +0.044 C 
ATOM     11  C   UNL     1      -3.176   3.782  -7.927  0.00  0.00    -0.050 A 
ATOM     12  C   UNL     1      -2.638   5.013  -7.595  0.00  0.00    +0.004 A 
ATOM     13  C   UNL     1      -1.750   5.121  -6.546  0.00  0.00    +0.008 A 
ATOM     14  C   UNL     1      -1.393   3.982  -5.816  0.00  0.00    -0.024 A 
ATOM     15  C   UNL     1      -1.938   2.740  -6.161  0.00  0.00    +0.008 A 
ATOM     16  C   UNL     1      -2.829   2.650  -7.209  0.00  0.00    +0.004 A 
ENDBRANCH   2  14
ENDBRANCH   1   6
BRANCH   1  17
ATOM     17  C   UNL     1       1.138   1.906   0.231  0.00  0.00    +0.115 C 
BRANCH  17  18
ATOM     18  C   UNL     1       2.139   1.649   1.328  0.00  0.00    +0.219 C 
ATOM     19  O   UNL     1       3.207   1.138   1.066  0.00  0.00    -0.275 OA
ATOM     20  N   UNL     1       1.848   1.988   2.599  0.00  0.00    -0.285 N 
ATOM     21  H   UNL     1       0.965   2.323   2.821  0.00  0.00    +0.155 HD
BRANCH  20  22
ATOM     22  C   UNL     1       2.815   1.859   3.595  0.00  0.00    +0.037 A 
ATOM     23  C   UNL     1       4.163   2.003   3.275  0.00  0.00    +0.024 A 
ATOM     24  C   UNL     1       5.119   1.879   4.242  0.00  0.00    +0.020 A 
ATOM     25  C   UNL     1       4.749   1.605   5.563  0.00  0.00    +0.105 A 
ATOM     26  C   UNL     1       3.392   1.458   5.890  0.00  0.00    +0.133 A 
ATOM     27  C   UNL     1       2.431   1.593   4.902  0.00  0.00    +0.069 A 
BRANCH  25  28
ATOM     28  C   UNL     1       5.779   1.470   6.605  0.00  0.00    +0.390 C 
ATOM     29  O   UNL     1       5.454   1.231   7.752  0.00  0.00    -0.240 OA
ATOM     30  O   UNL     1       7.081   1.611   6.288  0.00  0.00    -0.240 OA
ENDBRANCH  25  28
BRANCH  26  31
ATOM     31  O   UNL     1       3.023   1.191   7.168  0.00  0.00    -0.506 OA
ATOM     32  H   UNL     1       2.862   1.980   7.703  0.00  0.00    +0.292 HD
ENDBRANCH  26  31
ENDBRANCH  20  22
ENDBRANCH  17  18
ENDBRANCH   1  17
TORSDOF 7
