REMARK  Name = ZINC55704798
REMARK  10 active torsions:
REMARK  status: ('A' for Active; 'I' for Inactive)
REMARK    1  A    between atoms: C_1  and  C_2
REMARK    2  A    between atoms: C_2  and  C_3
REMARK    3  A    between atoms: C_3  and  N_4
REMARK    4  A    between atoms: C_8  and  C_9
REMARK    5  A    between atoms: C_13  and  N_15
REMARK    6  A    between atoms: C_20  and  C_21
REMARK    7  A    between atoms: C_20  and  C_23
REMARK    8  A    between atoms: C_23  and  C_25
REMARK    9  A    between atoms: C_25  and  C_26
REMARK   10  A    between atoms: C_25  and  C_27
REMARK                            x       y       z     vdW  Elec       q    Type
REMARK                         _______ _______ _______ _____ _____    ______ ____
ROOT
ATOM      1  N   UNL     1       1.319  -2.237   2.301  0.00  0.00    -0.301 N 
ATOM      2  C   UNL     1       0.133  -2.813   2.436  0.00  0.00    +0.266 A 
ATOM      3  O   UNL     1      -0.901  -2.179   2.540  0.00  0.00    -0.266 OA
ATOM      4  C   UNL     1       0.173  -4.290   2.447  0.00  0.00    +0.079 A 
ATOM      5  C   UNL     1      -0.845  -5.180   2.567  0.00  0.00    +0.028 C 
ATOM      6  S   UNL     1       1.923  -4.585   2.261  0.00  0.00    -0.065 S 
ATOM      7  C   UNL     1       2.449  -2.991   2.182  0.00  0.00    +0.105 A 
ATOM      8  C   UNL     1       3.767  -2.535   2.029  0.00  0.00    +0.125 C 
ENDROOT
BRANCH   5   9
ATOM      9  C   UNL     1      -0.554  -6.609   2.742  0.00  0.00    -0.022 A 
ATOM     10  C   UNL     1       0.763  -7.040   2.945  0.00  0.00    +0.008 A 
ATOM     11  C   UNL     1       1.027  -8.383   3.108  0.00  0.00    +0.003 A 
ATOM     12  C   UNL     1      -0.005  -9.305   3.073  0.00  0.00    +0.033 A 
ATOM     13  C   UNL     1      -1.310  -8.888   2.872  0.00  0.00    +0.127 A 
ATOM     14  C   UNL     1      -1.592  -7.547   2.714  0.00  0.00    +0.040 A 
BRANCH  13  15
ATOM     15  N   UNL     1      -2.405  -9.882   2.835  0.00  0.00    +0.056 N 
ATOM     16  O   UNL     1      -2.160 -11.057   2.979  0.00  0.00    -0.126 OA
ATOM     17  O   UNL     1      -3.545  -9.520   2.660  0.00  0.00    -0.126 OA
ENDBRANCH  13  15
ENDBRANCH   5   9
BRANCH   8  18
ATOM     18  C   UNL     1       4.055  -1.136   2.120  0.00  0.00    +0.105 C 
ATOM     19  N   UNL     1       4.284  -0.025   2.192  0.00  0.00    -0.191 NA
ENDBRANCH   8  18
BRANCH   8  20
ATOM     20  C   UNL     1       4.805  -3.453   1.786  0.00  0.00    +0.178 C 
ATOM     21  O   UNL     1       4.561  -4.641   1.709  0.00  0.00    -0.291 OA
BRANCH  20  22
ATOM     22  C   UNL     1       6.221  -2.963   1.621  0.00  0.00    +0.055 C 
ATOM     23  C   UNL     1       6.912  -2.933   2.985  0.00  0.00    +0.015 C 
ATOM     24  C   UNL     1       6.981  -3.905   0.685  0.00  0.00    +0.015 C 
ENDBRANCH  20  22
ENDBRANCH   8  20
BRANCH   1  25
ATOM     25  C   UNL     1       1.418  -0.775   2.275  0.00  0.00    +0.126 C 
BRANCH  25  27
ATOM     26  C   UNL     1       1.751   1.273   3.666  0.00  0.00    +0.005 C 
ATOM     27  C   UNL     1       1.648  -0.254   3.694  0.00  0.00    +0.018 C 
ENDBRANCH  25  27
ENDBRANCH   1  25
TORSDOF 7
