REMARK  Name = ZINC14477847
REMARK  8 active torsions:
REMARK  status: ('A' for Active; 'I' for Inactive)
REMARK    1  A    between atoms: C_1  and  C_2
REMARK    2  A    between atoms: C_2  and  C_3
REMARK    3  A    between atoms: C_3  and  N_4
REMARK    4  A    between atoms: N_4  and  C_5
REMARK    5  A    between atoms: C_5  and  C_6
REMARK    6  A    between atoms: C_6  and  C_7
REMARK    7  A    between atoms: C_8  and  C_10
REMARK    8  A    between atoms: C_23  and  C_26
REMARK                            x       y       z     vdW  Elec       q    Type
REMARK                         _______ _______ _______ _____ _____    ______ ____
ROOT
ATOM      1  C   UNL     1      -4.674  -0.901  -0.247  0.00  0.00    +0.037 A 
ATOM      2  C   UNL     1      -3.976  -1.995  -0.768  0.00  0.00    +0.015 A 
ATOM      3  C   UNL     1      -2.832  -1.783  -1.502  0.00  0.00    +0.024 A 
ATOM      4  C   UNL     1      -2.373  -0.486  -1.724  0.00  0.00    +0.031 A 
ATOM      5  C   UNL     1      -3.056   0.606  -1.210  0.00  0.00    -0.019 A 
ATOM      6  C   UNL     1      -4.208   0.395  -0.472  0.00  0.00    +0.019 A 
ATOM      7  C   UNL     1      -2.602   2.026  -1.417  0.00  0.00    +0.049 C 
ATOM      8  C   UNL     1      -2.354   2.631  -0.042  0.00  0.00    -0.023 C 
ATOM      9  C   UNL     1      -1.080   2.558   0.271  0.00  0.00    -0.030 C 
ATOM     10  C   UNL     1      -0.301   1.897  -0.853  0.00  0.00    +0.033 C 
ATOM     11  C   UNL     1      -1.216   2.106  -2.083  0.00  0.00    +0.029 C 
ATOM     12  C   UNL     1      -1.000   1.015  -3.114  0.00  0.00    +0.106 C 
ATOM     13  N   UNL     1      -1.213  -0.300  -2.475  0.00  0.00    -0.336 N 
ATOM     14  H   UNL     1      -0.562  -1.012  -2.575  0.00  0.00    +0.147 HD
ENDROOT
BRANCH  12  15
ATOM     15  C   UNL     1      -1.988   1.185  -4.240  0.00  0.00    -0.009 A 
ATOM     16  C   UNL     1      -3.107   0.377  -4.305  0.00  0.00    +0.008 A 
ATOM     17  C   UNL     1      -4.016   0.537  -5.334  0.00  0.00    +0.020 A 
ATOM     18  C   UNL     1      -3.800   1.498  -6.306  0.00  0.00    +0.042 A 
ATOM     19  C   UNL     1      -2.677   2.304  -6.244  0.00  0.00    +0.040 A 
ATOM     20  C   UNL     1      -1.770   2.147  -5.210  0.00  0.00    +0.047 A 
ATOM     21 CL   UNL     1      -0.360   3.157  -5.132  0.00  0.00    -0.083 Cl
ATOM     22 CL   UNL     1      -4.938   1.694  -7.601  0.00  0.00    -0.083 Cl
ENDBRANCH  12  15
BRANCH   1  24
ATOM     23  N   UNL     1      -6.747  -2.114   0.211  0.00  0.00    -0.298 N 
ATOM     24  C   UNL     1      -5.902  -1.117   0.540  0.00  0.00    +0.247 C 
ATOM     25  O   UNL     1      -6.153  -0.395   1.486  0.00  0.00    -0.270 OA
BRANCH  23  26
ATOM     26  C   UNL     1      -8.032  -2.244   0.903  0.00  0.00    +0.108 C 
BRANCH  26  28
ATOM     27  C   UNL     1     -10.410  -1.479   0.950  0.00  0.00    +0.005 C 
ATOM     28  C   UNL     1      -9.068  -1.343   0.228  0.00  0.00    +0.016 C 
ENDBRANCH  26  28
ENDBRANCH  23  26
BRANCH  23  29
ATOM     29  C   UNL     1      -6.381  -3.068  -0.838  0.00  0.00    +0.108 C 
BRANCH  29  30
ATOM     30  C   UNL     1      -5.827  -4.343  -0.198  0.00  0.00    +0.016 C 
ATOM     31  C   UNL     1      -5.311  -5.281  -1.291  0.00  0.00    +0.005 C 
ENDBRANCH  29  30
ENDBRANCH  23  29
ENDBRANCH   1  24
TORSDOF 6
