REMARK  Name = ZINC33423378
REMARK  13 active torsions:
REMARK  status: ('A' for Active; 'I' for Inactive)
REMARK    1  A    between atoms: C_1  and  C_2
REMARK    2  A    between atoms: C_2  and  C_3
REMARK    3  A    between atoms: C_2  and  C_4
REMARK    4  A    between atoms: C_4  and  N_5
REMARK    5  A    between atoms: N_5  and  C_6
REMARK    6  A    between atoms: N_5  and  C_9
REMARK    7  A    between atoms: C_6  and  C_7
REMARK    8  A    between atoms: C_9  and  C_10
REMARK    9  A    between atoms: N_12  and  C_13
REMARK   10  A    between atoms: N_12  and  C_25
REMARK   11  A    between atoms: C_13  and  C_14
REMARK   12  A    between atoms: C_14  and  C_15
REMARK   13  A    between atoms: C_25  and  C_26
REMARK                            x       y       z     vdW  Elec       q    Type
REMARK                         _______ _______ _______ _____ _____    ______ ____
ROOT
ATOM      1  C   UNL     1      -5.029  -0.563  -0.348  0.00  0.00    +0.199 C 
ATOM      2  O   UNL     1      -5.382   0.511   0.091  0.00  0.00    -0.278 OA
ATOM      3  N   UNL     1      -3.722  -0.891  -0.357  0.00  0.00    -0.298 N 
ENDROOT
BRANCH   1   4
ATOM      4  C   UNL     1      -6.052  -1.531  -0.885  0.00  0.00    +0.020 C 
BRANCH   4   5
ATOM      5  N   UNL     1      -7.375  -0.891  -0.893  0.00  0.00    +0.393 N 
ATOM      6  H   UNL     1      -7.559  -0.482   0.111  0.00  0.00    -0.080 HD
BRANCH   5   7
ATOM      7  C   UNL     1      -8.431  -1.869  -1.183  0.00  0.00    -0.074 C 
BRANCH   7   9
ATOM      8  C   UNL     1      -9.213  -1.874   1.190  0.00  0.00    +0.005 C 
ATOM      9  C   UNL     1      -8.672  -2.740   0.052  0.00  0.00    -0.034 C 
ATOM     10  C   UNL     1      -9.689  -3.833  -0.285  0.00  0.00    +0.005 C 
ENDBRANCH   7   9
ENDBRANCH   5   7
BRANCH   5  11
ATOM     11  C   UNL     1      -7.414   0.225  -1.849  0.00  0.00    +0.013 C 
BRANCH  11  12
ATOM     12  C   UNL     1      -8.590   1.066  -1.573  0.00  0.00    -0.124 C 
ATOM     13  C   UNL     1      -9.528   1.737  -1.353  0.00  0.00    +0.002 C 
ENDBRANCH  11  12
ENDBRANCH   5  11
ENDBRANCH   4   5
ENDBRANCH   1   4
BRANCH   3  14
ATOM     14  C   UNL     1      -2.717   0.096   0.045  0.00  0.00    +0.113 C 
BRANCH  14  15
ATOM     15  C   UNL     1      -2.471  -0.010   1.551  0.00  0.00    +0.056 C 
BRANCH  15  16
ATOM     16  C   UNL     1      -1.437   1.005   1.964  0.00  0.00    -0.021 A 
ATOM     17  C   UNL     1      -0.117   0.793   2.095  0.00  0.00    +0.087 A 
ATOM     18  N   UNL     1       0.504   1.947   2.487  0.00  0.00    -0.360 N 
ATOM     19  H   UNL     1       1.592   1.960   2.645  0.00  0.00    +0.165 HD
ATOM     20  C   UNL     1      -0.424   2.956   2.622  0.00  0.00    +0.047 A 
ATOM     21  C   UNL     1      -1.680   2.410   2.300  0.00  0.00    +0.003 A 
ATOM     22  C   UNL     1      -2.822   3.210   2.355  0.00  0.00    +0.010 A 
ATOM     23  C   UNL     1      -2.713   4.525   2.712  0.00  0.00    +0.001 A 
ATOM     24  C   UNL     1      -1.476   5.068   3.030  0.00  0.00    +0.002 A 
ATOM     25  C   UNL     1      -0.337   4.295   2.987  0.00  0.00    +0.026 A 
ENDBRANCH  15  16
ENDBRANCH  14  15
ENDBRANCH   3  14
BRANCH   3  26
ATOM     26  C   UNL     1      -3.307  -2.234  -0.767  0.00  0.00    +0.142 C 
BRANCH  26  27
ATOM     27  C   UNL     1      -2.952  -2.225  -2.232  0.00  0.00    -0.029 A 
ATOM     28  C   UNL     1      -3.883  -2.628  -3.171  0.00  0.00    +0.007 A 
ATOM     29  C   UNL     1      -3.561  -2.614  -4.515  0.00  0.00    +0.022 A 
ATOM     30  C   UNL     1      -2.302  -2.207  -4.920  0.00  0.00    +0.059 A 
ATOM     31  C   UNL     1      -1.367  -1.809  -3.979  0.00  0.00    +0.060 A 
ATOM     32  C   UNL     1      -1.694  -1.818  -2.635  0.00  0.00    +0.026 A 
ATOM     33 CL   UNL     1       0.212  -1.298  -4.486  0.00  0.00    -0.082 Cl
ATOM     34 CL   UNL     1      -1.894  -2.196  -6.608  0.00  0.00    -0.082 Cl
ENDBRANCH  26  27
ENDBRANCH   3  26
TORSDOF 11
