REMARK  Name = ZINC13995248
REMARK  9 active torsions:
REMARK  status: ('A' for Active; 'I' for Inactive)
REMARK    1  A    between atoms: C_1  and  C_2
REMARK    2  A    between atoms: C_9  and  C_18
REMARK    3  A    between atoms: N_11  and  C_12
REMARK    4  A    between atoms: C_19  and  C_22
REMARK    5  A    between atoms: C_24  and  O_31
REMARK    6  A    between atoms: C_25  and  O_30
REMARK    7  A    between atoms: C_26  and  O_28
REMARK    8  A    between atoms: O_28  and  C_29
REMARK    9  A    between atoms: O_31  and  C_32
REMARK                            x       y       z     vdW  Elec       q    Type
REMARK                         _______ _______ _______ _____ _____    ______ ____
ROOT
ATOM      1  C   UNL     1       2.608   1.849   0.761  0.00  0.00    +0.029 C 
ATOM      2  C   UNL     1       1.944   0.483   0.575  0.00  0.00    +0.132 C 
ATOM      3  C   UNL     1       2.280  -0.029  -0.770  0.00  0.00    +0.251 C 
ATOM      4  O   UNL     1       2.625   0.819  -1.572  0.00  0.00    -0.272 OA
ATOM      5  N   UNL     1       2.265  -1.228  -1.222  0.00  0.00    -0.163 NA
ATOM      6  C   UNL     1       2.029  -2.422  -0.738  0.00  0.00    +0.141 C 
ATOM      7  C   UNL     1       1.675  -2.859   0.545  0.00  0.00    +0.027 C 
ATOM      8  C   UNL     1       1.558  -4.217   0.515  0.00  0.00    +0.027 C 
ATOM      9  N   UNL     1       1.820  -4.661  -0.741  0.00  0.00    -0.262 N 
ATOM     10  N   UNL     1       2.108  -3.554  -1.541  0.00  0.00    -0.206 N 
ATOM     11  C   UNL     1       1.196  -5.088   1.691  0.00  0.00    +0.062 C 
ATOM     12  C   UNL     1       1.438  -2.065   1.794  0.00  0.00    +0.112 C 
ATOM     13  S   UNL     1       2.485  -0.608   1.898  0.00  0.00    -0.135 S 
ATOM     14  H   UNL     1       1.810  -5.586  -1.032  0.00  0.00    +0.170 HD
ENDROOT
BRANCH  10  15
ATOM     15  C   UNL     1       2.421  -3.578  -2.903  0.00  0.00    +0.055 A 
ATOM     16  C   UNL     1       3.352  -4.489  -3.387  0.00  0.00    +0.025 A 
ATOM     17  C   UNL     1       3.658  -4.511  -4.734  0.00  0.00    +0.002 A 
ATOM     18  C   UNL     1       3.040  -3.627  -5.599  0.00  0.00    +0.000 A 
ATOM     19  C   UNL     1       2.113  -2.719  -5.121  0.00  0.00    +0.002 A 
ATOM     20  C   UNL     1       1.798  -2.696  -3.776  0.00  0.00    +0.025 A 
ENDBRANCH  10  15
BRANCH  12  21
ATOM     21  C   UNL     1       1.712  -2.943   2.987  0.00  0.00    -0.023 A 
ATOM     22  C   UNL     1       2.972  -3.479   3.175  0.00  0.00    +0.054 A 
ATOM     23  C   UNL     1       3.228  -4.288   4.271  0.00  0.00    +0.165 A 
ATOM     24  C   UNL     1       2.214  -4.560   5.183  0.00  0.00    +0.201 A 
ATOM     25  C   UNL     1       0.949  -4.019   4.991  0.00  0.00    +0.165 A 
ATOM     26  C   UNL     1       0.703  -3.207   3.895  0.00  0.00    +0.054 A 
BRANCH  25  27
ATOM     27  O   UNL     1      -0.046  -4.282   5.880  0.00  0.00    -0.491 OA
ATOM     28  C   UNL     1      -1.322  -3.693   5.620  0.00  0.00    +0.277 C 
ENDBRANCH  25  27
BRANCH  24  29
ATOM     29  O   UNL     1       2.461  -5.354   6.260  0.00  0.00    -0.501 OA
ATOM     30  H   UNL     1       2.765  -4.873   7.042  0.00  0.00    +0.292 HD
ENDBRANCH  24  29
BRANCH  23  31
ATOM     31  O   UNL     1       4.468  -4.815   4.455  0.00  0.00    -0.491 OA
ATOM     32  C   UNL     1       5.460  -4.494   3.478  0.00  0.00    +0.277 C 
ENDBRANCH  23  31
ENDBRANCH  12  21
TORSDOF 5
