REMARK  Name = ZINC04599857
REMARK  5 active torsions:
REMARK  status: ('A' for Active; 'I' for Inactive)
REMARK    1  A    between atoms: C_1  and  C_2
REMARK    2  A    between atoms: C_2  and  C_4
REMARK    3  A    between atoms: C_2  and  O_17
REMARK    4  A    between atoms: N_6  and  C_7
REMARK    5  A    between atoms: O_17  and  C_18
REMARK                            x       y       z     vdW  Elec       q    Type
REMARK                         _______ _______ _______ _____ _____    ______ ____
ROOT
ATOM      1  C   UNL     1       4.707   1.827   0.467  0.00  0.00    +0.254 C 
ATOM      2  O   UNL     1       4.561   0.690   0.863  0.00  0.00    -0.272 OA
ATOM      3  N   UNL     1       5.912   2.423   0.559  0.00  0.00    -0.309 N 
ATOM      4  H   UNL     1       6.029   3.332   0.243  0.00  0.00    +0.149 HD
ENDROOT
BRANCH   3   5
ATOM      5  C   UNL     1       7.046   1.697   1.138  0.00  0.00    +0.079 C 
ATOM      6  C   UNL     1       7.021   1.843   2.661  0.00  0.00    +0.010 C 
ATOM      7  C   UNL     1       8.204   1.085   3.266  0.00  0.00    +0.009 C 
ATOM      8  C   UNL     1       9.512   1.662   2.720  0.00  0.00    -0.010 C 
ATOM      9  C   UNL     1       9.610   3.143   3.092  0.00  0.00    +0.007 C 
ATOM     10  C   UNL     1       8.426   3.901   2.488  0.00  0.00    -0.010 C 
ATOM     11  C   UNL     1       7.119   3.323   3.034  0.00  0.00    +0.009 C 
ATOM     12  C   UNL     1       8.452   3.755   0.965  0.00  0.00    +0.009 C 
ATOM     13  C   UNL     1       8.353   2.275   0.593  0.00  0.00    +0.010 C 
ATOM     14  C   UNL     1       9.537   1.517   1.197  0.00  0.00    +0.009 C 
ENDBRANCH   3   5
BRANCH   1  16
ATOM     15  C   UNL     1       3.819   2.858  -1.606  0.00  0.00    +0.062 C 
ATOM     16  C   UNL     1       3.541   2.573  -0.129  0.00  0.00    +0.256 C 
BRANCH  16  17
ATOM     17  O   UNL     1       2.358   1.781  -0.011  0.00  0.00    -0.478 OA
BRANCH  17  18
ATOM     18  C   UNL     1       1.171   2.443   0.004  0.00  0.00    +0.140 A 
ATOM     19  C   UNL     1       1.137   3.813  -0.207  0.00  0.00    +0.048 A 
ATOM     20  C   UNL     1      -0.070   4.484  -0.191  0.00  0.00    +0.023 A 
ATOM     21  C   UNL     1      -1.246   3.791   0.034  0.00  0.00    +0.043 A 
ATOM     22  C   UNL     1      -1.216   2.423   0.240  0.00  0.00    +0.043 A 
ATOM     23  C   UNL     1      -0.010   1.748   0.231  0.00  0.00    +0.084 A 
ATOM     24 CL   UNL     1       0.029   0.033   0.495  0.00  0.00    -0.080 Cl
ATOM     25 CL   UNL     1      -2.762   4.637   0.053  0.00  0.00    -0.083 Cl
ENDBRANCH  17  18
ENDBRANCH  16  17
ENDBRANCH   1  16
TORSDOF 4
