REMARK  Name = ZINC01578750
REMARK  7 active torsions:
REMARK  status: ('A' for Active; 'I' for Inactive)
REMARK    1  A    between atoms: C_4  and  N_30
REMARK    2  A    between atoms: C_5  and  C_7
REMARK    3  A    between atoms: C_7  and  C_9
REMARK    4  A    between atoms: C_7  and  N_63
REMARK    5  A    between atoms: C_9  and  C_11
REMARK    6  A    between atoms: C_9  and  N_61
REMARK    7  A    between atoms: C_11  and  C_13
REMARK                            x       y       z     vdW  Elec       q    Type
REMARK                         _______ _______ _______ _____ _____    ______ ____
ROOT
ATOM      1  C   UNL     1      -0.769   2.211  -0.882  0.00  0.00    -0.042 C 
ENDROOT
BRANCH   1   7
ATOM      2  C   UNL     1      -1.832   0.091  -1.370  0.00  0.00    -0.078 C 
ATOM      3  C   UNL     1      -1.575  -1.408  -1.538  0.00  0.00    -0.019 C 
ATOM      4  C   UNL     1      -1.116  -1.996  -0.201  0.00  0.00    -0.004 C 
ATOM      5  C   UNL     1       0.141  -1.257   0.267  0.00  0.00    -0.019 C 
ATOM      6  C   UNL     1      -0.165   0.238   0.383  0.00  0.00    -0.078 C 
ATOM      7  N   UNL     1      -0.578   0.748  -0.941  0.00  0.00    +0.384 N 
ATOM      8  H   UNL     1       0.159   0.535  -1.624  0.00  0.00    -0.081 HD
ENDBRANCH   1   7
BRANCH   1  13
ATOM      9  C   UNL     1       2.946   2.846  -1.100  0.00  0.00    +0.000 A 
ATOM     10  C   UNL     1       2.978   4.103  -1.675  0.00  0.00    +0.002 A 
ATOM     11  C   UNL     1       1.798   4.747  -1.993  0.00  0.00    +0.033 A 
ATOM     12  C   UNL     1       0.585   4.133  -1.740  0.00  0.00    +0.128 A 
ATOM     13  C   UNL     1       0.553   2.879  -1.161  0.00  0.00    -0.032 A 
ATOM     14  C   UNL     1       1.734   2.233  -0.844  0.00  0.00    +0.004 A 
BRANCH  12  15
ATOM     15  N   UNL     1      -0.679   4.821  -2.086  0.00  0.00    +0.057 N 
ATOM     16  O   UNL     1      -0.658   5.976  -2.473  0.00  0.00    -0.126 OA
ATOM     17  O   UNL     1      -1.741   4.233  -1.983  0.00  0.00    -0.126 OA
ENDBRANCH  12  15
ENDBRANCH   1  13
BRANCH   1  18
ATOM     18  C   UNL     1      -1.269   2.629   0.503  0.00  0.00    -0.005 C 
BRANCH  18  24
ATOM     19  C   UNL     1      -3.536   2.405  -0.316  0.00  0.00    -0.078 C 
ATOM     20  C   UNL     1      -4.854   1.655  -0.109  0.00  0.00    -0.019 C 
ATOM     21  C   UNL     1      -5.431   2.017   1.262  0.00  0.00    -0.004 C 
ATOM     22  C   UNL     1      -4.408   1.667   2.346  0.00  0.00    -0.019 C 
ATOM     23  C   UNL     1      -3.103   2.416   2.069  0.00  0.00    -0.078 C 
ATOM     24  N   UNL     1      -2.586   2.006   0.745  0.00  0.00    +0.386 N 
ATOM     25  H   UNL     1      -2.480   0.985   0.731  0.00  0.00    -0.081 HD
ENDBRANCH  18  24
BRANCH  18  26
ATOM     26  C   UNL     1      -1.372   4.131   0.567  0.00  0.00    +0.149 C 
ATOM     27  O   UNL     1      -2.408   4.681   0.258  0.00  0.00    -0.294 OA
BRANCH  26  28
ATOM     28  C   UNL     1      -0.217   4.930   1.005  0.00  0.00    +0.016 A 
ATOM     29  C   UNL     1       0.928   4.297   1.500  0.00  0.00    +0.013 A 
ATOM     30  C   UNL     1       2.009   5.052   1.903  0.00  0.00    +0.020 A 
ATOM     31  C   UNL     1       1.958   6.434   1.829  0.00  0.00    +0.041 A 
ATOM     32  C   UNL     1       0.825   7.068   1.346  0.00  0.00    +0.020 A 
ATOM     33  C   UNL     1      -0.261   6.326   0.934  0.00  0.00    +0.013 A 
ATOM     34 CL   UNL     1       3.321   7.377   2.346  0.00  0.00    -0.084 Cl
ENDBRANCH  26  28
ENDBRANCH  18  26
ENDBRANCH   1  18
TORSDOF 7
