REMARK  Name = ZINC36936170
REMARK  9 active torsions:
REMARK  status: ('A' for Active; 'I' for Inactive)
REMARK    1  A    between atoms: C_1  and  C_2
REMARK    2  A    between atoms: C_2  and  C_3
REMARK    3  A    between atoms: C_3  and  C_4
REMARK    4  A    between atoms: C_3  and  C_6
REMARK    5  A    between atoms: C_4  and  C_5
REMARK    6  A    between atoms: C_7  and  C_13
REMARK    7  A    between atoms: C_8  and  N_12
REMARK    8  A    between atoms: C_18  and  O_19
REMARK    9  A    between atoms: O_19  and  C_20
REMARK                            x       y       z     vdW  Elec       q    Type
REMARK                         _______ _______ _______ _____ _____    ______ ____
ROOT
ATOM      1  C   UNL     1      -1.383  -2.087   0.256  0.00  0.00    +0.076 A 
ATOM      2  C   UNL     1      -2.006  -2.730   1.343  0.00  0.00    +0.048 A 
ATOM      3  C   UNL     1      -1.749  -4.084   1.222  0.00  0.00    +0.120 A 
ATOM      4  N   UNL     1      -1.002  -4.252   0.108  0.00  0.00    -0.264 N 
ATOM      5  H   UNL     1      -0.669  -5.098  -0.231  0.00  0.00    +0.190 HD
ATOM      6  N   UNL     1      -0.794  -2.997  -0.474  0.00  0.00    -0.176 NA
ENDROOT
BRANCH   2   7
ATOM      7  C   UNL     1      -2.792  -2.076   2.418  0.00  0.00    +0.030 A 
ATOM      8  C   UNL     1      -4.167  -1.905   2.274  0.00  0.00    +0.032 A 
ATOM      9  C   UNL     1      -4.894  -1.296   3.279  0.00  0.00    +0.042 A 
ATOM     10  C   UNL     1      -4.260  -0.855   4.428  0.00  0.00    +0.023 A 
ATOM     11  C   UNL     1      -2.896  -1.021   4.580  0.00  0.00    +0.047 A 
ATOM     12  C   UNL     1      -2.156  -1.635   3.583  0.00  0.00    +0.128 A 
ATOM     13 CL   UNL     1      -6.607  -1.081   3.099  0.00  0.00    -0.084 Cl
BRANCH  12  14
ATOM     14  O   UNL     1      -0.816  -1.803   3.733  0.00  0.00    -0.494 OA
ATOM     15  C   UNL     1      -0.235  -1.328   4.949  0.00  0.00    +0.277 C 
ENDBRANCH  12  14
ENDBRANCH   2   7
BRANCH   3  16
ATOM     16  N   UNL     1      -2.179  -5.084   2.085  0.00  0.00    -0.343 N 
ATOM     17  H   UNL     1      -2.714  -4.858   2.862  0.00  0.00    +0.144 HD
ATOM     18  H   UNL     1      -1.944  -6.009   1.911  0.00  0.00    +0.144 HD
ENDBRANCH   3  16
BRANCH   1  19
ATOM     19  C   UNL     1      -1.398  -0.606  -0.021  0.00  0.00    +0.040 C 
BRANCH  19  21
ATOM     20  C   UNL     1       0.642  -0.203   1.365  0.00  0.00    +0.004 C 
ATOM     21  C   UNL     1       0.037  -0.075  -0.035  0.00  0.00    +0.006 C 
ENDBRANCH  19  21
BRANCH  19  22
ATOM     22  C   UNL     1      -2.050  -0.348  -1.381  0.00  0.00    +0.006 C 
ATOM     23  C   UNL     1      -3.522  -0.765  -1.327  0.00  0.00    +0.004 C 
ENDBRANCH  19  22
ENDBRANCH   1  19
TORSDOF 6
