REMARK  Name = ZINC01429563
REMARK  6 active torsions:
REMARK  status: ('A' for Active; 'I' for Inactive)
REMARK    1  A    between atoms: C_1  and  C_2
REMARK    2  A    between atoms: C_6  and  C_8
REMARK    3  A    between atoms: N_13  and  C_23
REMARK    4  A    between atoms: C_19  and  C_21
REMARK    5  A    between atoms: C_19  and  C_22
REMARK    6  A    between atoms: C_24  and  C_32
REMARK                            x       y       z     vdW  Elec       q    Type
REMARK                         _______ _______ _______ _____ _____    ______ ____
ROOT
ATOM      1  C   UNL     1      -0.070   5.346   0.023  0.00  0.00    +0.063 C 
ATOM      2  C   UNL     1       0.632   5.887  -1.223  0.00  0.00    +0.109 C 
ATOM      3  C   UNL     1       2.116   5.654  -1.092  0.00  0.00    +0.225 C 
ATOM      4  O   UNL     1       2.774   5.377  -2.072  0.00  0.00    -0.275 OA
ATOM      5  N   UNL     1       2.710   5.754   0.108  0.00  0.00    -0.236 N 
ATOM      6  C   UNL     1       1.985   5.991   1.250  0.00  0.00    +0.027 C 
ATOM      7  C   UNL     1       0.645   5.839   1.260  0.00  0.00    +0.020 C 
ATOM      8  C   UNL     1      -0.116   6.132   2.404  0.00  0.00    +0.162 C 
ATOM      9  O   UNL     1      -1.322   5.984   2.373  0.00  0.00    -0.292 OA
ATOM     10  C   UNL     1       0.536   6.626   3.667  0.00  0.00    +0.086 C 
ATOM     11  C   UNL     1       1.821   7.378   3.303  0.00  0.00    -0.023 C 
ATOM     12  C   UNL     1       2.719   6.446   2.488  0.00  0.00    +0.058 C 
ATOM     13  C   UNL     1       1.474   8.614   2.470  0.00  0.00    +0.011 C 
ATOM     14  C   UNL     1       2.546   7.803   4.581  0.00  0.00    +0.011 C 
ENDROOT
BRANCH   5  15
ATOM     15  C   UNL     1       4.090   5.614   0.196  0.00  0.00    +0.097 A 
ATOM     16  C   UNL     1       5.068   6.577  -0.001  0.00  0.00    +0.084 A 
ATOM     17  C   UNL     1       6.453   6.172   0.156  0.00  0.00    -0.018 A 
ATOM     18  C   UNL     1       6.639   4.871   0.474  0.00  0.00    -0.004 A 
ATOM     19  S   UNL     1       5.006   4.193   0.573  0.00  0.00    -0.076 S 
ATOM     20  C   UNL     1       7.945   4.172   0.692  0.00  0.00    +0.043 C 
ATOM     21  C   UNL     1       9.067   5.060   0.134  0.00  0.00    +0.005 C 
ATOM     22  C   UNL     1       8.866   6.490   0.645  0.00  0.00    +0.005 C 
ATOM     23  C   UNL     1       7.638   7.113  -0.022  0.00  0.00    +0.037 C 
BRANCH  16  24
ATOM     24  C   UNL     1       4.724   7.924  -0.345  0.00  0.00    +0.102 C 
ATOM     25  N   UNL     1       4.451   8.993  -0.617  0.00  0.00    -0.191 NA
ENDBRANCH  16  24
ENDBRANCH   5  15
BRANCH   1  31
ATOM     26  C   UNL     1      -2.510   0.977  -0.041  0.00  0.00    +0.044 C 
ATOM     27  C   UNL     1      -1.216   1.749  -0.033  0.00  0.00    -0.050 A 
ATOM     28  C   UNL     1      -0.009   1.075  -0.049  0.00  0.00    +0.003 A 
ATOM     29  C   UNL     1       1.178   1.784  -0.047  0.00  0.00    +0.001 A 
ATOM     30  C   UNL     1       1.158   3.166  -0.024  0.00  0.00    +0.004 A 
ATOM     31  C   UNL     1      -0.049   3.839  -0.002  0.00  0.00    -0.039 A 
ATOM     32  C   UNL     1      -1.236   3.131  -0.005  0.00  0.00    +0.007 A 
ENDBRANCH   1  31
TORSDOF 3
