REMARK  Name = ZINC16854606
REMARK  7 active torsions:
REMARK  status: ('A' for Active; 'I' for Inactive)
REMARK    1  A    between atoms: C_1  and  C_2
REMARK    2  A    between atoms: C_5  and  N_8
REMARK    3  A    between atoms: C_14  and  C_18
REMARK    4  A    between atoms: C_15  and  C_17
REMARK    5  A    between atoms: C_18  and  C_19
REMARK    6  A    between atoms: C_19  and  S_20
REMARK    7  A    between atoms: S_20  and  C_21
REMARK                            x       y       z     vdW  Elec       q    Type
REMARK                         _______ _______ _______ _____ _____    ______ ____
ROOT
ATOM      1  N   UNL     1      -3.008   4.128   9.528  0.00  0.00    -0.285 N 
ATOM      2  C   UNL     1      -2.077   3.886   8.552  0.00  0.00    +0.200 A 
ATOM      3  N   UNL     1      -1.830   4.840   7.613  0.00  0.00    -0.295 N 
ATOM      4  H   UNL     1      -2.311   5.682   7.636  0.00  0.00    +0.172 HD
ATOM      5  C   UNL     1      -0.909   4.612   6.652  0.00  0.00    +0.256 A 
ATOM      6  O   UNL     1      -0.671   5.458   5.806  0.00  0.00    -0.267 OA
ATOM      7  C   UNL     1      -0.235   3.378   6.642  0.00  0.00    +0.039 A 
ATOM      8  C   UNL     1      -0.524   2.460   7.609  0.00  0.00    +0.050 A 
ATOM      9  N   UNL     1      -1.436   2.735   8.539  0.00  0.00    -0.221 NA
ATOM     10  C   UNL     1       0.189   1.132   7.623  0.00  0.00    +0.066 C 
ATOM     11  H   UNL     1      -3.425   5.001   9.595  0.00  0.00    +0.155 HD
ENDROOT
BRANCH   1  16
ATOM     12  C   UNL     1      -4.426   0.020  13.175  0.00  0.00    +0.044 C 
ATOM     13  C   UNL     1      -4.049   1.112  12.206  0.00  0.00    -0.050 A 
ATOM     14  C   UNL     1      -4.034   2.430  12.624  0.00  0.00    +0.005 A 
ATOM     15  C   UNL     1      -3.689   3.432  11.738  0.00  0.00    +0.023 A 
ATOM     16  C   UNL     1      -3.357   3.115  10.427  0.00  0.00    +0.034 A 
ATOM     17  C   UNL     1      -3.378   1.790  10.010  0.00  0.00    +0.023 A 
ATOM     18  C   UNL     1      -3.719   0.792  10.902  0.00  0.00    +0.005 A 
ENDBRANCH   1  16
BRANCH   7  19
ATOM     19  C   UNL     1       0.796   3.077   5.584  0.00  0.00    +0.053 C 
BRANCH  19  20
ATOM     20  C   UNL     1       0.101   2.529   4.336  0.00  0.00    +0.074 C 
BRANCH  20  21
ATOM     21  S   UNL     1       1.341   2.167   3.063  0.00  0.00    -0.157 S 
BRANCH  21  22
ATOM     22  C   UNL     1       0.367   1.534   1.669  0.00  0.00    +0.046 C 
ATOM     23  C   UNL     1       1.297   1.058   0.534  0.00  0.00    +0.014 C 
ATOM     24  C   UNL     1       0.613   1.448  -0.788  0.00  0.00    +0.001 C 
ATOM     25  C   UNL     1      -0.709   2.148  -0.411  0.00  0.00    +0.001 C 
ATOM     26  C   UNL     1      -0.464   2.673   1.026  0.00  0.00    +0.014 C 
ENDBRANCH  21  22
ENDBRANCH  20  21
ENDBRANCH  19  20
ENDBRANCH   7  19
TORSDOF 5
