REMARK  Name = ZINC58457251
REMARK  4 active torsions:
REMARK  status: ('A' for Active; 'I' for Inactive)
REMARK    1  A    between atoms: C_1  and  C_2
REMARK    2  A    between atoms: C_2  and  C_3
REMARK    3  A    between atoms: C_2  and  N_17
REMARK    4  A    between atoms: C_18  and  C_20
REMARK                            x       y       z     vdW  Elec       q    Type
REMARK                         _______ _______ _______ _____ _____    ______ ____
ROOT
ATOM      1  C   UNL     1       0.835  -0.501   1.155  0.00  0.00    +0.240 C 
ATOM      2  O   UNL     1       1.876  -1.086   0.943  0.00  0.00    -0.273 OA
ATOM      3  N   UNL     1       0.436  -0.273   2.422  0.00  0.00    -0.270 N 
ATOM      4  C   UNL     1      -0.864   0.356   2.695  0.00  0.00    +0.114 C 
ATOM      5  C   UNL     1      -0.650   1.423   3.776  0.00  0.00    +0.024 C 
ATOM      6  C   UNL     1      -0.183   0.738   5.060  0.00  0.00    +0.038 C 
ATOM      7  C   UNL     1       0.989  -0.166   4.781  0.00  0.00    -0.023 A 
ATOM      8  C   UNL     1       1.252  -0.638   3.504  0.00  0.00    +0.042 A 
ATOM      9  C   UNL     1       2.336  -1.478   3.279  0.00  0.00    +0.065 A 
ATOM     10  C   UNL     1       3.155  -1.848   4.330  0.00  0.00    +0.160 A 
ATOM     11  C   UNL     1       2.892  -1.378   5.608  0.00  0.00    +0.159 A 
ATOM     12  C   UNL     1       1.816  -0.533   5.830  0.00  0.00    +0.046 A 
ATOM     13  F   UNL     1       3.691  -1.736   6.636  0.00  0.00    -0.202 F 
ATOM     14  F   UNL     1       4.208  -2.665   4.112  0.00  0.00    -0.202 F 
ENDROOT
BRANCH   1  16
ATOM     15  C   UNL     1       0.265   1.450  -0.264  0.00  0.00    +0.038 C 
ATOM     16  C   UNL     1      -0.013  -0.031   0.002  0.00  0.00    +0.156 C 
BRANCH  16  17
ATOM     17  N   UNL     1       0.312  -0.811  -1.194  0.00  0.00    -0.304 N 
ATOM     18  C   UNL     1      -0.599  -0.950  -2.177  0.00  0.00    +0.217 C 
ATOM     19  O   UNL     1      -1.689  -0.428  -2.071  0.00  0.00    -0.275 OA
ATOM     20  H   UNL     1       1.184  -1.229  -1.279  0.00  0.00    +0.149 HD
BRANCH  18  21
ATOM     21  C   UNL     1      -0.265  -1.753  -3.407  0.00  0.00    +0.075 C 
ATOM     22  C   UNL     1       0.944  -1.131  -4.109  0.00  0.00    +0.013 C 
ATOM     23  C   UNL     1       1.284  -1.946  -5.359  0.00  0.00    +0.001 C 
ATOM     24  C   UNL     1       0.086  -1.946  -6.310  0.00  0.00    +0.000 C 
ATOM     25  C   UNL     1      -1.123  -2.568  -5.608  0.00  0.00    +0.001 C 
ATOM     26  C   UNL     1      -1.463  -1.753  -4.359  0.00  0.00    +0.013 C 
ENDBRANCH  18  21
ENDBRANCH  16  17
ENDBRANCH   1  16
TORSDOF 3
