REMARK  Name = ZINC20080500
REMARK  7 active torsions:
REMARK  status: ('A' for Active; 'I' for Inactive)
REMARK    1  A    between atoms: N_7  and  C_22
REMARK    2  A    between atoms: N_10  and  C_11
REMARK    3  A    between atoms: C_11  and  C_12
REMARK    4  A    between atoms: C_12  and  C_14
REMARK    5  A    between atoms: C_12  and  O_21
REMARK    6  A    between atoms: C_22  and  C_23
REMARK    7  A    between atoms: C_23  and  N_24
REMARK                            x       y       z     vdW  Elec       q    Type
REMARK                         _______ _______ _______ _____ _____    ______ ____
ROOT
ATOM      1  C   UNL     1       4.459  -2.378   1.615  0.00  0.00    +0.002 A 
ATOM      2  C   UNL     1       3.915  -2.194   0.356  0.00  0.00    +0.002 A 
ATOM      3  C   UNL     1       3.135  -1.086   0.090  0.00  0.00    +0.028 A 
ATOM      4  C   UNL     1       2.895  -0.153   1.089  0.00  0.00    +0.068 A 
ATOM      5  C   UNL     1       3.443  -0.339   2.358  0.00  0.00    +0.068 A 
ATOM      6  C   UNL     1       4.226  -1.455   2.616  0.00  0.00    +0.028 A 
ATOM      7  N   UNL     1       3.042   0.738   3.148  0.00  0.00    -0.312 N 
ATOM      8  C   UNL     1       2.270   1.570   2.377  0.00  0.00    +0.205 A 
ATOM      9  N   UNL     1       1.721   2.686   2.777  0.00  0.00    -0.268 NA
ATOM     10  N   UNL     1       2.166   1.035   1.118  0.00  0.00    -0.307 N 
ATOM     11  H   UNL     1       1.849   2.989   3.690  0.00  0.00    +0.190 HD
ENDROOT
BRANCH  10  12
ATOM     12  C   UNL     1       1.423   1.615  -0.003  0.00  0.00    +0.161 C 
BRANCH  12  13
ATOM     13  C   UNL     1      -0.013   1.086   0.008  0.00  0.00    +0.164 C 
BRANCH  13  14
ATOM     14  C   UNL     1      -0.742   1.585  -1.213  0.00  0.00    -0.016 A 
ATOM     15  C   UNL     1      -1.257   2.868  -1.234  0.00  0.00    +0.006 A 
ATOM     16  C   UNL     1      -1.921   3.328  -2.355  0.00  0.00    +0.001 A 
ATOM     17  C   UNL     1      -2.079   2.502  -3.453  0.00  0.00    +0.015 A 
ATOM     18  C   UNL     1      -1.569   1.217  -3.430  0.00  0.00    +0.018 A 
ATOM     19  C   UNL     1      -0.899   0.759  -2.309  0.00  0.00    +0.021 A 
ATOM     20 BR   UNL     1      -1.785   0.087  -4.931  0.00  0.00    -0.050 Br
ENDBRANCH  13  14
BRANCH  13  21
ATOM     21  O   UNL     1      -0.682   1.547   1.184  0.00  0.00    -0.385 OA
ATOM     22  H   UNL     1      -1.729   1.266   1.366  0.00  0.00    +0.210 HD
ENDBRANCH  13  21
ENDBRANCH  12  13
ENDBRANCH  10  12
BRANCH   7  23
ATOM     23  C   UNL     1       3.391   0.949   4.555  0.00  0.00    +0.107 C 
BRANCH  23  24
ATOM     24  C   UNL     1       4.689   1.754   4.644  0.00  0.00    -0.057 C 
BRANCH  24  25
ATOM     25  N   UNL     1       5.039   1.965   6.055  0.00  0.00    +0.381 N 
ATOM     26  C   UNL     1       4.047   2.818   6.721  0.00  0.00    -0.079 C 
ATOM     27  C   UNL     1       4.362   2.897   8.217  0.00  0.00    -0.019 C 
ATOM     28  C   UNL     1       5.768   3.473   8.407  0.00  0.00    -0.004 C 
ATOM     29  C   UNL     1       6.777   2.593   7.663  0.00  0.00    -0.019 C 
ATOM     30  C   UNL     1       6.391   2.523   6.184  0.00  0.00    -0.079 C 
ATOM     31  H   UNL     1       5.031   0.986   6.557  0.00  0.00    -0.082 HD
ENDBRANCH  24  25
ENDBRANCH  23  24
ENDBRANCH   7  23
TORSDOF 7
