REMARK  Name = ZINC19520884
REMARK  9 active torsions:
REMARK  status: ('A' for Active; 'I' for Inactive)
REMARK    1  A    between atoms: C_1  and  C_2
REMARK    2  A    between atoms: C_2  and  C_3
REMARK    3  A    between atoms: C_6  and  C_28
REMARK    4  A    between atoms: C_10  and  C_13
REMARK    5  A    between atoms: N_15  and  C_16
REMARK    6  A    between atoms: C_16  and  C_17
REMARK    7  A    between atoms: C_17  and  C_19
REMARK    8  A    between atoms: C_17  and  N_20
REMARK    9  A    between atoms: C_23  and  C_26
REMARK                            x       y       z     vdW  Elec       q    Type
REMARK                         _______ _______ _______ _____ _____    ______ ____
ROOT
ATOM      1  C   UNL     1       0.270  -2.622  -2.301  0.00  0.00    +0.074 C 
ATOM      2  C   UNL     1       0.167  -4.111  -2.648  0.00  0.00    +0.058 C 
ATOM      3  C   UNL     1       0.964  -4.377  -3.933  0.00  0.00    +0.214 C 
ATOM      4  N   UNL     1       0.608  -3.335  -4.905  0.00  0.00    -0.238 N 
ATOM      5  C   UNL     1      -0.030  -2.187  -4.586  0.00  0.00    +0.130 A 
ATOM      6  C   UNL     1      -0.188  -1.465  -5.761  0.00  0.00    +0.096 A 
ATOM      7  C   UNL     1       0.388  -2.238  -6.800  0.00  0.00    +0.149 A 
ATOM      8  N   UNL     1       0.854  -3.339  -6.278  0.00  0.00    -0.177 NA
ATOM      9  N   UNL     1      -0.437  -1.829  -3.318  0.00  0.00    -0.326 N 
ATOM     10  H   UNL     1      -1.175  -1.074  -3.011  0.00  0.00    +0.148 HD
ENDROOT
BRANCH   6  11
ATOM     11  C   UNL     1      -0.828  -0.152  -5.901  0.00  0.00    +0.249 C 
ATOM     12  O   UNL     1      -1.286   0.409  -4.923  0.00  0.00    -0.270 OA
ATOM     13  N   UNL     1      -0.909   0.432  -7.113  0.00  0.00    -0.313 N 
ATOM     14  H   UNL     1      -0.495  -0.075  -7.997  0.00  0.00    +0.149 HD
BRANCH  13  15
ATOM     15  C   UNL     1      -1.549   1.743  -7.253  0.00  0.00    +0.089 C 
BRANCH  15  16
ATOM     16  C   UNL     1      -1.396   2.234  -8.694  0.00  0.00    -0.054 C 
ATOM     17  C   UNL     1      -1.952   3.655  -8.810  0.00  0.00    -0.012 C 
BRANCH  16  18
ATOM     18  N   UNL     1       0.026   2.234  -9.062  0.00  0.00    +0.382 N 
ATOM     19  C   UNL     1       0.204   2.601 -10.473  0.00  0.00    -0.078 C 
ATOM     20  C   UNL     1       1.677   2.449 -10.859  0.00  0.00    -0.016 C 
ATOM     21  C   UNL     1       2.530   3.354  -9.966  0.00  0.00    -0.018 C 
ATOM     22  C   UNL     1       2.289   2.984  -8.500  0.00  0.00    -0.016 C 
ATOM     23  C   UNL     1       0.799   3.120  -8.182  0.00  0.00    -0.078 C 
ATOM     24  C   UNL     1       4.009   3.162 -10.306  0.00  0.00    +0.007 C 
ATOM     25  H   UNL     1       0.411   1.212  -8.931  0.00  0.00    -0.081 HD
ENDBRANCH  16  18
ENDBRANCH  15  16
ENDBRANCH  13  15
ENDBRANCH   6  11
BRANCH   3  26
ATOM     26  C   UNL     1       0.602  -5.753  -4.493  0.00  0.00    +0.412 C 
ATOM     27  F   UNL     1      -0.767  -5.794  -4.781  0.00  0.00    -0.168 F 
ATOM     28  F   UNL     1       1.332  -5.988  -5.663  0.00  0.00    -0.168 F 
ATOM     29  F   UNL     1       0.908  -6.737  -3.547  0.00  0.00    -0.168 F 
ENDBRANCH   3  26
BRANCH   1  31
ATOM     30  C   UNL     1      -0.151  -0.913  -0.527  0.00  0.00    +0.006 C 
ATOM     31  C   UNL     1      -0.364  -2.374  -0.930  0.00  0.00    +0.019 C 
ENDBRANCH   1  31
TORSDOF 6
