REMARK  Name = ZINC43171148
REMARK  9 active torsions:
REMARK  status: ('A' for Active; 'I' for Inactive)
REMARK    1  A    between atoms: C_1  and  C_2
REMARK    2  A    between atoms: C_2  and  C_3
REMARK    3  A    between atoms: C_2  and  C_4
REMARK    4  A    between atoms: C_8  and  C_26
REMARK    5  A    between atoms: C_9  and  N_10
REMARK    6  A    between atoms: N_13  and  C_14
REMARK    7  A    between atoms: C_14  and  C_15
REMARK    8  A    between atoms: C_26  and  C_27
REMARK    9  A    between atoms: C_26  and  C_28
REMARK                            x       y       z     vdW  Elec       q    Type
REMARK                         _______ _______ _______ _____ _____    ______ ____
ROOT
ATOM      1  N   UNL     1      -1.547  -0.238   1.984  0.00  0.00    -0.269 N 
ATOM      2  C   UNL     1      -2.466  -1.164   2.322  0.00  0.00    +0.304 C 
ATOM      3  O   UNL     1      -2.111  -2.240   2.762  0.00  0.00    -0.252 OA
ATOM      4  N   UNL     1      -3.778  -0.897   2.172  0.00  0.00    -0.295 N 
ATOM      5  H   UNL     1      -1.830   0.648   1.708  0.00  0.00    +0.156 HD
ATOM      6  H   UNL     1      -4.062  -0.038   1.821  0.00  0.00    +0.151 HD
ENDROOT
BRANCH   1  12
ATOM      7  C   UNL     1       0.584  -0.498   0.877  0.00  0.00    -0.023 A 
ATOM      8  C   UNL     1       1.930  -0.805   0.929  0.00  0.00    +0.006 A 
ATOM      9  C   UNL     1       2.511  -1.173   2.129  0.00  0.00    +0.001 A 
ATOM     10  C   UNL     1       1.747  -1.236   3.280  0.00  0.00    +0.006 A 
ATOM     11  C   UNL     1       0.400  -0.930   3.234  0.00  0.00    -0.023 A 
ATOM     12  C   UNL     1      -0.184  -0.554   2.032  0.00  0.00    +0.042 A 
BRANCH   7  14
ATOM     13  C   UNL     1       0.643   1.159  -0.967  0.00  0.00    +0.012 C 
ATOM     14  C   UNL     1      -0.048  -0.097  -0.431  0.00  0.00    +0.015 C 
ATOM     15  C   UNL     1       0.105  -1.235  -1.441  0.00  0.00    +0.012 C 
ENDBRANCH   7  14
BRANCH  11  16
ATOM     16  C   UNL     1      -0.432  -1.000   4.489  0.00  0.00    +0.015 C 
ATOM     17  C   UNL     1       0.195  -2.001   5.461  0.00  0.00    +0.012 C 
ATOM     18  C   UNL     1      -0.484   0.382   5.143  0.00  0.00    +0.012 C 
ENDBRANCH  11  16
ENDBRANCH   1  12
BRANCH   4  19
ATOM     19  C   UNL     1      -4.777  -1.904   2.540  0.00  0.00    +0.142 C 
BRANCH  19  20
ATOM     20  C   UNL     1      -6.158  -1.361   2.277  0.00  0.00    -0.014 A 
ATOM     21  C   UNL     1      -6.836  -0.660   3.267  0.00  0.00    +0.010 A 
ATOM     22  C   UNL     1      -8.101  -0.178   2.986  0.00  0.00    +0.042 A 
ATOM     23  C   UNL     1      -8.649  -0.410   1.728  0.00  0.00    +0.099 A 
ATOM     24  N   UNL     1      -7.971  -1.083   0.811  0.00  0.00    -0.349 N 
ATOM     25  C   UNL     1      -6.760  -1.549   1.050  0.00  0.00    +0.089 A 
ATOM     26  N   UNL     1      -9.920   0.068   1.432  0.00  0.00    -0.317 N 
ATOM     27  C   UNL     1     -10.783   0.833   2.345  0.00  0.00    +0.106 C 
ATOM     28  C   UNL     1     -12.100   1.123   1.596  0.00  0.00    +0.020 C 
ATOM     29  C   UNL     1     -12.130   0.020   0.504  0.00  0.00    +0.020 C 
ATOM     30  C   UNL     1     -10.625  -0.102   0.148  0.00  0.00    +0.106 C 
ATOM     31  H   UNL     1      -8.373  -1.233  -0.059  0.00  0.00    +0.167 HD
ENDBRANCH  19  20
ENDBRANCH   4  19
TORSDOF 5
