REMARK  Name = ZINC05163437
REMARK  9 active torsions:
REMARK  status: ('A' for Active; 'I' for Inactive)
REMARK    1  A    between atoms: C_1  and  C_2
REMARK    2  A    between atoms: C_2  and  O_3
REMARK    3  A    between atoms: O_3  and  C_4
REMARK    4  A    between atoms: C_7  and  C_11
REMARK    5  A    between atoms: C_8  and  O_10
REMARK    6  A    between atoms: C_12  and  C_21
REMARK    7  A    between atoms: C_13  and  C_17
REMARK    8  A    between atoms: C_24  and  O_27
REMARK    9  A    between atoms: O_27  and  C_28
REMARK                            x       y       z     vdW  Elec       q    Type
REMARK                         _______ _______ _______ _____ _____    ______ ____
ROOT
ATOM      1  C   UNL     1       1.257  -6.053   1.667  0.00  0.00    +0.104 A 
ATOM      2  C   UNL     1       0.550  -7.021   0.910  0.00  0.00    +0.039 A 
ATOM      3  C   UNL     1       0.781  -8.236   1.483  0.00  0.00    +0.147 A 
ATOM      4  N   UNL     1       1.591  -8.045   2.545  0.00  0.00    -0.272 N 
ATOM      5  H   UNL     1       1.920  -8.737   3.140  0.00  0.00    +0.189 HD
ATOM      6  N   UNL     1       1.882  -6.679   2.640  0.00  0.00    -0.173 NA
ENDROOT
BRANCH   1  10
ATOM      7  C   UNL     1       1.355  -1.865   0.908  0.00  0.00    +0.124 A 
ATOM      8  C   UNL     1       1.549  -2.766  -0.132  0.00  0.00    +0.046 A 
ATOM      9  C   UNL     1       1.518  -4.123   0.111  0.00  0.00    +0.017 A 
ATOM     10  C   UNL     1       1.292  -4.594   1.403  0.00  0.00    +0.044 A 
ATOM     11  C   UNL     1       1.097  -3.687   2.450  0.00  0.00    +0.130 A 
ATOM     12  C   UNL     1       1.135  -2.326   2.198  0.00  0.00    +0.091 A 
BRANCH  11  13
ATOM     13  O   UNL     1       0.876  -4.140   3.711  0.00  0.00    -0.506 OA
ATOM     14  H   UNL     1       1.682  -4.264   4.231  0.00  0.00    +0.292 HD
ENDBRANCH  11  13
BRANCH   7  15
ATOM     15  O   UNL     1       1.387  -0.529   0.662  0.00  0.00    -0.492 OA
BRANCH  15  17
ATOM     16  C   UNL     1       1.619   1.404  -0.768  0.00  0.00    +0.048 C 
ATOM     17  C   UNL     1       1.618  -0.123  -0.688  0.00  0.00    +0.225 C 
ENDBRANCH  15  17
ENDBRANCH   7  15
ENDBRANCH   1  10
BRANCH   2  18
ATOM     18  C   UNL     1      -0.288  -6.760  -0.286  0.00  0.00    -0.014 A 
ATOM     19  C   UNL     1      -1.476  -6.043  -0.162  0.00  0.00    +0.012 A 
ATOM     20  C   UNL     1      -2.254  -5.802  -1.276  0.00  0.00    +0.046 A 
ATOM     21  C   UNL     1      -1.853  -6.274  -2.519  0.00  0.00    +0.120 A 
ATOM     22  C   UNL     1      -0.670  -6.989  -2.645  0.00  0.00    +0.046 A 
ATOM     23  C   UNL     1       0.114  -7.227  -1.536  0.00  0.00    +0.012 A 
BRANCH  21  24
ATOM     24  O   UNL     1      -2.621  -6.035  -3.615  0.00  0.00    -0.495 OA
ATOM     25  C   UNL     1      -2.150  -6.549  -4.862  0.00  0.00    +0.277 C 
ENDBRANCH  21  24
ENDBRANCH   2  18
BRANCH   3  26
ATOM     26  C   UNL     1       0.229  -9.557   1.015  0.00  0.00    +0.434 C 
ATOM     27  F   UNL     1       0.686 -10.578   1.855  0.00  0.00    -0.164 F 
ATOM     28  F   UNL     1      -1.169  -9.517   1.048  0.00  0.00    -0.164 F 
ATOM     29  F   UNL     1       0.657  -9.804  -0.294  0.00  0.00    -0.164 F 
ENDBRANCH   3  26
TORSDOF 7
