REMARK  Name = ZINC19862565
REMARK  6 active torsions:
REMARK  status: ('A' for Active; 'I' for Inactive)
REMARK    1  A    between atoms: C_1  and  C_2
REMARK    2  A    between atoms: C_5  and  C_8
REMARK    3  A    between atoms: N_17  and  C_19
REMARK    4  A    between atoms: C_19  and  C_20
REMARK    5  A    between atoms: C_20  and  C_22
REMARK    6  A    between atoms: C_20  and  O_29
REMARK                            x       y       z     vdW  Elec       q    Type
REMARK                         _______ _______ _______ _____ _____    ______ ____
ROOT
ATOM      1  C   UNL     1      -0.289   1.304  -4.112  0.00  0.00    +0.099 A 
ATOM      2  C   UNL     1      -0.319   2.760  -4.313  0.00  0.00    +0.015 A 
ATOM      3  C   UNL     1      -1.318   3.377  -5.064  0.00  0.00    +0.011 A 
ATOM      4  C   UNL     1      -1.302   4.745  -5.224  0.00  0.00    +0.001 A 
ATOM      5  C   UNL     1      -0.302   5.515  -4.644  0.00  0.00    +0.001 A 
ATOM      6  C   UNL     1       0.695   4.927  -3.898  0.00  0.00    +0.014 A 
ATOM      7  C   UNL     1       0.698   3.543  -3.724  0.00  0.00    +0.050 A 
ATOM      8  C   UNL     1       1.732   2.862  -2.935  0.00  0.00    +0.275 A 
ATOM      9  O   UNL     1       2.626   3.499  -2.405  0.00  0.00    -0.266 OA
ATOM     10  N   UNL     1       1.681   1.521  -2.809  0.00  0.00    -0.226 N 
ATOM     11  N   UNL     1       0.667   0.764  -3.400  0.00  0.00    -0.167 NA
ENDROOT
BRANCH   1  16
ATOM     12  C   UNL     1      -4.368  -2.018  -6.451  0.00  0.00    +0.044 C 
ATOM     13  C   UNL     1      -3.301  -1.149  -5.839  0.00  0.00    -0.050 A 
ATOM     14  C   UNL     1      -1.983  -1.570  -5.842  0.00  0.00    +0.004 A 
ATOM     15  C   UNL     1      -1.001  -0.778  -5.283  0.00  0.00    +0.010 A 
ATOM     16  C   UNL     1      -1.339   0.449  -4.714  0.00  0.00    +0.003 A 
ATOM     17  C   UNL     1      -2.669   0.866  -4.708  0.00  0.00    +0.010 A 
ATOM     18  C   UNL     1      -3.642   0.068  -5.275  0.00  0.00    +0.004 A 
ENDBRANCH   1  16
BRANCH  10  19
ATOM     19  C   UNL     1       2.714   0.838  -2.027  0.00  0.00    +0.183 C 
BRANCH  19  20
ATOM     20  C   UNL     1       2.271   0.749  -0.565  0.00  0.00    +0.166 C 
BRANCH  20  21
ATOM     21  C   UNL     1       3.384   0.159   0.262  0.00  0.00    -0.017 A 
ATOM     22  C   UNL     1       3.580  -1.210   0.280  0.00  0.00    +0.007 A 
ATOM     23  C   UNL     1       4.604  -1.751   1.034  0.00  0.00    +0.020 A 
ATOM     24  C   UNL     1       5.426  -0.924   1.780  0.00  0.00    +0.041 A 
ATOM     25  C   UNL     1       5.224   0.444   1.766  0.00  0.00    +0.020 A 
ATOM     26  C   UNL     1       4.204   0.985   1.008  0.00  0.00    +0.007 A 
ATOM     27 CL   UNL     1       6.708  -1.605   2.732  0.00  0.00    -0.084 Cl
ENDBRANCH  20  21
BRANCH  20  28
ATOM     28  O   UNL     1       1.113  -0.083  -0.468  0.00  0.00    -0.385 OA
ATOM     29  H   UNL     1       0.647  -0.266   0.511  0.00  0.00    +0.210 HD
ENDBRANCH  20  28
ENDBRANCH  19  20
ENDBRANCH  10  19
TORSDOF 5
