REMARK  Name = ZINC21698877
REMARK  13 active torsions:
REMARK  status: ('A' for Active; 'I' for Inactive)
REMARK    1  A    between atoms: C_1  and  C_2
REMARK    2  A    between atoms: C_2  and  C_3
REMARK    3  A    between atoms: C_3  and  N_4
REMARK    4  A    between atoms: C_5  and  N_32
REMARK    5  A    between atoms: C_6  and  C_13
REMARK    6  A    between atoms: N_9  and  C_12
REMARK    7  A    between atoms: C_13  and  C_15
REMARK    8  A    between atoms: C_15  and  N_16
REMARK    9  A    between atoms: N_16  and  C_17
REMARK   10  A    between atoms: C_22  and  C_23
REMARK   11  A    between atoms: C_23  and  N_24
REMARK   12  A    between atoms: N_24  and  C_25
REMARK   13  A    between atoms: N_24  and  C_26
REMARK                            x       y       z     vdW  Elec       q    Type
REMARK                         _______ _______ _______ _____ _____    ______ ____
ROOT
ATOM      1  C   UNL     1       3.545   1.931   5.591  0.00  0.00    +0.181 C 
ENDROOT
BRANCH   1   2
ATOM      2  C   UNL     1       2.654   2.354   4.452  0.00  0.00    +0.188 C 
ATOM      3  O   UNL     1       2.813   3.437   3.926  0.00  0.00    -0.290 OA
BRANCH   2   6
ATOM      4  N   UNL     1      -0.105   0.941   2.457  0.00  0.00    -0.281 N 
ATOM      5  C   UNL     1       0.871   1.808   2.859  0.00  0.00    +0.116 A 
ATOM      6  C   UNL     1       1.634   1.492   3.997  0.00  0.00    +0.121 A 
ATOM      7  C   UNL     1       1.335   0.235   4.696  0.00  0.00    +0.269 A 
ATOM      8  O   UNL     1       1.964  -0.089   5.687  0.00  0.00    -0.267 OA
ATOM      9  N   UNL     1       0.350  -0.552   4.218  0.00  0.00    -0.263 N 
ATOM     10  C   UNL     1      -0.349  -0.195   3.128  0.00  0.00    +0.333 A 
ATOM     11  O   UNL     1      -1.232  -0.931   2.732  0.00  0.00    -0.246 OA
ATOM     12  C   UNL     1       0.035  -1.810   4.899  0.00  0.00    +0.157 C 
BRANCH   5  13
ATOM     13  N   UNL     1       1.101   2.958   2.170  0.00  0.00    -0.344 N 
ATOM     14  H   UNL     1       1.890   3.649   2.502  0.00  0.00    +0.144 HD
ATOM     15  H   UNL     1       0.499   3.196   1.281  0.00  0.00    +0.144 HD
ENDBRANCH   5  13
BRANCH   4  16
ATOM     16  C   UNL     1      -0.906   1.262   1.273  0.00  0.00    +0.128 C 
BRANCH  16  18
ATOM     17  C   UNL     1      -1.067   1.019  -1.208  0.00  0.00    +0.005 C 
ATOM     18  C   UNL     1      -0.230   0.684   0.028  0.00  0.00    +0.018 C 
ENDBRANCH  16  18
ENDBRANCH   4  16
ENDBRANCH   2   6
ENDBRANCH   1   2
BRANCH   1  19
ATOM     19  N   UNL     1       4.515   2.992   5.872  0.00  0.00    -0.336 N 
ATOM     20  H   UNL     1       4.505   3.918   5.278  0.00  0.00    +0.147 HD
BRANCH  19  21
ATOM     21  C   UNL     1       5.454   2.828   6.894  0.00  0.00    +0.029 A 
ATOM     22  C   UNL     1       5.468   1.659   7.645  0.00  0.00    +0.023 A 
ATOM     23  C   UNL     1       6.397   1.500   8.653  0.00  0.00    +0.002 A 
ATOM     24  C   UNL     1       7.313   2.503   8.917  0.00  0.00    +0.000 A 
ATOM     25  C   UNL     1       7.301   3.668   8.172  0.00  0.00    +0.003 A 
ATOM     26  C   UNL     1       6.378   3.831   7.158  0.00  0.00    -0.043 A 
BRANCH  26  27
ATOM     27  C   UNL     1       6.369   5.098   6.342  0.00  0.00    -0.041 C 
BRANCH  27  28
ATOM     28  N   UNL     1       5.314   5.992   6.836  0.00  0.00    +0.382 N 
ATOM     29  C   UNL     1       5.611   6.455   8.198  0.00  0.00    -0.095 C 
ATOM     30  H   UNL     1       4.375   5.420   6.871  0.00  0.00    -0.081 HD
BRANCH  28  31
ATOM     31  C   UNL     1       5.116   7.128   5.925  0.00  0.00    -0.069 C 
ATOM     32  C   UNL     1       6.378   7.993   5.908  0.00  0.00    -0.015 C 
ATOM     33  C   UNL     1       6.172   9.175   4.959  0.00  0.00    -0.002 C 
ATOM     34  C   UNL     1       4.986  10.014   5.439  0.00  0.00    -0.000 C 
ATOM     35  C   UNL     1       3.724   9.149   5.457  0.00  0.00    -0.002 C 
ATOM     36  C   UNL     1       3.930   7.966   6.405  0.00  0.00    -0.015 C 
ENDBRANCH  28  31
ENDBRANCH  27  28
ENDBRANCH  26  27
ENDBRANCH  19  21
ENDBRANCH   1  19
TORSDOF 10
