REMARK  Name = ZINC39049653
REMARK  4 active torsions:
REMARK  status: ('A' for Active; 'I' for Inactive)
REMARK    1  A    between atoms: C_1  and  C_2
REMARK    2  A    between atoms: C_3  and  C_12
REMARK    3  A    between atoms: C_4  and  C_10
REMARK    4  A    between atoms: CA_7  and  C_8
REMARK                            x       y       z     vdW  Elec       q    Type
REMARK                         _______ _______ _______ _____ _____    ______ ____
ROOT
ATOM      1  C   UNL     1      -0.018   1.503   0.010  0.00  0.00    +0.046 C 
ATOM      2  C   UNL     1       0.002  -0.004   0.002  0.00  0.00    -0.019 A 
ATOM      3  C   UNL     1       0.008  -0.820  -1.123  0.00  0.00    -0.014 A 
ATOM      4  C   UNL     1       0.029  -2.134  -0.690  0.00  0.00    +0.094 A 
ATOM      5  N   UNL     1       0.035  -2.137   0.674  0.00  0.00    -0.345 N 
ATOM      6  H   UNL     1       0.050  -2.926   1.239  0.00  0.00    +0.167 HD
ATOM      7  CA  UNL     1       0.024  -0.830   1.115  0.00  0.00    +0.083 A 
ATOM      8  C   UNL     1      -0.006  -0.356  -2.557  0.00  0.00    +0.047 C 
ENDROOT
BRANCH   7   9
ATOM      9  C   UNL     1       0.031  -0.408   2.462  0.00  0.00    +0.276 C 
ATOM     10  O   UNL     1       0.051  -1.231   3.356  0.00  0.00    -0.294 OA
ENDBRANCH   7   9
BRANCH   4  11
ATOM     11  C   UNL     1       0.041  -3.293  -1.532  0.00  0.00    -0.052 C 
ATOM     12  C   UNL     1       0.050  -4.243  -2.221  0.00  0.00    +0.011 C 
ENDBRANCH   4  11
TORSDOF 2
