REMARK  Name = ZINC22021883
REMARK  8 active torsions:
REMARK  status: ('A' for Active; 'I' for Inactive)
REMARK    1  A    between atoms: C_1  and  C_2
REMARK    2  A    between atoms: C_6  and  N_9
REMARK    3  A    between atoms: C_7  and  C_8
REMARK    4  A    between atoms: C_22  and  S_23
REMARK    5  A    between atoms: S_23  and  C_24
REMARK    6  A    between atoms: C_24  and  C_25
REMARK    7  A    between atoms: N_27  and  C_28
REMARK    8  A    between atoms: C_28  and  C_34
REMARK                            x       y       z     vdW  Elec       q    Type
REMARK                         _______ _______ _______ _____ _____    ______ ____
ROOT
ATOM      1  N   UNL     1      -1.061   2.218   0.019  0.00  0.00    -0.245 N 
ATOM      2  C   UNL     1      -0.823   3.546   0.028  0.00  0.00    +0.268 A 
ATOM      3  O   UNL     1      -1.746   4.339   0.040  0.00  0.00    -0.267 OA
ATOM      4  C   UNL     1       0.572   4.022   0.017  0.00  0.00    +0.064 A 
ATOM      5  C   UNL     1       0.872   5.383   0.021  0.00  0.00    +0.015 A 
ATOM      6  C   UNL     1       2.189   5.791   0.012  0.00  0.00    +0.001 A 
ATOM      7  C   UNL     1       3.212   4.855  -0.002  0.00  0.00    +0.002 A 
ATOM      8  C   UNL     1       2.928   3.504  -0.007  0.00  0.00    +0.027 A 
ATOM      9  C   UNL     1       1.609   3.075   0.003  0.00  0.00    +0.064 A 
ATOM     10  N   UNL     1       1.290   1.723  -0.001  0.00  0.00    -0.255 N 
ATOM     11  C   UNL     1      -0.016   1.308   0.009  0.00  0.00    +0.245 A 
ATOM     12  N   UNL     1       0.002  -0.004   0.002  0.00  0.00    -0.109 NA
ATOM     13  N   UNL     1       1.214  -0.430  -0.012  0.00  0.00    -0.120 NA
ATOM     14  C   UNL     1       2.048   0.583  -0.015  0.00  0.00    +0.198 A 
ENDROOT
BRANCH   1  20
ATOM     15  C   UNL     1      -5.065   0.827  -2.473  0.00  0.00    +0.044 C 
ATOM     16  C   UNL     1      -4.346   1.071  -1.171  0.00  0.00    -0.046 A 
ATOM     17  C   UNL     1      -4.991   0.835   0.030  0.00  0.00    +0.004 A 
ATOM     18  C   UNL     1      -4.335   1.057   1.226  0.00  0.00    +0.002 A 
ATOM     19  C   UNL     1      -3.030   1.510   1.226  0.00  0.00    +0.026 A 
ATOM     20  C   UNL     1      -2.381   1.754   0.023  0.00  0.00    +0.056 A 
ATOM     21  C   UNL     1      -3.043   1.529  -1.178  0.00  0.00    -0.024 A 
ATOM     22  C   UNL     1      -2.341   1.785  -2.486  0.00  0.00    +0.046 C 
ENDBRANCH   1  20
BRANCH  14  23
ATOM     23  S   UNL     1       3.808   0.493  -0.031  0.00  0.00    -0.076 S 
BRANCH  23  24
ATOM     24  C   UNL     1       4.156  -1.287  -0.045  0.00  0.00    +0.173 C 
BRANCH  24  25
ATOM     25  C   UNL     1       5.647  -1.507  -0.060  0.00  0.00    +0.224 C 
ATOM     26  O   UNL     1       6.400  -0.556  -0.061  0.00  0.00    -0.275 OA
ATOM     27  N   UNL     1       6.143  -2.760  -0.071  0.00  0.00    -0.297 N 
ATOM     28  H   UNL     1       5.460  -3.622  -0.070  0.00  0.00    +0.150 HD
BRANCH  27  29
ATOM     29  C   UNL     1       7.592  -2.974  -0.086  0.00  0.00    +0.121 C 
ATOM     30  C   UNL     1       8.190  -2.328  -1.337  0.00  0.00    +0.041 C 
ATOM     31  C   UNL     1       9.704  -2.551  -1.353  0.00  0.00    +0.003 C 
ATOM     32  C   UNL     1       9.998  -4.053  -1.364  0.00  0.00    +0.000 C 
ATOM     33  C   UNL     1       9.400  -4.699  -0.113  0.00  0.00    +0.003 C 
ATOM     34  C   UNL     1       7.886  -4.475  -0.097  0.00  0.00    +0.041 C 
BRANCH  29  35
ATOM     35  C   UNL     1       8.190  -2.366   1.114  0.00  0.00    +0.088 C 
ATOM     36  N   UNL     1       8.652  -1.896   2.039  0.00  0.00    -0.194 NA
ENDBRANCH  29  35
ENDBRANCH  27  29
ENDBRANCH  24  25
ENDBRANCH  23  24
ENDBRANCH  14  23
TORSDOF 6
