REMARK  Name = ZINC13500560
REMARK  15 active torsions:
REMARK  status: ('A' for Active; 'I' for Inactive)
REMARK    1  A    between atoms: C_1  and  C_2
REMARK    2  A    between atoms: C_9  and  C_14
REMARK    3  A    between atoms: C_14  and  N_69
REMARK    4  A    between atoms: C_15  and  C_16
REMARK    5  A    between atoms: C_15  and  N_69
REMARK    6  A    between atoms: C_16  and  C_17
REMARK    7  A    between atoms: C_17  and  O_18
REMARK    8  A    between atoms: C_19  and  C_21
REMARK    9  A    between atoms: C_19  and  C_34
REMARK   10  A    between atoms: C_19  and  N_69
REMARK   11  A    between atoms: N_25  and  C_26
REMARK   12  A    between atoms: C_26  and  C_27
REMARK   13  A    between atoms: C_27  and  C_28
REMARK   14  A    between atoms: C_34  and  C_35
REMARK   15  A    between atoms: C_34  and  C_36
REMARK                            x       y       z     vdW  Elec       q    Type
REMARK                         _______ _______ _______ _____ _____    ______ ____
ROOT
ATOM      1  N   UNL     1       8.044   1.148  -2.363  0.00  0.00    +0.389 N 
ATOM      2  H   UNL     1       8.941   0.710  -2.123  0.00  0.00    -0.080 HD
ENDROOT
BRANCH   1   3
ATOM      3  C   UNL     1       8.227   2.614  -2.424  0.00  0.00    -0.037 C 
BRANCH   3  12
ATOM      4  C   UNL     1       2.068   6.033   0.023  0.00  0.00    +0.044 C 
ATOM      5  C   UNL     1       2.923   5.513  -1.104  0.00  0.00    -0.050 A 
ATOM      6  C   UNL     1       2.496   5.663  -2.416  0.00  0.00    +0.005 A 
ATOM      7  C   UNL     1       3.262   5.194  -3.462  0.00  0.00    +0.026 A 
ATOM      8  C   UNL     1       4.474   4.564  -3.202  0.00  0.00    +0.049 A 
ATOM      9  C   UNL     1       4.903   4.414  -1.870  0.00  0.00    -0.001 A 
ATOM     10  C   UNL     1       4.110   4.897  -0.824  0.00  0.00    +0.013 A 
ATOM     11  C   UNL     1       6.181   3.750  -1.607  0.00  0.00    +0.017 A 
ATOM     12  C   UNL     1       6.907   3.302  -2.660  0.00  0.00    +0.001 A 
ATOM     13  C   UNL     1       6.435   3.483  -3.978  0.00  0.00    +0.251 A 
ATOM     14  O   UNL     1       7.106   3.077  -4.911  0.00  0.00    -0.268 OA
ATOM     15  N   UNL     1       5.260   4.087  -4.229  0.00  0.00    -0.322 N 
ATOM     16  H   UNL     1       4.963   4.191  -5.147  0.00  0.00    +0.169 HD
ENDBRANCH   3  12
ENDBRANCH   1   3
BRANCH   1  17
ATOM     17  C   UNL     1       7.599   0.640  -3.678  0.00  0.00    -0.075 C 
BRANCH  17  18
ATOM     18  C   UNL     1       8.764   0.736  -4.664  0.00  0.00    +0.009 C 
BRANCH  18  19
ATOM     19  C   UNL     1       8.301   0.276  -6.048  0.00  0.00    +0.154 C 
BRANCH  19  20
ATOM     20  O   UNL     1       9.390   0.366  -6.969  0.00  0.00    -0.395 OA
ATOM     21  H   UNL     1       9.168   0.089  -7.868  0.00  0.00    +0.209 HD
ENDBRANCH  19  20
ENDBRANCH  18  19
ENDBRANCH  17  18
ENDBRANCH   1  17
BRANCH   1  22
ATOM     22  C   UNL     1       7.049   0.806  -1.326  0.00  0.00    +0.006 C 
BRANCH  22  23
ATOM     23  C   UNL     1       6.828  -0.684  -1.330  0.00  0.00    +0.138 A 
ATOM     24  N   UNL     1       7.747  -1.613  -1.225  0.00  0.00    -0.115 NA
ATOM     25  N   UNL     1       7.163  -2.760  -1.276  0.00  0.00    -0.023 NA
ATOM     26  N   UNL     1       5.894  -2.587  -1.407  0.00  0.00    -0.044 NA
ATOM     27  N   UNL     1       5.647  -1.321  -1.441  0.00  0.00    -0.231 N 
BRANCH  27  28
ATOM     28  C   UNL     1       4.330  -0.695  -1.580  0.00  0.00    +0.152 C 
BRANCH  28  29
ATOM     29  C   UNL     1       3.646  -0.637  -0.212  0.00  0.00    +0.058 C 
BRANCH  29  30
ATOM     30  C   UNL     1       2.304   0.034  -0.350  0.00  0.00    -0.046 A 
ATOM     31  C   UNL     1       1.178  -0.721  -0.623  0.00  0.00    +0.004 A 
ATOM     32  C   UNL     1      -0.053  -0.105  -0.750  0.00  0.00    +0.000 A 
ATOM     33  C   UNL     1      -0.159   1.265  -0.604  0.00  0.00    +0.000 A 
ATOM     34  C   UNL     1       0.967   2.020  -0.331  0.00  0.00    +0.000 A 
ATOM     35  C   UNL     1       2.198   1.405  -0.204  0.00  0.00    +0.004 A 
ENDBRANCH  29  30
ENDBRANCH  28  29
ENDBRANCH  27  28
ENDBRANCH  22  23
BRANCH  22  36
ATOM     36  C   UNL     1       7.589   1.237   0.040  0.00  0.00    -0.024 C 
ATOM     37  C   UNL     1       6.586   0.852   1.129  0.00  0.00    +0.006 C 
ATOM     38  C   UNL     1       8.924   0.538   0.304  0.00  0.00    +0.006 C 
ENDBRANCH  22  36
ENDBRANCH   1  22
TORSDOF 12
