REMARK  Name = ZINC36044943
REMARK  8 active torsions:
REMARK  status: ('A' for Active; 'I' for Inactive)
REMARK    1  A    between atoms: C_1  and  C_2
REMARK    2  A    between atoms: C_5  and  N_8
REMARK    3  A    between atoms: C_10  and  C_32
REMARK    4  A    between atoms: C_14  and  C_16
REMARK    5  A    between atoms: C_16  and  N_17
REMARK    6  A    between atoms: N_17  and  C_18
REMARK    7  A    between atoms: C_18  and  C_19
REMARK    8  A    between atoms: C_25  and  C_27
REMARK                            x       y       z     vdW  Elec       q    Type
REMARK                         _______ _______ _______ _____ _____    ______ ____
ROOT
ATOM      1  N   UNL     1      -0.213  -4.024   0.445  0.00  0.00    -0.287 N 
ATOM      2  C   UNL     1      -1.191  -4.816  -0.105  0.00  0.00    +0.122 A 
ATOM      3  C   UNL     1      -0.885  -6.098   0.218  0.00  0.00    +0.091 A 
ATOM      4  N   UNL     1       0.252  -6.086   0.947  0.00  0.00    -0.214 NA
ATOM      5  C   UNL     1       0.664  -4.850   1.082  0.00  0.00    +0.207 A 
ATOM      6  N   UNL     1       1.804  -4.448   1.766  0.00  0.00    -0.254 N 
ATOM      7  C   UNL     1       2.594  -5.366   2.357  0.00  0.00    +0.237 C 
ATOM      8  O   UNL     1       2.310  -6.543   2.292  0.00  0.00    -0.274 OA
ATOM      9  H   UNL     1       2.031  -3.506   1.818  0.00  0.00    +0.158 HD
ENDROOT
BRANCH   1  14
ATOM     10  C   UNL     1       0.124   1.632   0.105  0.00  0.00    +0.044 C 
ATOM     11  C   UNL     1       0.035   0.130   0.195  0.00  0.00    -0.050 A 
ATOM     12  C   UNL     1      -0.166  -0.619  -0.950  0.00  0.00    +0.005 A 
ATOM     13  C   UNL     1      -0.248  -1.996  -0.870  0.00  0.00    +0.026 A 
ATOM     14  C   UNL     1      -0.130  -2.627   0.361  0.00  0.00    +0.049 A 
ATOM     15  C   UNL     1       0.072  -1.872   1.508  0.00  0.00    +0.026 A 
ATOM     16  C   UNL     1       0.159  -0.496   1.422  0.00  0.00    +0.005 A 
ENDBRANCH   1  14
BRANCH   3  17
ATOM     17  C   UNL     1      -1.664  -7.302  -0.162  0.00  0.00    +0.002 A 
ATOM     18  C   UNL     1      -2.823  -7.174  -0.925  0.00  0.00    +0.010 A 
ATOM     19  C   UNL     1      -3.543  -8.297  -1.276  0.00  0.00    +0.001 A 
ATOM     20  C   UNL     1      -3.116  -9.550  -0.872  0.00  0.00    +0.000 A 
ATOM     21  C   UNL     1      -1.967  -9.683  -0.114  0.00  0.00    +0.001 A 
ATOM     22  C   UNL     1      -1.235  -8.567   0.237  0.00  0.00    +0.010 A 
ENDBRANCH   3  17
BRANCH   7  23
ATOM     23  C   UNL     1       3.831  -4.929   3.099  0.00  0.00    +0.204 C 
BRANCH  23  24
ATOM     24  N   UNL     1       4.513  -6.105   3.647  0.00  0.00    -0.284 N 
ATOM     25  C   UNL     1       4.142  -6.602   4.843  0.00  0.00    +0.254 C 
ATOM     26  O   UNL     1       4.771  -7.516   5.344  0.00  0.00    -0.269 OA
BRANCH  25  27
ATOM     27  C   UNL     1       2.981  -6.042   5.542  0.00  0.00    +0.074 A 
ATOM     28  C   UNL     1       2.508  -6.323   6.814  0.00  0.00    +0.021 A 
ATOM     29  C   UNL     1       1.385  -5.632   7.200  0.00  0.00    +0.008 A 
ATOM     30  C   UNL     1       0.828  -4.746   6.337  0.00  0.00    +0.046 A 
ATOM     31  S   UNL     1       1.815  -4.817   4.980  0.00  0.00    -0.092 S 
ENDBRANCH  25  27
BRANCH  24  32
ATOM     32  C   UNL     1       5.597  -6.740   2.893  0.00  0.00    +0.143 C 
BRANCH  32  33
ATOM     33  C   UNL     1       6.911  -6.112   3.278  0.00  0.00    -0.030 A 
ATOM     34  C   UNL     1       7.380  -5.011   2.587  0.00  0.00    +0.005 A 
ATOM     35  C   UNL     1       8.586  -4.434   2.940  0.00  0.00    +0.000 A 
ATOM     36  C   UNL     1       9.323  -4.959   3.985  0.00  0.00    +0.000 A 
ATOM     37  C   UNL     1       8.854  -6.060   4.678  0.00  0.00    +0.000 A 
ATOM     38  C   UNL     1       7.646  -6.633   4.327  0.00  0.00    +0.005 A 
ENDBRANCH  32  33
ENDBRANCH  24  32
ENDBRANCH  23  24
ENDBRANCH   7  23
TORSDOF 7
