REMARK  Name = ZINC38742886
REMARK  11 active torsions:
REMARK  status: ('A' for Active; 'I' for Inactive)
REMARK    1  A    between atoms: C_1  and  C_2
REMARK    2  A    between atoms: C_2  and  C_3
REMARK    3  A    between atoms: C_2  and  C_4
REMARK    4  A    between atoms: C_2  and  C_5
REMARK    5  A    between atoms: C_7  and  C_15
REMARK    6  A    between atoms: C_9  and  C_11
REMARK    7  A    between atoms: C_11  and  C_12
REMARK    8  A    between atoms: C_11  and  C_13
REMARK    9  A    between atoms: C_11  and  C_14
REMARK   10  A    between atoms: C_18  and  C_25
REMARK   11  A    between atoms: C_28  and  C_31
REMARK                            x       y       z     vdW  Elec       q    Type
REMARK                         _______ _______ _______ _____ _____    ______ ____
ROOT
ATOM      1  C   UNL     1      -0.022  -2.582  -4.271  0.00  0.00    +0.125 C 
ATOM      2  N   UNL     1      -1.254  -2.999  -4.222  0.00  0.00    -0.173 NA
ATOM      3  N   UNL     1      -1.791  -3.860  -5.154  0.00  0.00    -0.206 N 
ATOM      4  C   UNL     1      -2.867  -4.848  -5.402  0.00  0.00    +0.206 C 
ATOM      5  N   UNL     1      -2.241  -5.920  -6.212  0.00  0.00    -0.231 NA
ATOM      6  N   UNL     1      -0.866  -5.478  -6.503  0.00  0.00    -0.224 NA
ATOM      7  C   UNL     1      -0.961  -4.008  -6.391  0.00  0.00    +0.240 C 
ATOM      8  S   UNL     1       0.604  -3.269  -5.796  0.00  0.00    -0.063 S 
ATOM      9  H   UNL     1      -2.757  -6.077  -7.064  0.00  0.00    +0.143 HD
ATOM     10  H   UNL     1      -0.586  -5.753  -7.432  0.00  0.00    +0.144 HD
ENDROOT
BRANCH   1  13
ATOM     11  C   UNL     1       0.707  -0.490  -1.238  0.00  0.00    -0.041 A 
ATOM     12  C   UNL     1       0.036  -1.283  -2.146  0.00  0.00    +0.014 A 
ATOM     13  C   UNL     1       0.691  -1.732  -3.293  0.00  0.00    +0.009 A 
ATOM     14  C   UNL     1       2.022  -1.376  -3.515  0.00  0.00    +0.014 A 
ATOM     15  C   UNL     1       2.682  -0.582  -2.599  0.00  0.00    -0.041 A 
ATOM     16  C   UNL     1       2.025  -0.136  -1.466  0.00  0.00    +0.008 A 
BRANCH  11  18
ATOM     17  C   UNL     1      -0.019   1.526   0.010  0.00  0.00    +0.015 C 
ATOM     18  C   UNL     1       0.002  -0.004   0.002  0.00  0.00    -0.013 C 
ATOM     19  C   UNL     1       0.742  -0.511   1.242  0.00  0.00    +0.015 C 
ATOM     20  C   UNL     1      -1.433  -0.534   0.013  0.00  0.00    +0.015 C 
ENDBRANCH  11  18
BRANCH  15  21
ATOM     21  C   UNL     1       4.119  -0.197  -2.836  0.00  0.00    -0.013 C 
ATOM     22  C   UNL     1       4.602  -0.811  -4.152  0.00  0.00    +0.015 C 
ATOM     23  C   UNL     1       4.233   1.327  -2.913  0.00  0.00    +0.015 C 
ATOM     24  C   UNL     1       4.983  -0.716  -1.684  0.00  0.00    +0.015 C 
ENDBRANCH  15  21
ENDBRANCH   1  13
BRANCH   4  25
ATOM     25  C   UNL     1      -3.380  -5.415  -4.077  0.00  0.00    +0.190 C 
ATOM     26  C   UNL     1      -4.437  -6.477  -4.321  0.00  0.00    +0.034 C 
ATOM     27  C   UNL     1      -5.540  -5.977  -3.730  0.00  0.00    +0.091 C 
ATOM     28  N   UNL     1      -5.272  -4.767  -3.173  0.00  0.00    -0.154 NA
ATOM     29  N   UNL     1      -4.105  -4.384  -3.316  0.00  0.00    -0.176 NA
BRANCH  27  30
ATOM     30  C   UNL     1      -6.861  -6.652  -3.694  0.00  0.00    +0.002 A 
ATOM     31  C   UNL     1      -7.026  -7.898  -4.295  0.00  0.00    +0.010 A 
ATOM     32  C   UNL     1      -8.257  -8.521  -4.258  0.00  0.00    +0.001 A 
ATOM     33  C   UNL     1      -9.325  -7.912  -3.625  0.00  0.00    +0.000 A 
ATOM     34  C   UNL     1      -9.167  -6.675  -3.027  0.00  0.00    +0.001 A 
ATOM     35  C   UNL     1      -7.939  -6.044  -3.053  0.00  0.00    +0.010 A 
ENDBRANCH  27  30
ENDBRANCH   4  25
TORSDOF 5
