REMARK  Name = ZINC42951371
REMARK  7 active torsions:
REMARK  status: ('A' for Active; 'I' for Inactive)
REMARK    1  A    between atoms: C_1  and  C_2
REMARK    2  A    between atoms: C_8  and  C_10
REMARK    3  A    between atoms: C_10  and  C_12
REMARK    4  A    between atoms: C_10  and  S_15
REMARK    5  A    between atoms: C_12  and  C_13
REMARK    6  A    between atoms: C_12  and  C_14
REMARK    7  A    between atoms: S_15  and  C_16
REMARK                            x       y       z     vdW  Elec       q    Type
REMARK                         _______ _______ _______ _____ _____    ______ ____
ROOT
ATOM      1  C   UNL     1      -0.121  -3.987   3.001  0.00  0.00    +0.143 C 
ENDROOT
BRANCH   1   9
ATOM      2  C   UNL     1      -1.896   2.019   2.100  0.00  0.00    +0.007 C 
ATOM      3  C   UNL     1      -1.194   0.742   1.634  0.00  0.00    -0.011 C 
ATOM      4  C   UNL     1      -2.213  -0.189   0.973  0.00  0.00    +0.022 C 
ATOM      5  C   UNL     1      -1.500  -1.450   0.477  0.00  0.00    +0.108 C 
ATOM      6  N   UNL     1      -0.771  -2.055   1.601  0.00  0.00    -0.301 N 
ATOM      7  C   UNL     1       0.168  -1.221   2.364  0.00  0.00    +0.108 C 
ATOM      8  C   UNL     1      -0.564   0.038   2.839  0.00  0.00    +0.022 C 
ATOM      9  C   UNL     1      -0.961  -3.349   1.925  0.00  0.00    +0.229 C 
ATOM     10  O   UNL     1      -1.809  -4.000   1.352  0.00  0.00    -0.274 OA
ENDBRANCH   1   9
BRANCH   1  11
ATOM     11  C   UNL     1       0.844  -4.991   2.366  0.00  0.00    +0.005 C 
ATOM     12  C   UNL     1       0.050  -6.017   1.555  0.00  0.00    +0.009 C 
ATOM     13  C   UNL     1       1.815  -4.252   1.444  0.00  0.00    +0.009 C 
ENDBRANCH   1  11
BRANCH   1  14
ATOM     14  S   UNL     1      -1.198  -4.846   4.181  0.00  0.00    -0.073 S 
BRANCH  14  15
ATOM     15  C   UNL     1      -0.096  -5.403   5.437  0.00  0.00    +0.198 A 
ATOM     16  N   UNL     1       1.196  -5.205   5.460  0.00  0.00    -0.121 NA
ATOM     17  N   UNL     1       1.706  -5.802   6.621  0.00  0.00    -0.121 NA
ATOM     18  C   UNL     1       0.708  -6.339   7.256  0.00  0.00    +0.202 A 
ATOM     19  N   UNL     1      -0.456  -6.120   6.568  0.00  0.00    -0.264 N 
ATOM     20  C   UNL     1      -1.648  -6.625   7.110  0.00  0.00    +0.065 A 
ATOM     21  C   UNL     1      -2.933  -6.508   6.556  0.00  0.00    +0.027 A 
ATOM     22  C   UNL     1      -4.025  -7.053   7.191  0.00  0.00    +0.002 A 
ATOM     23  C   UNL     1      -3.894  -7.731   8.391  0.00  0.00    +0.001 A 
ATOM     24  C   UNL     1      -2.639  -7.860   8.958  0.00  0.00    +0.017 A 
ATOM     25  C   UNL     1      -1.548  -7.316   8.322  0.00  0.00    +0.040 A 
ATOM     26  S   UNL     1       0.191  -7.262   8.684  0.00  0.00    -0.048 S 
ENDBRANCH  14  15
ENDBRANCH   1  14
TORSDOF 4
