REMARK  Name = ZINC08748597
REMARK  6 active torsions:
REMARK  status: ('A' for Active; 'I' for Inactive)
REMARK    1  A    between atoms: C_1  and  C_2
REMARK    2  A    between atoms: C_4  and  C_27
REMARK    3  A    between atoms: C_6  and  S_8
REMARK    4  A    between atoms: S_8  and  C_9
REMARK    5  A    between atoms: C_9  and  C_10
REMARK    6  A    between atoms: C_20  and  C_22
REMARK                            x       y       z     vdW  Elec       q    Type
REMARK                         _______ _______ _______ _____ _____    ______ ____
ROOT
ATOM      1  C   UNL     1      -0.092   2.121   2.266  0.00  0.00    +0.227 C 
ATOM      2  O   UNL     1       1.101   2.324   2.187  0.00  0.00    -0.275 OA
ATOM      3  N   UNL     1      -0.751   1.566   1.230  0.00  0.00    -0.289 N 
ATOM      4  C   UNL     1      -2.213   1.398   1.277  0.00  0.00    +0.114 C 
ATOM      5  C   UNL     1      -2.836   2.283   0.186  0.00  0.00    +0.062 C 
ATOM      6  C   UNL     1      -2.025   2.148  -1.062  0.00  0.00    -0.003 A 
ATOM      7  C   UNL     1      -0.768   1.644  -1.192  0.00  0.00    -0.012 A 
ATOM      8  C   UNL     1      -0.227   1.635  -2.476  0.00  0.00    +0.013 A 
ATOM      9  C   UNL     1      -0.948   2.110  -3.517  0.00  0.00    +0.046 A 
ATOM     10  S   UNL     1      -2.466   2.608  -2.717  0.00  0.00    -0.101 S 
ATOM     11  C   UNL     1      -0.021   1.122   0.035  0.00  0.00    +0.144 C 
ENDROOT
BRANCH  11  12
ATOM     12  C   UNL     1       1.379   1.679   0.055  0.00  0.00    +0.015 A 
ATOM     13  C   UNL     1       2.560   1.018   0.125  0.00  0.00    +0.013 A 
ATOM     14  C   UNL     1       3.736   1.744   0.127  0.00  0.00    +0.008 A 
ATOM     15  C   UNL     1       3.673   3.097   0.068  0.00  0.00    +0.045 A 
ATOM     16  S   UNL     1       1.911   3.382   0.001  0.00  0.00    -0.099 S 
ENDBRANCH  11  12
BRANCH   1  17
ATOM     17  C   UNL     1      -0.838   2.490   3.523  0.00  0.00    +0.173 C 
BRANCH  17  18
ATOM     18  S   UNL     1       0.315   3.208   4.720  0.00  0.00    -0.077 S 
BRANCH  18  24
ATOM     19  C   UNL     1      -4.387   3.108   6.738  0.00  0.00    +0.066 C 
ATOM     20  C   UNL     1      -2.931   3.461   6.898  0.00  0.00    +0.043 A 
ATOM     21  C   UNL     1      -2.473   4.034   8.074  0.00  0.00    +0.046 A 
ATOM     22  C   UNL     1      -1.126   4.343   8.181  0.00  0.00    +0.043 A 
ATOM     23  N   UNL     1      -0.322   4.084   7.163  0.00  0.00    -0.227 NA
ATOM     24  C   UNL     1      -0.792   3.535   6.051  0.00  0.00    +0.189 A 
ATOM     25  N   UNL     1      -2.075   3.233   5.915  0.00  0.00    -0.227 NA
ATOM     26  C   UNL     1      -0.584   4.966   9.441  0.00  0.00    +0.066 C 
ENDBRANCH  18  24
ENDBRANCH  17  18
ENDBRANCH   1  17
TORSDOF 4
