REMARK  Name = ZINC08901651
REMARK  7 active torsions:
REMARK  status: ('A' for Active; 'I' for Inactive)
REMARK    1  A    between atoms: C_1  and  C_2
REMARK    2  A    between atoms: C_5  and  S_9
REMARK    3  A    between atoms: S_9  and  N_12
REMARK    4  A    between atoms: N_12  and  C_13
REMARK    5  A    between atoms: C_13  and  C_14
REMARK    6  A    between atoms: C_14  and  C_16
REMARK    7  A    between atoms: C_14  and  N_51
REMARK                            x       y       z     vdW  Elec       q    Type
REMARK                         _______ _______ _______ _____ _____    ______ ____
ROOT
ATOM      1  C   UNL     1       4.179   0.752  -1.474  0.00  0.00    +0.095 C 
ENDROOT
BRANCH   1   2
ATOM      2  N   UNL     1       5.627   0.548  -1.560  0.00  0.00    -0.191 NA
ATOM      3  H   UNL     1       6.153   0.458  -0.750  0.00  0.00    +0.148 HD
BRANCH   2   4
ATOM      4  S   UNL     1       6.365   0.471  -3.040  0.00  0.00    +0.058 S 
ATOM      5  O   UNL     1       7.754   0.297  -2.793  0.00  0.00    -0.153 OA
ATOM      6  O   UNL     1       5.611  -0.443  -3.824  0.00  0.00    -0.153 OA
BRANCH   4  11
ATOM      7  C   UNL     1       5.738   5.885  -5.632  0.00  0.00    +0.045 C 
ATOM      8  C   UNL     1       5.895   4.533  -4.984  0.00  0.00    -0.032 A 
ATOM      9  C   UNL     1       4.938   3.556  -5.183  0.00  0.00    +0.007 A 
ATOM     10  C   UNL     1       5.084   2.315  -4.593  0.00  0.00    +0.029 A 
ATOM     11  C   UNL     1       6.183   2.052  -3.796  0.00  0.00    +0.107 A 
ATOM     12  C   UNL     1       7.141   3.028  -3.597  0.00  0.00    +0.048 A 
ATOM     13  C   UNL     1       6.998   4.269  -4.192  0.00  0.00    +0.046 A 
ATOM     14 CL   UNL     1       8.201   5.496  -3.942  0.00  0.00    -0.083 Cl
ENDBRANCH   4  11
ENDBRANCH   2   4
ENDBRANCH   1   2
BRANCH   1  15
ATOM     15  C   UNL     1       3.704   0.446  -0.052  0.00  0.00    -0.021 C 
BRANCH  15  22
ATOM     16  C   UNL     1       5.629   1.626   0.846  0.00  0.00    -0.078 C 
ATOM     17  C   UNL     1       6.152   2.507   1.948  0.00  0.00    -0.019 C 
ATOM     18  C   UNL     1       6.506   1.619   3.159  0.00  0.00    -0.002 C 
ATOM     19  C   UNL     1       5.324   1.230   3.921  0.00  0.00    -0.002 C 
ATOM     20  C   UNL     1       4.330   0.408   3.075  0.00  0.00    -0.019 C 
ATOM     21  C   UNL     1       3.555   1.353   2.198  0.00  0.00    -0.078 C 
ATOM     22  N   UNL     1       4.129   1.550   0.823  0.00  0.00    +0.385 N 
ATOM     23  H   UNL     1       3.765   2.432   0.444  0.00  0.00    -0.081 HD
ENDBRANCH  15  22
BRANCH  15  24
ATOM     24  C   UNL     1       2.199   0.369  -0.030  0.00  0.00    -0.053 A 
ATOM     25  C   UNL     1       1.559  -0.856  -0.045  0.00  0.00    +0.009 A 
ATOM     26  C   UNL     1       0.204  -0.889  -0.025  0.00  0.00    +0.045 A 
ATOM     27  S   UNL     1      -0.208   0.847   0.017  0.00  0.00    -0.105 S 
ATOM     28  C   UNL     1       1.454   1.501   0.005  0.00  0.00    +0.047 A 
ENDBRANCH  15  24
ENDBRANCH   1  15
TORSDOF 6
