REMARK  Name = ZINC44871334
REMARK  8 active torsions:
REMARK  status: ('A' for Active; 'I' for Inactive)
REMARK    1  A    between atoms: C_1  and  C_2
REMARK    2  A    between atoms: C_2  and  C_3
REMARK    3  A    between atoms: C_6  and  C_9
REMARK    4  A    between atoms: C_9  and  C_11
REMARK    5  A    between atoms: C_9  and  N_12
REMARK    6  A    between atoms: C_13  and  C_15
REMARK    7  A    between atoms: C_15  and  N_16
REMARK    8  A    between atoms: C_21  and  C_23
REMARK                            x       y       z     vdW  Elec       q    Type
REMARK                         _______ _______ _______ _____ _____    ______ ____
ROOT
ATOM      1  N   UNL     1       4.128  -1.089  -4.686  0.00  0.00    -0.310 N 
ATOM      2  C   UNL     1       4.653  -1.004  -5.924  0.00  0.00    +0.197 C 
ATOM      3  O   UNL     1       4.113  -1.569  -6.852  0.00  0.00    -0.278 OA
ATOM      4  H   UNL     1       4.560  -0.637  -3.944  0.00  0.00    +0.149 HD
ENDROOT
BRANCH   1   5
ATOM      5  C   UNL     1       2.906  -1.865  -4.460  0.00  0.00    +0.100 C 
ATOM      6  C   UNL     1       3.268  -3.337  -4.249  0.00  0.00    +0.033 C 
BRANCH   5  10
ATOM      7  C   UNL     1       0.899  -0.384  -0.992  0.00  0.00    -0.048 A 
ATOM      8  C   UNL     1       0.171  -0.757  -2.105  0.00  0.00    +0.004 A 
ATOM      9  C   UNL     1       0.820  -1.236  -3.228  0.00  0.00    +0.006 A 
ATOM     10  C   UNL     1       2.198  -1.342  -3.236  0.00  0.00    -0.027 A 
ATOM     11  C   UNL     1       2.927  -0.968  -2.123  0.00  0.00    +0.006 A 
ATOM     12  C   UNL     1       2.278  -0.485  -1.002  0.00  0.00    +0.004 A 
BRANCH   7  14
ATOM     13  C   UNL     1       0.046   1.657   0.127  0.00  0.00    +0.009 C 
ATOM     14  C   UNL     1       0.191   0.138   0.232  0.00  0.00    +0.032 C 
ENDBRANCH   7  14
ENDBRANCH   5  10
ENDBRANCH   1   5
BRANCH   2  15
ATOM     15  C   UNL     1       5.910  -0.206  -6.157  0.00  0.00    +0.020 C 
BRANCH  15  16
ATOM     16  N   UNL     1       6.273  -0.269  -7.579  0.00  0.00    +0.393 N 
ATOM     17  C   UNL     1       5.257   0.431  -8.374  0.00  0.00    -0.077 C 
ATOM     18  C   UNL     1       5.588   0.299  -9.862  0.00  0.00    -0.019 C 
ATOM     19  C   UNL     1       6.963   0.918 -10.130  0.00  0.00    -0.003 C 
ATOM     20  C   UNL     1       8.003   0.231  -9.241  0.00  0.00    -0.006 C 
ATOM     21  C   UNL     1       7.583   0.365  -7.776  0.00  0.00    +0.020 C 
ATOM     22  H   UNL     1       6.320  -1.233  -7.871  0.00  0.00    -0.080 HD
BRANCH  21  23
ATOM     23  C   UNL     1       8.604  -0.310  -6.897  0.00  0.00    +0.197 C 
ATOM     24  O   UNL     1       8.466  -1.476  -6.593  0.00  0.00    -0.278 OA
ATOM     25  N   UNL     1       9.670   0.382  -6.449  0.00  0.00    -0.331 N 
ATOM     26  H   UNL     1       9.780   1.315  -6.693  0.00  0.00    +0.145 HD
ATOM     27  H   UNL     1      10.328  -0.052  -5.884  0.00  0.00    +0.145 HD
ENDBRANCH  21  23
ENDBRANCH  15  16
ENDBRANCH   2  15
TORSDOF 6
