REMARK  Name = ZINC20504079
REMARK  10 active torsions:
REMARK  status: ('A' for Active; 'I' for Inactive)
REMARK    1  A    between atoms: C_1  and  N_2
REMARK    2  A    between atoms: N_2  and  C_3
REMARK    3  A    between atoms: N_2  and  C_4
REMARK    4  A    between atoms: C_4  and  C_5
REMARK    5  A    between atoms: C_5  and  N_6
REMARK    6  A    between atoms: N_6  and  C_7
REMARK    7  A    between atoms: C_10  and  C_33
REMARK    8  A    between atoms: C_13  and  C_29
REMARK    9  A    between atoms: C_29  and  O_31
REMARK   10  A    between atoms: O_31  and  C_32
REMARK                            x       y       z     vdW  Elec       q    Type
REMARK                         _______ _______ _______ _____ _____    ______ ____
ROOT
ATOM      1  C   UNL     1       5.735   4.122   1.004  0.00  0.00    +0.051 C 
ATOM      2  C   UNL     1       6.570   2.905   1.410  0.00  0.00    +0.008 C 
ATOM      3  C   UNL     1       6.345   1.772   0.405  0.00  0.00    -0.034 C 
ATOM      4  N   UNL     1       4.919   1.429   0.372  0.00  0.00    +0.399 N 
ATOM      5  C   UNL     1       4.665   0.230  -0.434  0.00  0.00    +0.049 C 
ATOM      6  C   UNL     1       3.263  -0.310  -0.119  0.00  0.00    +0.033 C 
ATOM      7  C   UNL     1       2.291   0.841  -0.178  0.00  0.00    -0.022 A 
ATOM      8  C   UNL     1       0.848   0.819  -0.259  0.00  0.00    +0.003 A 
ATOM      9  C   UNL     1      -0.086  -0.222  -0.307  0.00  0.00    +0.010 A 
ATOM     10  C   UNL     1      -1.409   0.134  -0.390  0.00  0.00    +0.001 A 
ATOM     11  C   UNL     1      -1.815   1.458  -0.415  0.00  0.00    +0.002 A 
ATOM     12  C   UNL     1      -0.914   2.508  -0.368  0.00  0.00    +0.026 A 
ATOM     13  C   UNL     1       0.437   2.177  -0.289  0.00  0.00    +0.047 A 
ATOM     14  N   UNL     1       1.565   2.945  -0.228  0.00  0.00    -0.359 N 
ATOM     15  H   UNL     1       1.484   4.042  -0.236  0.00  0.00    +0.166 HD
ATOM     16  C   UNL     1       2.670   2.141  -0.162  0.00  0.00    +0.007 A 
ATOM     17  C   UNL     1       4.113   2.571  -0.082  0.00  0.00    -0.017 C 
ATOM     18  C   UNL     1       4.260   3.720   0.917  0.00  0.00    +0.009 C 
ATOM     19  H   UNL     1       4.613   1.188   1.401  0.00  0.00    -0.079 HD
ENDROOT
BRANCH   3  20
ATOM     20  C   UNL     1       7.144   0.564   0.821  0.00  0.00    -0.058 A 
ATOM     21  C   UNL     1       6.673  -0.265   1.821  0.00  0.00    +0.005 A 
ATOM     22  C   UNL     1       7.401  -1.376   2.201  0.00  0.00    +0.041 A 
ATOM     23  C   UNL     1       8.610  -1.654   1.587  0.00  0.00    +0.158 A 
ATOM     24  C   UNL     1       9.086  -0.820   0.587  0.00  0.00    +0.159 A 
ATOM     25  C   UNL     1       8.351   0.289   0.205  0.00  0.00    +0.043 A 
ATOM     26  F   UNL     1      10.265  -1.089  -0.014  0.00  0.00    -0.202 F 
ATOM     27  F   UNL     1       9.326  -2.737   1.962  0.00  0.00    -0.202 F 
ENDBRANCH   3  20
BRANCH   1  28
ATOM     28  N   UNL     1       5.897   5.184   2.006  0.00  0.00    -0.315 NA
ATOM     29  H   UNL     1       5.988   4.720   2.999  0.00  0.00    +0.122 HD
BRANCH  28  30
ATOM     30  C   UNL     1       7.093   5.991   1.730  0.00  0.00    +0.062 C 
BRANCH  30  31
ATOM     31  C   UNL     1       7.227   7.084   2.792  0.00  0.00    -0.064 C 
BRANCH  31  33
ATOM     32  C   UNL     1       8.458   9.088   3.366  0.00  0.00    -0.097 C 
ATOM     33  N   UNL     1       8.423   7.891   2.516  0.00  0.00    +0.377 N 
ATOM     34  C   UNL     1       9.645   7.093   2.679  0.00  0.00    -0.097 C 
ATOM     35  H   UNL     1       8.373   8.222   1.468  0.00  0.00    -0.083 HD
ENDBRANCH  31  33
ENDBRANCH  30  31
ENDBRANCH  28  30
ENDBRANCH   1  28
BRANCH   5  36
ATOM     36  C   UNL     1       4.752   0.581  -1.897  0.00  0.00    +0.294 C 
ATOM     37  O   UNL     1       5.195   1.652  -2.236  0.00  0.00    -0.253 OA
BRANCH  36  38
ATOM     38  O   UNL     1       4.337  -0.298  -2.823  0.00  0.00    -0.469 OA
ATOM     39  C   UNL     1       4.450   0.108  -4.213  0.00  0.00    +0.280 C 
ENDBRANCH  36  38
ENDBRANCH   5  36
TORSDOF 7
