REMARK  Name = ZINC08045134
REMARK  6 active torsions:
REMARK  status: ('A' for Active; 'I' for Inactive)
REMARK    1  A    between atoms: C_1  and  O_2
REMARK    2  A    between atoms: O_2  and  C_3
REMARK    3  A    between atoms: C_5  and  C_11
REMARK    4  A    between atoms: C_8  and  O_9
REMARK    5  A    between atoms: N_12  and  N_13
REMARK    6  A    between atoms: C_15  and  C_19
REMARK                            x       y       z     vdW  Elec       q    Type
REMARK                         _______ _______ _______ _____ _____    ______ ____
ROOT
ATOM      1  C   UNL     1      -6.047  -1.681   0.040  0.00  0.00    +0.141 C 
ATOM      2  N   UNL     1      -6.002  -0.383   0.045  0.00  0.00    -0.172 NA
ENDROOT
BRANCH   1   5
ATOM      3  C   UNL     1      -3.669  -4.587   0.012  0.00  0.00    +0.163 A 
ATOM      4  C   UNL     1      -4.844  -3.858   0.023  0.00  0.00    +0.059 A 
ATOM      5  C   UNL     1      -4.798  -2.462   0.029  0.00  0.00    -0.000 A 
ATOM      6  C   UNL     1      -3.563  -1.808   0.023  0.00  0.00    +0.033 A 
ATOM      7  C   UNL     1      -2.394  -2.541   0.012  0.00  0.00    +0.087 A 
ATOM      8  C   UNL     1      -2.442  -3.929   0.012  0.00  0.00    +0.177 A 
ATOM      9 CL   UNL     1      -0.861  -1.727   0.005  0.00  0.00    -0.080 Cl
BRANCH   3  11
ATOM     10  C   UNL     1      -5.005  -6.554   0.007  0.00  0.00    +0.277 C 
ATOM     11  O   UNL     1      -3.712  -5.946   0.007  0.00  0.00    -0.491 OA
ENDBRANCH   3  11
BRANCH   8  12
ATOM     12  O   UNL     1      -1.287  -4.647   0.007  0.00  0.00    -0.502 OA
ATOM     13  H   UNL     1      -0.955  -4.851  -0.878  0.00  0.00    +0.292 HD
ENDBRANCH   8  12
ENDBRANCH   1   5
BRANCH   2  14
ATOM     14  N   UNL     1      -7.186   0.360  -0.051  0.00  0.00    -0.215 N 
ATOM     15  C   UNL     1      -8.467  -0.157  -0.049  0.00  0.00    +0.141 A 
ATOM     16  C   UNL     1      -9.325   0.873  -0.157  0.00  0.00    +0.067 A 
ATOM     17  N   UNL     1      -8.571   2.042  -0.226  0.00  0.00    -0.332 N 
ATOM     18  C   UNL     1      -7.270   1.700  -0.154  0.00  0.00    +0.179 A 
ATOM     19  S   UNL     1      -5.946   2.785  -0.192  0.00  0.00    -0.011 S 
ATOM     20  H   UNL     1      -8.921   2.943  -0.308  0.00  0.00    +0.168 HD
BRANCH  16  21
ATOM     21  C   UNL     1     -10.801   0.781  -0.195  0.00  0.00    -0.000 A 
ATOM     22  C   UNL     1     -11.428  -0.463  -0.110  0.00  0.00    +0.010 A 
ATOM     23  C   UNL     1     -12.805  -0.542  -0.146  0.00  0.00    +0.001 A 
ATOM     24  C   UNL     1     -13.564   0.609  -0.266  0.00  0.00    +0.000 A 
ATOM     25  C   UNL     1     -12.948   1.845  -0.351  0.00  0.00    +0.001 A 
ATOM     26  C   UNL     1     -11.572   1.938  -0.310  0.00  0.00    +0.010 A 
ENDBRANCH  16  21
ENDBRANCH   2  14
TORSDOF 5
