REMARK  Name = ZINC19845717
REMARK  6 active torsions:
REMARK  status: ('A' for Active; 'I' for Inactive)
REMARK    1  A    between atoms: C_1  and  O_2
REMARK    2  A    between atoms: O_2  and  C_3
REMARK    3  A    between atoms: C_5  and  C_18
REMARK    4  A    between atoms: C_8  and  O_9
REMARK    5  A    between atoms: O_9  and  C_10
REMARK    6  A    between atoms: C_15  and  N_16
REMARK                            x       y       z     vdW  Elec       q    Type
REMARK                         _______ _______ _______ _____ _____    ______ ____
ROOT
ATOM      1  O   UNL     1       2.319   3.873   0.001  0.00  0.00    -0.451 OA
ENDROOT
BRANCH   1   2
ATOM      2  C   UNL     1       2.963   4.028  -1.187  0.00  0.00    +0.149 A 
ATOM      3  C   UNL     1       2.378   3.575  -2.358  0.00  0.00    +0.049 A 
ATOM      4  C   UNL     1       3.034   3.732  -3.565  0.00  0.00    +0.019 A 
ATOM      5  C   UNL     1       4.275   4.342  -3.607  0.00  0.00    +0.020 A 
ATOM      6  C   UNL     1       4.866   4.796  -2.443  0.00  0.00    +0.041 A 
ATOM      7  C   UNL     1       4.211   4.647  -1.229  0.00  0.00    +0.068 A 
ATOM      8 BR   UNL     1       5.166   4.553  -5.262  0.00  0.00    -0.050 Br
BRANCH   7   9
ATOM      9  N   UNL     1       4.804   5.111  -0.050  0.00  0.00    -0.355 N 
ATOM     10  H   UNL     1       5.789   5.600  -0.085  0.00  0.00    +0.142 HD
ATOM     11  H   UNL     1       4.286   4.988   0.912  0.00  0.00    +0.142 HD
ENDBRANCH   7   9
ENDBRANCH   1   2
BRANCH   1  17
ATOM     12  C   UNL     1       1.193   1.774   0.030  0.00  0.00    +0.163 A 
ATOM     13  C   UNL     1       0.014   1.054   0.040  0.00  0.00    +0.068 A 
ATOM     14  C   UNL     1      -1.211   1.726   0.024  0.00  0.00    +0.055 A 
ATOM     15  C   UNL     1      -1.238   3.123   0.010  0.00  0.00    +0.023 A 
ATOM     16  C   UNL     1      -0.058   3.835   0.001  0.00  0.00    +0.051 A 
ATOM     17  C   UNL     1       1.159   3.167   0.010  0.00  0.00    +0.170 A 
BRANCH  12  19
ATOM     18  C   UNL     1       2.348  -0.305   0.060  0.00  0.00    +0.277 C 
ATOM     19  O   UNL     1       2.387   1.123   0.040  0.00  0.00    -0.491 OA
ENDBRANCH  12  19
BRANCH  14  20
ATOM     20  C   UNL     1      -2.436   0.985   0.028  0.00  0.00    +0.099 C 
ATOM     21  N   UNL     1      -3.408   0.397   0.031  0.00  0.00    -0.191 NA
ENDBRANCH  14  20
ENDBRANCH   1  17
TORSDOF 5
