REMARK  Name = ZINC38689916
REMARK  4 active torsions:
REMARK  status: ('A' for Active; 'I' for Inactive)
REMARK    1  A    between atoms: C_1  and  C_2
REMARK    2  A    between atoms: C_3  and  C_12
REMARK    3  A    between atoms: N_10  and  C_11
REMARK    4  A    between atoms: N_13  and  N_14
REMARK                            x       y       z     vdW  Elec       q    Type
REMARK                         _______ _______ _______ _____ _____    ______ ____
ROOT
ATOM      1  N   UNL     1      -0.009  -0.735  -4.812  0.00  0.00    -0.206 N 
ATOM      2  C   UNL     1      -0.001  -1.649  -5.844  0.00  0.00    +0.227 C 
ATOM      3  N   UNL     1       0.013  -2.926  -5.539  0.00  0.00    -0.220 NA
ATOM      4  C   UNL     1      -0.058  -3.887  -6.637  0.00  0.00    +0.253 C 
ATOM      5  C   UNL     1       0.565  -3.205  -7.845  0.00  0.00    +0.115 C 
ATOM      6  C   UNL     1       1.455  -4.102  -8.354  0.00  0.00    +0.025 A 
ATOM      7  C   UNL     1       2.254  -4.091  -9.524  0.00  0.00    +0.012 A 
ATOM      8  C   UNL     1       3.065  -5.161  -9.737  0.00  0.00    +0.001 A 
ATOM      9  C   UNL     1       3.158  -6.261  -8.879  0.00  0.00    +0.002 A 
ATOM     10  C   UNL     1       2.434  -6.381  -7.734  0.00  0.00    +0.026 A 
ATOM     11  C   UNL     1       1.519  -5.271  -7.423  0.00  0.00    +0.046 A 
ATOM     12  N   UNL     1       0.700  -5.113  -6.429  0.00  0.00    -0.358 N 
ATOM     13  N   UNL     1       0.303  -1.925  -8.130  0.00  0.00    -0.171 NA
ATOM     14  N   UNL     1      -0.014  -1.179  -7.114  0.00  0.00    -0.247 N 
ATOM     15  H   UNL     1      -0.024   0.215  -5.007  0.00  0.00    +0.177 HD
ATOM     16  H   UNL     1      -0.263  -0.254  -7.270  0.00  0.00    +0.192 HD
ATOM     17  H   UNL     1       0.609  -5.712  -5.671  0.00  0.00    +0.162 HD
ENDROOT
BRANCH   1  19
ATOM     18  C   UNL     1      -0.005  -0.316  -2.511  0.00  0.00    +0.140 C 
ATOM     19  N   UNL     1       0.003  -1.178  -3.483  0.00  0.00    -0.187 NA
BRANCH  18  22
ATOM     20  C   UNL     1      -0.018   1.503   0.010  0.00  0.00    +0.064 C 
ATOM     21  C   UNL     1       0.002  -0.004   0.002  0.00  0.00    +0.025 A 
ATOM     22  C   UNL     1       0.008  -0.781  -1.115  0.00  0.00    +0.023 A 
ATOM     23  C   UNL     1       0.029  -2.181  -0.653  0.00  0.00    +0.009 A 
ATOM     24  C   UNL     1       0.042  -3.413  -1.303  0.00  0.00    +0.010 A 
ATOM     25  C   UNL     1       0.060  -4.574  -0.563  0.00  0.00    +0.001 A 
ATOM     26  C   UNL     1       0.065  -4.521   0.824  0.00  0.00    +0.002 A 
ATOM     27  C   UNL     1       0.051  -3.310   1.480  0.00  0.00    +0.026 A 
ATOM     28  C   UNL     1       0.034  -2.125   0.751  0.00  0.00    +0.050 A 
ATOM     29  N   UNL     1       0.023  -0.795   1.112  0.00  0.00    -0.346 N 
ATOM     30  C   UNL     1       0.030  -0.302   2.492  0.00  0.00    +0.149 C 
ENDBRANCH  18  22
ENDBRANCH   1  19
TORSDOF 2
