REMARK  Name = ZINC00069472
REMARK  8 active torsions:
REMARK  status: ('A' for Active; 'I' for Inactive)
REMARK    1  A    between atoms: C_1  and  C_2
REMARK    2  A    between atoms: C_2  and  C_3
REMARK    3  A    between atoms: C_3  and  C_5
REMARK    4  A    between atoms: C_3  and  O_6
REMARK    5  A    between atoms: O_6  and  C_7
REMARK    6  A    between atoms: C_7  and  C_9
REMARK    7  A    between atoms: C_10  and  C_27
REMARK    8  A    between atoms: C_15  and  C_17
REMARK                            x       y       z     vdW  Elec       q    Type
REMARK                         _______ _______ _______ _____ _____    ______ ____
ROOT
ATOM      1  C   UNL     1       3.743   1.111   2.943  0.00  0.00    +0.078 C 
ATOM      2  C   UNL     1       4.661   0.476   3.704  0.00  0.00    +0.021 C 
ATOM      3  N   UNL     1       5.871   1.050   3.973  0.00  0.00    -0.273 N 
ATOM      4  C   UNL     1       6.236   2.258   3.527  0.00  0.00    +0.304 C 
ATOM      5  O   UNL     1       7.334   2.688   3.823  0.00  0.00    -0.252 OA
ATOM      6  N   UNL     1       5.426   3.014   2.761  0.00  0.00    -0.288 N 
ATOM      7  C   UNL     1       4.098   2.484   2.409  0.00  0.00    +0.144 C 
ATOM      8  C   UNL     1       4.347  -0.888   4.261  0.00  0.00    +0.061 C 
ATOM      9  H   UNL     1       6.501   0.555   4.521  0.00  0.00    +0.156 HD
ATOM     10  H   UNL     1       5.710   3.888   2.449  0.00  0.00    +0.151 HD
ENDROOT
BRANCH   7  11
ATOM     11  C   UNL     1       3.061   3.458   2.906  0.00  0.00    -0.015 A 
ATOM     12  C   UNL     1       2.273   3.135   3.968  0.00  0.00    +0.006 A 
ATOM     13  C   UNL     1       1.312   4.024   4.446  0.00  0.00    +0.001 A 
ATOM     14  C   UNL     1       1.128   5.238   3.858  0.00  0.00    +0.008 A 
ATOM     15  C   UNL     1       1.919   5.605   2.756  0.00  0.00    -0.018 A 
ATOM     16  C   UNL     1       2.899   4.702   2.273  0.00  0.00    -0.013 A 
ATOM     17  C   UNL     1       3.691   5.069   1.171  0.00  0.00    +0.009 A 
ATOM     18  C   UNL     1       3.507   6.283   0.585  0.00  0.00    +0.001 A 
ATOM     19  C   UNL     1       2.543   7.170   1.059  0.00  0.00    +0.001 A 
ATOM     20  C   UNL     1       1.758   6.849   2.123  0.00  0.00    +0.008 A 
ENDBRANCH   7  11
BRANCH   1  21
ATOM     21  C   UNL     1       2.491   0.516   2.660  0.00  0.00    +0.339 C 
ATOM     22  O   UNL     1       2.276  -0.635   2.990  0.00  0.00    -0.245 OA
BRANCH  21  23
ATOM     23  O   UNL     1       1.536   1.226   2.023  0.00  0.00    -0.458 OA
BRANCH  23  24
ATOM     24  C   UNL     1       0.263   0.599   1.860  0.00  0.00    +0.173 C 
ATOM     25  C   UNL     1      -0.653   0.995   3.020  0.00  0.00    +0.052 C 
BRANCH  24  27
ATOM     26  C   UNL     1       0.481   0.536  -0.628  0.00  0.00    +0.007 C 
ATOM     27  C   UNL     1      -0.363   1.051   0.539  0.00  0.00    +0.041 C 
ENDBRANCH  24  27
ENDBRANCH  23  24
ENDBRANCH  21  23
ENDBRANCH   1  21
TORSDOF 5
