REMARK  Name = ZINC36108294
REMARK  4 active torsions:
REMARK  status: ('A' for Active; 'I' for Inactive)
REMARK    1  A    between atoms: C_1  and  C_2
REMARK    2  A    between atoms: N_8  and  C_9
REMARK    3  A    between atoms: C_9  and  C_11
REMARK    4  A    between atoms: C_9  and  C_16
REMARK                            x       y       z     vdW  Elec       q    Type
REMARK                         _______ _______ _______ _____ _____    ______ ____
ROOT
ATOM      1  C   UNL     1       2.193  -0.018   1.331  0.00  0.00    +0.057 C 
ENDROOT
BRANCH   1   2
ATOM      2  C   UNL     1       2.844  -0.619   2.550  0.00  0.00    +0.207 C 
ATOM      3  O   UNL     1       2.205  -1.341   3.285  0.00  0.00    -0.277 OA
ATOM      4  N   UNL     1       4.137  -0.353   2.824  0.00  0.00    -0.300 N 
ATOM      5  C   UNL     1       4.896   0.615   2.018  0.00  0.00    +0.123 C 
ATOM      6  C   UNL     1       6.203  -0.047   1.566  0.00  0.00    +0.100 C 
ATOM      7  N   UNL     1       6.914  -0.570   2.740  0.00  0.00    -0.313 NA
ATOM      8  C   UNL     1       6.135  -1.621   3.410  0.00  0.00    +0.100 C 
ATOM      9  C   UNL     1       4.824  -1.019   3.941  0.00  0.00    +0.123 C 
ATOM     10  H   UNL     1       7.831  -0.905   2.488  0.00  0.00    +0.122 HD
ENDBRANCH   1   2
BRANCH   1  17
ATOM     11  C   UNL     1       2.435  -2.356  -0.205  0.00  0.00    -0.013 C 
ATOM     12  C   UNL     1       1.337  -2.204   0.849  0.00  0.00    -0.070 C 
ATOM     13  C   UNL     1       0.101  -2.996   0.415  0.00  0.00    -0.016 C 
ATOM     14  C   UNL     1      -0.995  -2.841   1.473  0.00  0.00    -0.003 C 
ATOM     15  C   UNL     1      -1.298  -1.353   1.667  0.00  0.00    -0.019 C 
ATOM     16  C   UNL     1      -0.010  -0.622   2.054  0.00  0.00    -0.077 C 
ATOM     17  N   UNL     1       0.988  -0.785   0.991  0.00  0.00    +0.392 N 
ATOM     18  H   UNL     1       0.610  -0.445   0.120  0.00  0.00    -0.080 HD
ENDBRANCH   1  17
BRANCH   1  19
ATOM     19  C   UNL     1       1.814   1.412   1.618  0.00  0.00    -0.015 A 
ATOM     20  C   UNL     1       2.101   2.530   0.907  0.00  0.00    +0.010 A 
ATOM     21  C   UNL     1       1.643   3.752   1.365  0.00  0.00    +0.008 A 
ATOM     22  C   UNL     1       0.920   3.795   2.511  0.00  0.00    +0.045 A 
ATOM     23  S   UNL     1       0.862   2.072   2.977  0.00  0.00    -0.103 S 
ENDBRANCH   1  19
TORSDOF 3
