REMARK  Name = ZINC46095053
REMARK  3 active torsions:
REMARK  status: ('A' for Active; 'I' for Inactive)
REMARK    1  A    between atoms: C_3  and  C_12
REMARK    2  A    between atoms: C_12  and  N_13
REMARK    3  A    between atoms: C_20  and  C_22
REMARK                            x       y       z     vdW  Elec       q    Type
REMARK                         _______ _______ _______ _____ _____    ______ ____
ROOT
ATOM      1  N   UNL     1       4.225   2.086  -1.388  0.00  0.00    -0.295 N 
ATOM      2  C   UNL     1       5.412   2.674  -1.639  0.00  0.00    +0.303 C 
ATOM      3  O   UNL     1       6.042   3.183  -0.733  0.00  0.00    -0.253 OA
ATOM      4  N   UNL     1       5.899   2.697  -2.895  0.00  0.00    -0.278 N 
ATOM      5  C   UNL     1       5.240   2.126  -4.084  0.00  0.00    +0.110 C 
ATOM      6  C   UNL     1       6.392   1.849  -5.081  0.00  0.00    +0.021 C 
ATOM      7  C   UNL     1       7.326   3.061  -4.825  0.00  0.00    +0.029 C 
ATOM      8  C   UNL     1       7.174   3.302  -3.308  0.00  0.00    +0.114 C 
ATOM      9  H   UNL     1       3.722   1.680  -2.111  0.00  0.00    +0.151 HD
ENDROOT
BRANCH   8  10
ATOM     10  C   UNL     1       7.157   4.781  -3.020  0.00  0.00    +0.010 A 
ATOM     11  C   UNL     1       8.159   5.574  -2.568  0.00  0.00    +0.013 A 
ATOM     12  C   UNL     1       7.913   6.920  -2.374  0.00  0.00    +0.008 A 
ATOM     13  C   UNL     1       6.676   7.408  -2.643  0.00  0.00    +0.045 A 
ATOM     14  S   UNL     1       5.814   5.944  -3.194  0.00  0.00    -0.100 S 
ENDBRANCH   8  10
BRANCH   1  15
ATOM     15  C   UNL     1       3.695   2.061  -0.023  0.00  0.00    +0.144 C 
BRANCH  15  18
ATOM     16  C   UNL     1      -0.017   1.377   0.010  0.00  0.00    +0.020 A 
ATOM     17  C   UNL     1       1.185   2.072   0.002  0.00  0.00    +0.010 A 
ATOM     18  C   UNL     1       2.365   1.351  -0.013  0.00  0.00    +0.014 A 
ATOM     19  C   UNL     1       2.309  -0.038  -0.020  0.00  0.00    +0.159 A 
ATOM     20  N   UNL     1       1.143  -0.665  -0.012  0.00  0.00    -0.236 NA
ATOM     21  C   UNL     1       0.002  -0.004   0.002  0.00  0.00    +0.113 A 
ATOM     22  N   UNL     1       3.494  -0.779  -0.036  0.00  0.00    -0.222 N 
ATOM     23  C   UNL     1       3.648  -2.051   0.415  0.00  0.00    +0.116 A 
ATOM     24  C   UNL     1       4.941  -2.400   0.221  0.00  0.00    +0.041 A 
ATOM     25  C   UNL     1       5.598  -1.313  -0.365  0.00  0.00    +0.135 A 
ATOM     26  N   UNL     1       4.733  -0.345  -0.525  0.00  0.00    -0.173 NA
ENDBRANCH  15  18
ENDBRANCH   1  15
TORSDOF 3
