REMARK  Name = ZINC43093061
REMARK  12 active torsions:
REMARK  status: ('A' for Active; 'I' for Inactive)
REMARK    1  A    between atoms: C_1  and  C_2
REMARK    2  A    between atoms: C_2  and  N_3
REMARK    3  A    between atoms: N_3  and  C_4
REMARK    4  A    between atoms: N_3  and  C_11
REMARK    5  A    between atoms: C_4  and  C_5
REMARK    6  A    between atoms: N_7  and  C_8
REMARK    7  A    between atoms: C_8  and  C_9
REMARK    8  A    between atoms: C_8  and  C_10
REMARK    9  A    between atoms: C_11  and  C_13
REMARK   10  A    between atoms: C_11  and  C_20
REMARK   11  A    between atoms: C_20  and  C_22
REMARK   12  A    between atoms: C_20  and  N_23
REMARK                            x       y       z     vdW  Elec       q    Type
REMARK                         _______ _______ _______ _____ _____    ______ ____
ROOT
ATOM      1  C   UNL     1      -2.546   0.356   1.305  0.00  0.00    +0.074 C 
ENDROOT
BRANCH   1   2
ATOM      2  C   UNL     1      -3.902   0.411   0.650  0.00  0.00    -0.018 A 
ATOM      3  C   UNL     1      -4.156  -0.347  -0.477  0.00  0.00    +0.006 A 
ATOM      4  C   UNL     1      -5.400  -0.297  -1.078  0.00  0.00    +0.000 A 
ATOM      5  C   UNL     1      -6.391   0.511  -0.551  0.00  0.00    +0.001 A 
ATOM      6  C   UNL     1      -6.138   1.269   0.576  0.00  0.00    +0.015 A 
ATOM      7  C   UNL     1      -4.894   1.216   1.180  0.00  0.00    +0.022 A 
ATOM      8 BR   UNL     1      -4.550   2.248   2.727  0.00  0.00    -0.050 Br
ENDBRANCH   1   2
BRANCH   1   9
ATOM      9  C   UNL     1      -2.537  -0.744   2.368  0.00  0.00    -0.056 C 
ATOM     10  C   UNL     1      -1.204  -0.718   3.119  0.00  0.00    -0.012 C 
BRANCH   9  11
ATOM     11  N   UNL     1      -3.637  -0.519   3.315  0.00  0.00    +0.381 N 
ATOM     12  H   UNL     1      -4.516  -0.537   2.820  0.00  0.00    -0.090 HD
ATOM     13  H   UNL     1      -3.631  -1.246   4.016  0.00  0.00    -0.090 HD
ATOM     14  H   UNL     1      -3.520   0.378   3.760  0.00  0.00    -0.090 HD
ENDBRANCH   9  11
ENDBRANCH   1   9
BRANCH   1  15
ATOM     15  N   UNL     1      -1.524   0.067   0.291  0.00  0.00    -0.289 NA
BRANCH  15  17
ATOM     16  C   UNL     1      -0.257   2.153   0.485  0.00  0.00    +0.020 C 
ATOM     17  C   UNL     1      -0.225   0.635   0.675  0.00  0.00    +0.082 C 
ENDBRANCH  15  17
BRANCH  15  18
ATOM     18  C   UNL     1      -1.415  -1.379   0.051  0.00  0.00    +0.180 C 
BRANCH  18  19
ATOM     19  C   UNL     1      -0.797  -1.618  -1.302  0.00  0.00    +0.227 C 
ATOM     20  O   UNL     1      -0.478  -0.677  -1.998  0.00  0.00    -0.274 OA
ATOM     21  N   UNL     1      -0.599  -2.878  -1.739  0.00  0.00    -0.312 N 
ATOM     22  H   UNL     1      -0.854  -3.630  -1.182  0.00  0.00    +0.149 HD
BRANCH  21  23
ATOM     23  C   UNL     1       0.003  -3.110  -3.054  0.00  0.00    +0.067 C 
ATOM     24  C   UNL     1       1.527  -3.068  -2.933  0.00  0.00    +0.027 C 
ATOM     25  C   UNL     1      -0.430  -4.482  -3.577  0.00  0.00    +0.027 C 
ENDBRANCH  21  23
ENDBRANCH  18  19
ENDBRANCH  15  18
ENDBRANCH   1  15
TORSDOF 8
