REMARK  Name = ZINC58006530
REMARK  8 active torsions:
REMARK  status: ('A' for Active; 'I' for Inactive)
REMARK    1  A    between atoms: C_1  and  C_2
REMARK    2  A    between atoms: C_2  and  C_3
REMARK    3  A    between atoms: C_3  and  C_23
REMARK    4  A    between atoms: N_6  and  C_15
REMARK    5  A    between atoms: C_10  and  N_14
REMARK    6  A    between atoms: C_15  and  C_16
REMARK    7  A    between atoms: C_19  and  N_22
REMARK    8  A    between atoms: C_23  and  C_24
REMARK                            x       y       z     vdW  Elec       q    Type
REMARK                         _______ _______ _______ _____ _____    ______ ____
ROOT
ATOM      1  C   UNL     1      -1.334  -0.869   0.559  0.00  0.00    +0.186 C 
ATOM      2  C   UNL     1      -2.125  -0.096   1.584  0.00  0.00    +0.264 C 
ATOM      3  O   UNL     1      -2.207  -0.503   2.724  0.00  0.00    -0.271 OA
ATOM      4  N   UNL     1      -2.742   1.051   1.228  0.00  0.00    -0.261 N 
ATOM      5  C   UNL     1      -2.741   1.438  -0.122  0.00  0.00    +0.079 A 
ATOM      6  C   UNL     1      -3.159   2.707  -0.489  0.00  0.00    +0.029 A 
ATOM      7  C   UNL     1      -3.142   3.081  -1.819  0.00  0.00    +0.025 A 
ATOM      8  C   UNL     1      -2.704   2.188  -2.789  0.00  0.00    +0.028 A 
ATOM      9  C   UNL     1      -2.289   0.913  -2.424  0.00  0.00    +0.070 A 
ATOM     10  C   UNL     1      -2.313   0.536  -1.093  0.00  0.00    +0.145 A 
ATOM     11  O   UNL     1      -1.939  -0.720  -0.728  0.00  0.00    -0.475 OA
ENDROOT
BRANCH   8  12
ATOM     12  N   UNL     1      -2.682   2.572  -4.133  0.00  0.00    -0.358 N 
ATOM     13  H   UNL     1      -2.972   3.462  -4.389  0.00  0.00    +0.142 HD
ATOM     14  H   UNL     1      -2.376   1.948  -4.811  0.00  0.00    +0.142 HD
ENDBRANCH   8  12
BRANCH   1  16
ATOM     15  C   UNL     1       0.073   1.173   0.249  0.00  0.00    +0.008 C 
ATOM     16  C   UNL     1       0.099  -0.334   0.513  0.00  0.00    +0.054 C 
ENDBRANCH   1  16
BRANCH   1  17
ATOM     17  C   UNL     1      -1.313  -2.349   0.943  0.00  0.00    +0.054 C 
ATOM     18  C   UNL     1      -2.746  -2.884   0.990  0.00  0.00    +0.008 C 
ENDBRANCH   1  17
BRANCH   4  19
ATOM     19  C   UNL     1      -3.404   1.881   2.237  0.00  0.00    +0.149 C 
BRANCH  19  20
ATOM     20  C   UNL     1      -4.870   1.534   2.289  0.00  0.00    -0.030 A 
ATOM     21  C   UNL     1      -5.781   2.279   1.562  0.00  0.00    +0.007 A 
ATOM     22  C   UNL     1      -7.125   1.964   1.608  0.00  0.00    +0.023 A 
ATOM     23  C   UNL     1      -7.561   0.899   2.385  0.00  0.00    +0.025 A 
ATOM     24  C   UNL     1      -6.643   0.153   3.114  0.00  0.00    +0.023 A 
ATOM     25  C   UNL     1      -5.300   0.470   3.060  0.00  0.00    +0.007 A 
BRANCH  23  26
ATOM     26  N   UNL     1      -8.920   0.578   2.434  0.00  0.00    -0.358 N 
ATOM     27  H   UNL     1      -9.559   1.100   1.925  0.00  0.00    +0.142 HD
ATOM     28  H   UNL     1      -9.223  -0.166   2.977  0.00  0.00    +0.142 HD
ENDBRANCH  23  26
ENDBRANCH  19  20
ENDBRANCH   4  19
TORSDOF 6
