REMARK  Name = ZINC08846696
REMARK  4 active torsions:
REMARK  status: ('A' for Active; 'I' for Inactive)
REMARK    1  A    between atoms: C_1  and  C_2
REMARK    2  A    between atoms: C_5  and  C_8
REMARK    3  A    between atoms: C_13  and  C_23
REMARK    4  A    between atoms: C_28  and  C_29
REMARK                            x       y       z     vdW  Elec       q    Type
REMARK                         _______ _______ _______ _____ _____    ______ ____
ROOT
ATOM      1  C   UNL     1      -1.841   6.977  -3.725  0.00  0.00    +0.032 C 
ATOM      2  C   UNL     1      -0.327   6.779  -3.658  0.00  0.00    +0.059 C 
ATOM      3  C   UNL     1       0.088   6.453  -2.233  0.00  0.00    +0.017 C 
ATOM      4  C   UNL     1      -0.727   5.747  -1.433  0.00  0.00    +0.036 C 
ATOM      5  C   UNL     1      -0.426   5.320  -0.015  0.00  0.00    +0.136 C 
ATOM      6  N   UNL     1       0.740   5.951   0.565  0.00  0.00    -0.331 N 
ATOM      7  C   UNL     1       2.015   5.725   0.048  0.00  0.00    +0.049 A 
ATOM      8  C   UNL     1       2.972   5.025   0.764  0.00  0.00    +0.025 A 
ATOM      9  C   UNL     1       4.187   4.731   0.170  0.00  0.00    +0.002 A 
ATOM     10  C   UNL     1       4.446   5.132  -1.128  0.00  0.00    +0.002 A 
ATOM     11  C   UNL     1       3.500   5.850  -1.839  0.00  0.00    +0.025 A 
ATOM     12  C   UNL     1       2.291   6.159  -1.240  0.00  0.00    +0.052 A 
ATOM     13  N   UNL     1       1.315   6.914  -1.882  0.00  0.00    -0.316 N 
ATOM     14  C   UNL     1      -2.000   5.337  -1.895  0.00  0.00    +0.163 C 
ATOM     15  O   UNL     1      -2.712   4.689  -1.153  0.00  0.00    -0.292 OA
ATOM     16  C   UNL     1      -2.503   5.673  -3.267  0.00  0.00    +0.088 C 
ATOM     17  H   UNL     1       0.633   6.542   1.327  0.00  0.00    +0.147 HD
ATOM     18  H   UNL     1       1.527   7.836  -2.093  0.00  0.00    +0.152 HD
ENDROOT
BRANCH   1  23
ATOM     19  C   UNL     1      -3.420   8.171  -9.155  0.00  0.00    +0.044 C 
ATOM     20  C   UNL     1      -3.008   7.860  -7.739  0.00  0.00    -0.050 A 
ATOM     21  C   UNL     1      -3.266   8.767  -6.728  0.00  0.00    +0.003 A 
ATOM     22  C   UNL     1      -2.889   8.481  -5.430  0.00  0.00    +0.004 A 
ATOM     23  C   UNL     1      -2.252   7.288  -5.141  0.00  0.00    -0.043 A 
ATOM     24  C   UNL     1      -1.989   6.383  -6.153  0.00  0.00    +0.004 A 
ATOM     25  C   UNL     1      -2.370   6.667  -7.451  0.00  0.00    +0.003 A 
ENDBRANCH   1  23
BRANCH   5  26
ATOM     26  C   UNL     1      -0.220   3.827   0.001  0.00  0.00    -0.011 A 
ATOM     27  C   UNL     1       0.057   3.155  -1.175  0.00  0.00    +0.006 A 
ATOM     28  C   UNL     1       0.246   1.786  -1.161  0.00  0.00    +0.000 A 
ATOM     29  C   UNL     1       0.158   1.089   0.030  0.00  0.00    +0.001 A 
ATOM     30  C   UNL     1      -0.125   1.760   1.204  0.00  0.00    +0.013 A 
ATOM     31  C   UNL     1      -0.309   3.130   1.191  0.00  0.00    +0.060 A 
BRANCH  31  32
ATOM     32  C   UNL     1      -0.612   3.863   2.472  0.00  0.00    +0.418 C 
ATOM     33  F   UNL     1      -0.725   2.942   3.520  0.00  0.00    -0.166 F 
ATOM     34  F   UNL     1       0.423   4.762   2.751  0.00  0.00    -0.166 F 
ATOM     35  F   UNL     1      -1.815   4.564   2.336  0.00  0.00    -0.166 F 
ENDBRANCH  31  32
ENDBRANCH   5  26
TORSDOF 3
