REMARK  Name = ZINC64650981
REMARK  13 active torsions:
REMARK  status: ('A' for Active; 'I' for Inactive)
REMARK    1  A    between atoms: C_1  and  C_2
REMARK    2  A    between atoms: C_4  and  C_35
REMARK    3  A    between atoms: C_7  and  C_12
REMARK    4  A    between atoms: N_14  and  C_15
REMARK    5  A    between atoms: C_15  and  C_16
REMARK    6  A    between atoms: C_16  and  C_18
REMARK    7  A    between atoms: C_16  and  O_19
REMARK    8  A    between atoms: O_19  and  C_20
REMARK    9  A    between atoms: C_24  and  C_26
REMARK   10  A    between atoms: C_26  and  N_27
REMARK   11  A    between atoms: N_27  and  C_28
REMARK   12  A    between atoms: N_27  and  C_29
REMARK   13  A    between atoms: C_29  and  C_30
REMARK                            x       y       z     vdW  Elec       q    Type
REMARK                         _______ _______ _______ _____ _____    ______ ____
ROOT
ATOM      1  C   UNL     1       7.675  -5.167  -0.358  0.00  0.00    +0.187 C 
ATOM      2  C   UNL     1       8.964  -5.562  -1.082  0.00  0.00    +0.053 C 
ENDROOT
BRANCH   1   3
ATOM      3  C   UNL     1       6.664  -4.630  -1.374  0.00  0.00    +0.148 C 
BRANCH   3   6
ATOM      4  C   UNL     1       4.447  -3.620  -1.365  0.00  0.00    +0.244 C 
ATOM      5  O   UNL     1       4.503  -3.556  -2.578  0.00  0.00    -0.270 OA
ATOM      6  N   UNL     1       5.476  -4.141  -0.669  0.00  0.00    -0.308 N 
ATOM      7  H   UNL     1       5.431  -4.193   0.298  0.00  0.00    +0.149 HD
BRANCH   4  13
ATOM      8  C   UNL     1      -1.224   0.231   0.138  0.00  0.00    +0.035 C 
ATOM      9  C   UNL     1      -0.945  -1.270   0.040  0.00  0.00    +0.103 C 
ATOM     10  C   UNL     1      -0.099  -1.564  -1.178  0.00  0.00    -0.042 C 
ATOM     11  C   UNL     1       1.049  -2.121  -0.713  0.00  0.00    -0.000 A 
ATOM     12  C   UNL     1       2.208  -2.599  -1.379  0.00  0.00    +0.023 A 
ATOM     13  C   UNL     1       3.251  -3.128  -0.656  0.00  0.00    +0.037 A 
ATOM     14  C   UNL     1       3.197  -3.212   0.799  0.00  0.00    +0.015 A 
ATOM     15  C   UNL     1       2.123  -2.774   1.486  0.00  0.00    +0.026 A 
ATOM     16  C   UNL     1       0.982  -2.200   0.763  0.00  0.00    +0.043 A 
ATOM     17  N   UNL     1      -0.158  -1.714   1.195  0.00  0.00    -0.378 N 
ATOM     18  C   UNL     1      -0.457  -1.294  -2.617  0.00  0.00    +0.042 C 
ATOM     19  H   UNL     1      -0.435  -1.659   2.123  0.00  0.00    +0.160 HD
ENDBRANCH   4  13
ENDBRANCH   3   6
ENDBRANCH   1   3
BRANCH   1  20
ATOM     20  O   UNL     1       7.127  -6.311   0.300  0.00  0.00    -0.488 OA
BRANCH  20  21
ATOM     21  C   UNL     1       7.611  -6.603   1.536  0.00  0.00    +0.121 A 
ATOM     22  C   UNL     1       8.667  -5.870   2.059  0.00  0.00    +0.045 A 
ATOM     23  C   UNL     1       9.157  -6.168   3.316  0.00  0.00    +0.004 A 
ATOM     24  C   UNL     1       8.596  -7.195   4.052  0.00  0.00    +0.005 A 
ATOM     25  C   UNL     1       7.545  -7.927   3.533  0.00  0.00    -0.030 A 
ATOM     26  C   UNL     1       7.047  -7.629   2.278  0.00  0.00    +0.050 A 
BRANCH  25  27
ATOM     27  C   UNL     1       6.936  -9.046   4.338  0.00  0.00    +0.119 C 
BRANCH  27  28
ATOM     28  N   UNL     1       5.840  -8.518   5.161  0.00  0.00    -0.297 NA
ATOM     29  C   UNL     1       6.347  -7.590   6.180  0.00  0.00    +0.105 C 
BRANCH  28  30
ATOM     30  C   UNL     1       5.072  -9.608   5.777  0.00  0.00    +0.126 C 
BRANCH  30  31
ATOM     31  C   UNL     1       3.822  -9.048   6.406  0.00  0.00    +0.004 A 
ATOM     32  C   UNL     1       2.592  -8.881   5.859  0.00  0.00    +0.012 A 
ATOM     33  C   UNL     1       1.583  -8.342   6.634  0.00  0.00    +0.008 A 
ATOM     34  C   UNL     1       1.851  -7.997   7.917  0.00  0.00    +0.045 A 
ATOM     35  S   UNL     1       3.574  -8.441   8.066  0.00  0.00    -0.100 S 
ENDBRANCH  30  31
ENDBRANCH  28  30
ENDBRANCH  27  28
ENDBRANCH  25  27
ENDBRANCH  20  21
ENDBRANCH   1  20
TORSDOF 9
