REMARK  Name = ZINC26954557
REMARK  4 active torsions:
REMARK  status: ('A' for Active; 'I' for Inactive)
REMARK    1  A    between atoms: C_1  and  C_2
REMARK    2  A    between atoms: C_2  and  C_3
REMARK    3  A    between atoms: C_3  and  C_25
REMARK    4  A    between atoms: N_12  and  C_17
REMARK                            x       y       z     vdW  Elec       q    Type
REMARK                         _______ _______ _______ _____ _____    ______ ____
ROOT
ATOM      1  C   UNL     1       5.959  -5.781  -0.051  0.00  0.00    +0.071 C 
ATOM      2  C   UNL     1       5.038  -4.607  -0.397  0.00  0.00    +0.071 C 
ATOM      3  C   UNL     1       3.596  -5.085  -0.263  0.00  0.00    -0.018 A 
ATOM      4  C   UNL     1       3.326  -6.408  -0.243  0.00  0.00    +0.021 A 
ATOM      5  S   UNL     1       1.569  -6.508  -0.073  0.00  0.00    -0.073 S 
ATOM      6  C   UNL     1       1.204  -4.823  -0.030  0.00  0.00    +0.094 A 
ATOM      7  C   UNL     1       2.445  -4.195  -0.148  0.00  0.00    +0.074 A 
ATOM      8  C   UNL     1       2.417  -2.716  -0.138  0.00  0.00    +0.270 A 
ATOM      9  O   UNL     1       3.450  -2.080  -0.236  0.00  0.00    -0.266 OA
ATOM     10  N   UNL     1       1.237  -2.082  -0.021  0.00  0.00    -0.229 N 
ATOM     11  C   UNL     1       0.080  -2.753   0.093  0.00  0.00    +0.335 A 
ATOM     12  O   UNL     1      -0.961  -2.134   0.202  0.00  0.00    -0.246 OA
ATOM     13  N   UNL     1       0.048  -4.100   0.085  0.00  0.00    -0.301 N 
ATOM     14  H   UNL     1      -0.919  -4.618   0.171  0.00  0.00    +0.171 HD
ATOM     15  C   UNL     1       4.328  -7.516  -0.346  0.00  0.00    +0.203 C 
ATOM     16  O   UNL     1       5.571  -6.945  -0.786  0.00  0.00    -0.368 OA
ATOM     17  C   UNL     1       5.865  -6.076   1.447  0.00  0.00    +0.042 C 
ENDROOT
BRANCH  10  18
ATOM     18  C   UNL     1       1.214  -0.680  -0.013  0.00  0.00    +0.054 A 
ATOM     19  C   UNL     1       1.085   0.020  -1.205  0.00  0.00    +0.026 A 
ATOM     20  C   UNL     1       1.064   1.401  -1.194  0.00  0.00    +0.002 A 
ATOM     21  C   UNL     1       1.171   2.086   0.003  0.00  0.00    +0.000 A 
ATOM     22  C   UNL     1       1.301   1.391   1.191  0.00  0.00    +0.002 A 
ATOM     23  C   UNL     1       1.323   0.010   1.187  0.00  0.00    +0.026 A 
ENDBRANCH  10  18
BRANCH   1  25
ATOM     24  C   UNL     1       8.325  -6.586  -0.062  0.00  0.00    +0.007 C 
ATOM     25  C   UNL     1       7.402  -5.415  -0.406  0.00  0.00    +0.032 C 
ENDBRANCH   1  25
TORSDOF 2
