REMARK  Name = ZINC49946945
REMARK  10 active torsions:
REMARK  status: ('A' for Active; 'I' for Inactive)
REMARK    1  A    between atoms: C_1  and  C_2
REMARK    2  A    between atoms: C_5  and  C_9
REMARK    3  A    between atoms: C_6  and  C_8
REMARK    4  A    between atoms: C_11  and  C_28
REMARK    5  A    between atoms: C_12  and  C_17
REMARK    6  A    between atoms: C_17  and  N_18
REMARK    7  A    between atoms: C_20  and  C_27
REMARK    8  A    between atoms: C_23  and  C_26
REMARK    9  A    between atoms: C_28  and  O_30
REMARK   10  A    between atoms: O_30  and  C_31
REMARK                            x       y       z     vdW  Elec       q    Type
REMARK                         _______ _______ _______ _____ _____    ______ ____
ROOT
ATOM      1  C   UNL     1      -0.116  -4.414   0.088  0.00  0.00    +0.144 C 
ATOM      2  C   UNL     1       1.381  -4.566   0.265  0.00  0.00    +0.079 C 
ATOM      3  C   UNL     1       2.053  -5.292  -0.655  0.00  0.00    +0.038 C 
ATOM      4  N   UNL     1       1.403  -5.869  -1.709  0.00  0.00    -0.271 N 
ATOM      5  C   UNL     1       0.083  -5.767  -1.913  0.00  0.00    +0.304 C 
ATOM      6  O   UNL     1      -0.406  -6.316  -2.881  0.00  0.00    -0.252 OA
ATOM      7  N   UNL     1      -0.719  -5.075  -1.082  0.00  0.00    -0.288 N 
ATOM      8  H   UNL     1       1.926  -6.381  -2.345  0.00  0.00    +0.156 HD
ATOM      9  H   UNL     1      -1.673  -5.014  -1.249  0.00  0.00    +0.151 HD
ENDROOT
BRANCH   1  14
ATOM     10  C   UNL     1      -1.308   1.230  -0.248  0.00  0.00    +0.044 C 
ATOM     11  C   UNL     1      -0.997  -0.242  -0.160  0.00  0.00    -0.050 A 
ATOM     12  C   UNL     1       0.251  -0.708  -0.529  0.00  0.00    +0.004 A 
ATOM     13  C   UNL     1       0.536  -2.058  -0.449  0.00  0.00    +0.006 A 
ATOM     14  C   UNL     1      -0.426  -2.942   0.001  0.00  0.00    -0.020 A 
ATOM     15  C   UNL     1      -1.674  -2.476   0.371  0.00  0.00    -0.045 A 
ATOM     16  C   UNL     1      -1.958  -1.125   0.294  0.00  0.00    +0.007 A 
ATOM     17  C   UNL     1      -2.724  -3.440   0.861  0.00  0.00    +0.044 C 
ENDBRANCH   1  14
BRANCH   2  18
ATOM     18  C   UNL     1       2.053  -3.968   1.356  0.00  0.00    +0.339 C 
ATOM     19  O   UNL     1       1.941  -4.439   2.472  0.00  0.00    -0.245 OA
BRANCH  18  20
ATOM     20  O   UNL     1       2.819  -2.874   1.160  0.00  0.00    -0.465 OA
ATOM     21  C   UNL     1       3.556  -2.387   2.283  0.00  0.00    +0.280 C 
ENDBRANCH  18  20
ENDBRANCH   2  18
BRANCH   3  22
ATOM     22  C   UNL     1       3.543  -5.468  -0.518  0.00  0.00    +0.135 C 
BRANCH  22  23
ATOM     23  N   UNL     1       3.849  -6.884  -0.276  0.00  0.00    -0.296 NA
ATOM     24  C   UNL     1       3.318  -7.323   1.021  0.00  0.00    +0.088 C 
ATOM     25  C   UNL     1       3.526  -8.832   1.175  0.00  0.00    +0.000 C 
ATOM     26  C   UNL     1       5.021  -9.148   1.080  0.00  0.00    +0.009 C 
ATOM     27  C   UNL     1       5.559  -8.637  -0.260  0.00  0.00    +0.000 C 
ATOM     28  C   UNL     1       5.293  -7.134  -0.372  0.00  0.00    +0.088 C 
ATOM     29  C   UNL     1       7.065  -8.896  -0.338  0.00  0.00    +0.009 C 
ATOM     30  C   UNL     1       2.776  -9.566   0.062  0.00  0.00    +0.009 C 
ENDBRANCH  22  23
ENDBRANCH   3  22
TORSDOF 5
