REMARK  Name = ZINC36685127
REMARK  10 active torsions:
REMARK  status: ('A' for Active; 'I' for Inactive)
REMARK    1  A    between atoms: C_1  and  N_2
REMARK    2  A    between atoms: N_2  and  C_3
REMARK    3  A    between atoms: N_2  and  C_4
REMARK    4  A    between atoms: C_4  and  C_6
REMARK    5  A    between atoms: C_4  and  C_27
REMARK    6  A    between atoms: C_6  and  N_7
REMARK    7  A    between atoms: C_8  and  C_10
REMARK    8  A    between atoms: C_10  and  S_11
REMARK    9  A    between atoms: S_11  and  C_12
REMARK   10  A    between atoms: C_12  and  C_13
REMARK                            x       y       z     vdW  Elec       q    Type
REMARK                         _______ _______ _______ _____ _____    ______ ____
ROOT
ATOM      1  C   UNL     1      -1.974   3.741  -2.262  0.00  0.00    +0.165 C 
ENDROOT
BRANCH   1   3
ATOM      2  N   UNL     1      -1.766   1.531  -1.169  0.00  0.00    -0.316 N 
ATOM      3  C   UNL     1      -2.260   2.263  -2.188  0.00  0.00    +0.223 C 
ATOM      4  O   UNL     1      -2.935   1.732  -3.045  0.00  0.00    -0.275 OA
ATOM      5  H   UNL     1      -1.227   1.956  -0.484  0.00  0.00    +0.149 HD
BRANCH   2   6
ATOM      6  C   UNL     1      -2.044   0.095  -1.098  0.00  0.00    +0.094 C 
BRANCH   6   7
ATOM      7  C   UNL     1      -1.280  -0.514   0.080  0.00  0.00    -0.014 C 
BRANCH   7   8
ATOM      8  C   UNL     1      -1.798   0.069   1.370  0.00  0.00    -0.022 A 
ATOM      9  C   UNL     1      -1.272   1.061   2.129  0.00  0.00    +0.009 A 
ATOM     10  C   UNL     1      -1.927   1.438   3.287  0.00  0.00    +0.008 A 
ATOM     11  C   UNL     1      -3.074   0.803   3.629  0.00  0.00    +0.045 A 
ATOM     12  S   UNL     1      -3.265  -0.362   2.290  0.00  0.00    -0.103 S 
ENDBRANCH   7   8
BRANCH   7  14
ATOM     13  C   UNL     1      -0.940  -2.543  -1.154  0.00  0.00    -0.096 C 
ATOM     14  N   UNL     1      -1.474  -1.970   0.089  0.00  0.00    +0.382 N 
ATOM     15  C   UNL     1      -0.769  -2.551   1.239  0.00  0.00    -0.096 C 
ATOM     16  H   UNL     1      -2.459  -2.178   0.159  0.00  0.00    -0.082 HD
ENDBRANCH   7  14
ENDBRANCH   6   7
ENDBRANCH   2   6
ENDBRANCH   1   3
BRANCH   1  17
ATOM     17  S   UNL     1      -2.770   4.438  -3.735  0.00  0.00    -0.144 S 
BRANCH  17  18
ATOM     18  C   UNL     1      -2.336   6.198  -3.678  0.00  0.00    +0.143 C 
BRANCH  18  19
ATOM     19  C   UNL     1      -2.943   6.904  -4.862  0.00  0.00    +0.121 A 
ATOM     20  N   UNL     1      -2.737   8.237  -5.020  0.00  0.00    -0.310 N 
ATOM     21  H   UNL     1      -2.202   8.716  -4.369  0.00  0.00    +0.170 HD
ATOM     22  C   UNL     1      -3.261   8.908  -6.064  0.00  0.00    +0.260 A 
ATOM     23  O   UNL     1      -3.069  10.104  -6.193  0.00  0.00    -0.267 OA
ATOM     24  C   UNL     1      -4.050   8.188  -7.020  0.00  0.00    +0.075 A 
ATOM     25  C   UNL     1      -4.713   8.709  -8.224  0.00  0.00    -0.023 A 
ATOM     26  C   UNL     1      -5.403   7.826  -8.968  0.00  0.00    -0.004 A 
ATOM     27  S   UNL     1      -5.213   6.271  -8.127  0.00  0.00    -0.073 S 
ATOM     28  C   UNL     1      -4.207   6.817  -6.774  0.00  0.00    +0.116 A 
ATOM     29  N   UNL     1      -3.653   6.222  -5.721  0.00  0.00    -0.226 NA
ATOM     30  C   UNL     1      -6.041   8.471 -10.168  0.00  0.00    +0.043 C 
ATOM     31  C   UNL     1      -6.018   9.983  -9.855  0.00  0.00    +0.010 C 
ATOM     32  C   UNL     1      -4.821  10.085  -8.888  0.00  0.00    +0.037 C 
ENDBRANCH  18  19
ENDBRANCH  17  18
ENDBRANCH   1  17
TORSDOF 8
