REMARK  Name = ZINC00880220
REMARK  9 active torsions:
REMARK  status: ('A' for Active; 'I' for Inactive)
REMARK    1  A    between atoms: C_1  and  O_2
REMARK    2  A    between atoms: O_2  and  C_3
REMARK    3  A    between atoms: C_10  and  C_15
REMARK    4  A    between atoms: C_15  and  N_16
REMARK    5  A    between atoms: N_16  and  C_17
REMARK    6  A    between atoms: N_16  and  C_27
REMARK    7  A    between atoms: C_17  and  C_18
REMARK    8  A    between atoms: C_27  and  N_29
REMARK    9  A    between atoms: N_29  and  C_30
REMARK                            x       y       z     vdW  Elec       q    Type
REMARK                         _______ _______ _______ _____ _____    ______ ____
ROOT
ATOM      1  N   UNL     1       3.668   1.467   0.621  0.00  0.00    -0.304 N 
ENDROOT
BRANCH   1   2
ATOM      2  C   UNL     1       2.386   1.058   0.549  0.00  0.00    +0.134 C 
ATOM      3  S   UNL     1       1.903  -0.388   1.327  0.00  0.00    -0.019 S 
BRANCH   2   4
ATOM      4  N   UNL     1       1.484   1.788  -0.136  0.00  0.00    -0.324 N 
ATOM      5  H   UNL     1       1.794   2.718  -0.637  0.00  0.00    +0.148 HD
BRANCH   4   6
ATOM      6  C   UNL     1       0.090   1.344  -0.214  0.00  0.00    +0.072 C 
ATOM      7  C   UNL     1      -0.671   1.832   1.020  0.00  0.00    +0.022 C 
ATOM      8  C   UNL     1      -2.127   1.368   0.938  0.00  0.00    +0.002 C 
ATOM      9  C   UNL     1      -2.776   1.945  -0.321  0.00  0.00    +0.000 C 
ATOM     10  C   UNL     1      -2.015   1.457  -1.556  0.00  0.00    +0.002 C 
ATOM     11  C   UNL     1      -0.559   1.921  -1.474  0.00  0.00    +0.022 C 
ENDBRANCH   4   6
ENDBRANCH   2   4
ENDBRANCH   1   2
BRANCH   1  12
ATOM     12  C   UNL     1       4.627   0.729   1.447  0.00  0.00    +0.147 C 
BRANCH  12  20
ATOM     13  C   UNL     1       5.987  -4.676  -1.266  0.00  0.00    +0.121 A 
ATOM     14  C   UNL     1       7.117  -4.223  -1.944  0.00  0.00    +0.047 A 
ATOM     15  C   UNL     1       7.529  -2.914  -1.825  0.00  0.00    +0.030 A 
ATOM     16  C   UNL     1       6.813  -2.031  -1.024  0.00  0.00    +0.049 A 
ATOM     17  C   UNL     1       5.671  -2.484  -0.338  0.00  0.00    +0.002 A 
ATOM     18  C   UNL     1       5.263  -3.816  -0.466  0.00  0.00    +0.055 A 
ATOM     19  C   UNL     1       4.931  -1.544   0.507  0.00  0.00    +0.020 A 
ATOM     20  C   UNL     1       5.369  -0.264   0.590  0.00  0.00    +0.035 A 
ATOM     21  C   UNL     1       6.521   0.141  -0.118  0.00  0.00    +0.254 A 
ATOM     22  O   UNL     1       6.900   1.296  -0.026  0.00  0.00    -0.268 OA
ATOM     23  N   UNL     1       7.210  -0.715  -0.892  0.00  0.00    -0.322 N 
ATOM     24  H   UNL     1       8.102  -0.354  -1.425  0.00  0.00    +0.169 HD
BRANCH  13  26
ATOM     25  C   UNL     1       6.388  -6.809  -2.238  0.00  0.00    +0.277 C 
ATOM     26  O   UNL     1       5.595  -5.971  -1.395  0.00  0.00    -0.495 OA
ENDBRANCH  13  26
ENDBRANCH  12  20
ENDBRANCH   1  12
BRANCH   1  27
ATOM     27  C   UNL     1       4.103   2.649  -0.128  0.00  0.00    +0.142 C 
BRANCH  27  28
ATOM     28  C   UNL     1       3.928   3.878   0.728  0.00  0.00    -0.026 A 
ATOM     29  C   UNL     1       2.739   4.582   0.688  0.00  0.00    +0.009 A 
ATOM     30  C   UNL     1       2.571   5.706   1.474  0.00  0.00    +0.050 A 
ATOM     31  C   UNL     1       3.600   6.137   2.296  0.00  0.00    +0.166 A 
ATOM     32  C   UNL     1       4.799   5.431   2.333  0.00  0.00    +0.167 A 
ATOM     33  C   UNL     1       4.958   4.301   1.546  0.00  0.00    +0.054 A 
ATOM     34  O   UNL     1       5.643   6.049   3.210  0.00  0.00    -0.453 OA
ATOM     35  C   UNL     1       5.099   7.368   3.401  0.00  0.00    +0.466 C 
ATOM     36  O   UNL     1       3.692   7.197   3.151  0.00  0.00    -0.453 OA
ENDBRANCH  27  28
ENDBRANCH   1  27
TORSDOF 8
