REMARK  Name = ZINC41587032
REMARK  6 active torsions:
REMARK  status: ('A' for Active; 'I' for Inactive)
REMARK    1  A    between atoms: C_1  and  C_2
REMARK    2  A    between atoms: C_10  and  C_11
REMARK    3  A    between atoms: N_19  and  C_22
REMARK    4  A    between atoms: C_22  and  C_23
REMARK    5  A    between atoms: C_26  and  O_29
REMARK    6  A    between atoms: O_29  and  C_30
REMARK                            x       y       z     vdW  Elec       q    Type
REMARK                         _______ _______ _______ _____ _____    ______ ____
ROOT
ATOM      1  C   UNL     1      -0.018   1.503   0.010  0.00  0.00    +0.051 C 
ATOM      2  C   UNL     1       0.002  -0.004   0.002  0.00  0.00    +0.034 A 
ATOM      3  C   UNL     1       0.006  -0.690  -1.205  0.00  0.00    +0.133 A 
ATOM      4  C   UNL     1       0.026  -2.081  -1.223  0.00  0.00    +0.010 A 
ATOM      5  C   UNL     1       0.040  -2.784  -0.049  0.00  0.00    +0.024 A 
ATOM      6  C   UNL     1       0.036  -2.107   1.169  0.00  0.00    +0.068 A 
ATOM      7  C   UNL     1       0.023  -0.703   1.200  0.00  0.00    +0.146 A 
ATOM      8  O   UNL     1       0.030  -0.296   2.488  0.00  0.00    -0.451 OA
ATOM      9  C   UNL     1       0.050  -1.348   3.339  0.00  0.00    +0.177 C 
ATOM     10  C   UNL     1       0.060  -1.271   4.701  0.00  0.00    +0.065 C 
ATOM     11  C   UNL     1       0.047  -2.546   2.576  0.00  0.00    +0.231 C 
ATOM     12  O   UNL     1       0.062  -3.692   2.995  0.00  0.00    -0.283 OA
ATOM     13  C   UNL     1       0.038  -2.834  -2.530  0.00  0.00    +0.126 C 
ATOM     14  N   UNL     1      -0.391  -1.942  -3.616  0.00  0.00    -0.262 NA
ATOM     15  C   UNL     1       0.357  -0.676  -3.558  0.00  0.00    +0.319 C 
ATOM     16  O   UNL     1      -0.013   0.018  -2.365  0.00  0.00    -0.476 OA
ENDROOT
BRANCH  10  17
ATOM     17  C   UNL     1       0.051  -0.010   5.338  0.00  0.00    +0.016 A 
ATOM     18  C   UNL     1       0.064   0.287   6.698  0.00  0.00    +0.015 A 
ATOM     19  C   UNL     1       0.050   1.624   7.014  0.00  0.00    +0.008 A 
ATOM     20  C   UNL     1       0.024   2.539   6.012  0.00  0.00    +0.046 A 
ATOM     21  S   UNL     1       0.026   1.617   4.608  0.00  0.00    -0.097 S 
ENDBRANCH  10  17
BRANCH  14  22
ATOM     22  C   UNL     1      -0.229  -2.590  -4.924  0.00  0.00    +0.123 C 
BRANCH  22  23
ATOM     23  C   UNL     1      -0.899  -1.756  -5.985  0.00  0.00    -0.033 A 
ATOM     24  C   UNL     1      -2.229  -1.972  -6.295  0.00  0.00    +0.008 A 
ATOM     25  C   UNL     1      -2.845  -1.208  -7.268  0.00  0.00    +0.046 A 
ATOM     26  C   UNL     1      -2.129  -0.224  -7.933  0.00  0.00    +0.120 A 
ATOM     27  C   UNL     1      -0.795  -0.009  -7.619  0.00  0.00    +0.046 A 
ATOM     28  C   UNL     1      -0.184  -0.771  -6.642  0.00  0.00    +0.008 A 
BRANCH  26  29
ATOM     29  O   UNL     1      -2.733   0.528  -8.890  0.00  0.00    -0.495 OA
ATOM     30  C   UNL     1      -1.935   1.524  -9.533  0.00  0.00    +0.277 C 
ENDBRANCH  26  29
ENDBRANCH  22  23
ENDBRANCH  14  22
TORSDOF 4
