REMARK  Name = ZINC48659917
REMARK  5 active torsions:
REMARK  status: ('A' for Active; 'I' for Inactive)
REMARK    1  A    between atoms: C_1  and  C_2
REMARK    2  A    between atoms: C_5  and  C_8
REMARK    3  A    between atoms: C_9  and  S_10
REMARK    4  A    between atoms: S_10  and  O_13
REMARK    5  A    between atoms: O_13  and  C_14
REMARK                            x       y       z     vdW  Elec       q    Type
REMARK                         _______ _______ _______ _____ _____    ______ ____
ROOT
ATOM      1  S   UNL     1       0.098  -6.682   1.113  0.00  0.00    +0.144 S 
ATOM      2  O   UNL     1      -0.917  -7.106   2.012  0.00  0.00    -0.132 OA
ATOM      3  O   UNL     1       0.123  -7.080  -0.251  0.00  0.00    -0.132 OA
ENDROOT
BRANCH   1   5
ATOM      4  C   UNL     1       0.060  -4.251  -0.021  0.00  0.00    +0.030 C 
ATOM      5  C   UNL     1       0.074  -4.920   1.123  0.00  0.00    +0.178 C 
BRANCH   4  10
ATOM      6  C   UNL     1      -0.018   1.503   0.010  0.00  0.00    +0.044 C 
ATOM      7  C   UNL     1       0.002  -0.004   0.002  0.00  0.00    -0.050 A 
ATOM      8  C   UNL     1       0.006  -0.686  -1.202  0.00  0.00    +0.004 A 
ATOM      9  C   UNL     1       0.024  -2.066  -1.216  0.00  0.00    +0.008 A 
ATOM     10  C   UNL     1       0.040  -2.773  -0.013  0.00  0.00    -0.024 A 
ATOM     11  C   UNL     1       0.037  -2.079   1.197  0.00  0.00    +0.008 A 
ATOM     12  C   UNL     1       0.023  -0.699   1.198  0.00  0.00    +0.004 A 
ENDBRANCH   4  10
ENDBRANCH   1   5
BRANCH   1  13
ATOM     13  O   UNL     1       1.425  -7.117   1.718  0.00  0.00    -0.343 OA
BRANCH  13  14
ATOM     14  C   UNL     1       1.488  -6.981   3.069  0.00  0.00    +0.157 A 
ATOM     15  C   UNL     1       1.942  -5.794   3.627  0.00  0.00    +0.050 A 
ATOM     16  C   UNL     1       2.005  -5.657   5.000  0.00  0.00    +0.023 A 
ATOM     17  C   UNL     1       1.617  -6.702   5.819  0.00  0.00    +0.041 A 
ATOM     18  C   UNL     1       1.165  -7.886   5.265  0.00  0.00    +0.023 A 
ATOM     19  C   UNL     1       1.093  -8.025   3.892  0.00  0.00    +0.050 A 
ATOM     20 CL   UNL     1       1.698  -6.527   7.544  0.00  0.00    -0.084 Cl
ENDBRANCH  13  14
ENDBRANCH   1  13
TORSDOF 4
