REMARK  Name = ZINC36497680
REMARK  9 active torsions:
REMARK  status: ('A' for Active; 'I' for Inactive)
REMARK    1  A    between atoms: C_3  and  C_8
REMARK    2  A    between atoms: C_5  and  O_7
REMARK    3  A    between atoms: C_8  and  C_10
REMARK    4  A    between atoms: C_8  and  N_19
REMARK    5  A    between atoms: N_12  and  C_13
REMARK    6  A    between atoms: N_19  and  C_20
REMARK    7  A    between atoms: C_20  and  C_21
REMARK    8  A    between atoms: C_26  and  C_28
REMARK    9  A    between atoms: C_28  and  C_29
REMARK                            x       y       z     vdW  Elec       q    Type
REMARK                         _______ _______ _______ _____ _____    ______ ____
ROOT
ATOM      1  C   UNL     1       2.994   2.606   0.303  0.00  0.00    +0.193 C 
ENDROOT
BRANCH   1   4
ATOM      2  C   UNL     1       0.402   5.279  -0.330  0.00  0.00    +0.004 A 
ATOM      3  C   UNL     1       1.620   4.643  -0.173  0.00  0.00    +0.006 A 
ATOM      4  C   UNL     1       1.665   3.296   0.132  0.00  0.00    -0.015 A 
ATOM      5  C   UNL     1       0.492   2.580   0.281  0.00  0.00    +0.051 A 
ATOM      6  C   UNL     1      -0.731   3.216   0.124  0.00  0.00    +0.117 A 
ATOM      7  C   UNL     1      -0.773   4.569  -0.182  0.00  0.00    +0.045 A 
BRANCH   6   8
ATOM      8  O   UNL     1      -1.886   2.515   0.270  0.00  0.00    -0.507 OA
ATOM      9  H   UNL     1      -2.230   2.507   1.174  0.00  0.00    +0.292 HD
ENDBRANCH   6   8
ENDBRANCH   1   4
BRANCH   1  10
ATOM     10  C   UNL     1       3.612   3.023   1.612  0.00  0.00    +0.238 C 
ATOM     11  O   UNL     1       4.440   3.909   1.636  0.00  0.00    -0.273 OA
ATOM     12  N   UNL     1       3.245   2.413   2.756  0.00  0.00    -0.311 N 
ATOM     13  H   UNL     1       2.583   1.704   2.737  0.00  0.00    +0.149 HD
BRANCH  12  14
ATOM     14  C   UNL     1       3.847   2.818   4.029  0.00  0.00    +0.073 C 
ATOM     15  C   UNL     1       5.169   2.075   4.228  0.00  0.00    +0.022 C 
ATOM     16  C   UNL     1       5.797   2.499   5.557  0.00  0.00    +0.002 C 
ATOM     17  C   UNL     1       4.843   2.159   6.704  0.00  0.00    +0.000 C 
ATOM     18  C   UNL     1       3.521   2.902   6.504  0.00  0.00    +0.002 C 
ATOM     19  C   UNL     1       2.893   2.478   5.175  0.00  0.00    +0.022 C 
ENDBRANCH  12  14
ENDBRANCH   1  10
BRANCH   1  20
ATOM     20  N   UNL     1       3.884   2.981  -0.799  0.00  0.00    -0.278 N 
ATOM     21  C   UNL     1       4.228   2.067  -1.728  0.00  0.00    +0.221 C 
ATOM     22  O   UNL     1       3.801   0.934  -1.652  0.00  0.00    -0.275 OA
BRANCH  20  23
ATOM     23  C   UNL     1       4.399   4.349  -0.891  0.00  0.00    +0.183 C 
BRANCH  23  24
ATOM     24  C   UNL     1       5.894   4.336  -0.700  0.00  0.00    +0.122 A 
ATOM     25  C   UNL     1       6.812   4.549  -1.660  0.00  0.00    +0.046 A 
ATOM     26  C   UNL     1       8.080   4.446  -1.044  0.00  0.00    +0.041 A 
ATOM     27  C   UNL     1       7.861   4.175   0.256  0.00  0.00    +0.195 A 
ATOM     28  O   UNL     1       6.535   4.116   0.460  0.00  0.00    -0.466 OA
ENDBRANCH  23  24
ENDBRANCH  20  23
BRANCH  21  29
ATOM     29  C   UNL     1       5.143   2.452  -2.862  0.00  0.00    +0.131 C 
BRANCH  29  30
ATOM     30  C   UNL     1       5.368   1.259  -3.753  0.00  0.00    -0.039 A 
ATOM     31  C   UNL     1       6.417   0.395  -3.499  0.00  0.00    +0.005 A 
ATOM     32  C   UNL     1       6.624  -0.700  -4.317  0.00  0.00    +0.015 A 
ATOM     33  C   UNL     1       5.782  -0.932  -5.389  0.00  0.00    +0.018 A 
ATOM     34  C   UNL     1       4.732  -0.068  -5.643  0.00  0.00    +0.015 A 
ATOM     35  C   UNL     1       4.523   1.024  -4.822  0.00  0.00    +0.005 A 
ATOM     36 BR   UNL     1       6.065  -2.430  -6.508  0.00  0.00    -0.050 Br
ENDBRANCH  29  30
ENDBRANCH  21  29
ENDBRANCH   1  20
TORSDOF 9
