REMARK  Name = ZINC40733562
REMARK  5 active torsions:
REMARK  status: ('A' for Active; 'I' for Inactive)
REMARK    1  A    between atoms: C_1  and  C_2
REMARK    2  A    between atoms: C_2  and  C_3
REMARK    3  A    between atoms: C_11  and  N_24
REMARK    4  A    between atoms: C_12  and  N_16
REMARK    5  A    between atoms: N_16  and  C_17
REMARK                            x       y       z     vdW  Elec       q    Type
REMARK                         _______ _______ _______ _____ _____    ______ ____
ROOT
ATOM      1  C   UNL     1      -2.809   0.316  -0.086  0.00  0.00    +0.075 C 
ATOM      2  C   UNL     1      -2.348  -0.169   1.292  0.00  0.00    +0.022 C 
ATOM      3  C   UNL     1      -2.265  -1.698   1.289  0.00  0.00    +0.003 C 
ATOM      4  C   UNL     1      -1.240  -2.153   0.248  0.00  0.00    +0.019 C 
ATOM      5  C   UNL     1      -1.690  -1.690  -1.142  0.00  0.00    +0.107 C 
ATOM      6  N   UNL     1      -1.914  -0.238  -1.110  0.00  0.00    -0.311 N 
ATOM      7  C   UNL     1      -1.287   0.595  -2.029  0.00  0.00    +0.147 A 
ATOM      8  C   UNL     1      -1.939   0.969  -3.207  0.00  0.00    +0.106 A 
ATOM      9  C   UNL     1      -1.265   1.808  -4.095  0.00  0.00    +0.149 A 
ATOM     10  N   UNL     1      -0.035   2.217  -3.788  0.00  0.00    -0.219 NA
ATOM     11  C   UNL     1       0.543   1.841  -2.667  0.00  0.00    +0.225 A 
ATOM     12  N   UNL     1      -0.060   1.054  -1.798  0.00  0.00    -0.219 NA
ENDROOT
BRANCH   8  13
ATOM     13  N   UNL     1      -3.236   0.512  -3.489  0.00  0.00    -0.353 N 
ATOM     14  H   UNL     1      -3.664  -0.129  -2.900  0.00  0.00    +0.143 HD
ATOM     15  H   UNL     1      -3.705   0.838  -4.273  0.00  0.00    +0.143 HD
ENDBRANCH   8  13
BRANCH   1  17
ATOM     16  C   UNL     1      -3.780   2.419   0.851  0.00  0.00    +0.006 C 
ATOM     17  C   UNL     1      -2.760   1.844  -0.135  0.00  0.00    +0.019 C 
ENDBRANCH   1  17
BRANCH   9  18
ATOM     18  N   UNL     1      -1.867   2.210  -5.282  0.00  0.00    -0.298 N 
ATOM     19  H   UNL     1      -2.789   1.970  -5.463  0.00  0.00    +0.154 HD
BRANCH  18  20
ATOM     20  C   UNL     1      -1.144   2.961  -6.214  0.00  0.00    +0.032 A 
ATOM     21  C   UNL     1      -1.789   3.917  -6.988  0.00  0.00    +0.025 A 
ATOM     22  C   UNL     1      -1.073   4.657  -7.907  0.00  0.00    +0.022 A 
ATOM     23  C   UNL     1       0.287   4.447  -8.058  0.00  0.00    +0.041 A 
ATOM     24  C   UNL     1       0.932   3.495  -7.288  0.00  0.00    +0.022 A 
ATOM     25  C   UNL     1       0.222   2.756  -6.362  0.00  0.00    +0.025 A 
ATOM     26 CL   UNL     1       1.185   5.380  -9.215  0.00  0.00    -0.084 Cl
ENDBRANCH  18  20
ENDBRANCH   9  18
TORSDOF 4
