REMARK  Name = ZINC39142900
REMARK  7 active torsions:
REMARK  status: ('A' for Active; 'I' for Inactive)
REMARK    1  A    between atoms: C_1  and  O_2
REMARK    2  A    between atoms: O_2  and  C_3
REMARK    3  A    between atoms: C_5  and  C_12
REMARK    4  A    between atoms: C_8  and  O_9
REMARK    5  A    between atoms: O_9  and  C_10
REMARK    6  A    between atoms: N_13  and  N_14
REMARK    7  A    between atoms: N_14  and  C_15
REMARK                            x       y       z     vdW  Elec       q    Type
REMARK                         _______ _______ _______ _____ _____    ______ ____
ROOT
ATOM      1  C   UNL     1      -4.854   0.227   0.008  0.00  0.00    +0.138 C 
ATOM      2  N   UNL     1      -6.000  -0.378  -0.052  0.00  0.00    -0.191 NA
ENDROOT
BRANCH   1   5
ATOM      3  C   UNL     1      -1.239  -0.584  -0.609  0.00  0.00    +0.163 A 
ATOM      4  C   UNL     1      -2.377   0.052  -0.146  0.00  0.00    +0.059 A 
ATOM      5  C   UNL     1      -3.637  -0.447  -0.483  0.00  0.00    -0.001 A 
ATOM      6  C   UNL     1      -3.743  -1.585  -1.285  0.00  0.00    +0.028 A 
ATOM      7  C   UNL     1      -2.604  -2.215  -1.743  0.00  0.00    +0.064 A 
ATOM      8  C   UNL     1      -1.351  -1.716  -1.413  0.00  0.00    +0.175 A 
ATOM      9 BR   UNL     1      -2.749  -3.756  -2.829  0.00  0.00    -0.046 Br
BRANCH   3  11
ATOM     10  C   UNL     1       0.031   1.062   0.546  0.00  0.00    +0.277 C 
ATOM     11  O   UNL     1      -0.010  -0.101  -0.283  0.00  0.00    -0.491 OA
ENDBRANCH   3  11
BRANCH   8  12
ATOM     12  O   UNL     1      -0.232  -2.336  -1.871  0.00  0.00    -0.490 OA
ATOM     13  C   UNL     1       0.318  -3.370  -1.053  0.00  0.00    +0.277 C 
ENDBRANCH   8  12
ENDBRANCH   1   5
BRANCH   2  14
ATOM     14  N   UNL     1      -6.054  -1.778  -0.054  0.00  0.00    -0.229 N 
ATOM     15  H   UNL     1      -5.244  -2.294   0.085  0.00  0.00    +0.172 HD
BRANCH  14  16
ATOM     16  C   UNL     1      -7.332  -2.461  -0.266  0.00  0.00    +0.283 C 
ATOM     17  N   UNL     1      -7.966  -2.755   1.026  0.00  0.00    -0.347 N 
ATOM     18  C   UNL     1      -8.096  -4.047   1.113  0.00  0.00    +0.061 A 
ATOM     19  C   UNL     1      -8.650  -4.928   2.150  0.00  0.00    +0.027 A 
ATOM     20  C   UNL     1      -8.650  -6.262   1.959  0.00  0.00    +0.002 A 
ATOM     21  C   UNL     1      -8.136  -6.861   0.795  0.00  0.00    +0.002 A 
ATOM     22  C   UNL     1      -7.605  -6.146  -0.217  0.00  0.00    +0.027 A 
ATOM     23  C   UNL     1      -7.553  -4.681  -0.119  0.00  0.00    +0.061 A 
ATOM     24  N   UNL     1      -7.108  -3.756  -0.920  0.00  0.00    -0.347 N 
ATOM     25  H   UNL     1      -8.239  -2.104   1.692  0.00  0.00    +0.163 HD
ATOM     26  H   UNL     1      -6.704  -3.897  -1.791  0.00  0.00    +0.163 HD
ENDBRANCH  14  16
ENDBRANCH   2  14
TORSDOF 5
