REMARK  Name = ZINC00994170
REMARK  9 active torsions:
REMARK  status: ('A' for Active; 'I' for Inactive)
REMARK    1  A    between atoms: C_1  and  C_2
REMARK    2  A    between atoms: C_3  and  C_21
REMARK    3  A    between atoms: C_15  and  C_19
REMARK    4  A    between atoms: C_16  and  N_18
REMARK    5  A    between atoms: C_21  and  O_23
REMARK    6  A    between atoms: O_23  and  C_24
REMARK    7  A    between atoms: C_24  and  C_25
REMARK    8  A    between atoms: C_24  and  C_26
REMARK    9  A    between atoms: C_24  and  C_27
REMARK                            x       y       z     vdW  Elec       q    Type
REMARK                         _______ _______ _______ _____ _____    ______ ____
ROOT
ATOM      1  C   UNL     1      -4.008  -0.307  -2.396  0.00  0.00    +0.087 C 
ATOM      2  C   UNL     1      -3.183  -0.416  -1.139  0.00  0.00    +0.116 C 
ATOM      3  C   UNL     1      -1.943  -0.919  -1.219  0.00  0.00    +0.099 C 
ATOM      4  C   UNL     1      -1.086  -1.048   0.006  0.00  0.00    +0.148 C 
ATOM      5  C   UNL     1       0.002  -0.004   0.002  0.00  0.00    -0.001 A 
ATOM      6  C   UNL     1      -0.017   1.373   0.010  0.00  0.00    +0.010 A 
ATOM      7  C   UNL     1       1.172   2.080   0.002  0.00  0.00    +0.039 A 
ATOM      8  C   UNL     1       2.379   1.400  -0.013  0.00  0.00    +0.125 A 
ATOM      9  C   UNL     1       2.400   0.018  -0.021  0.00  0.00    +0.062 A 
ATOM     10  C   UNL     1       1.206  -0.700  -0.013  0.00  0.00    +0.041 A 
ATOM     11  N   UNL     1       0.968  -2.075  -0.017  0.00  0.00    -0.284 N 
ATOM     12  C   UNL     1      -0.345  -2.364  -0.005  0.00  0.00    +0.238 C 
ATOM     13  O   UNL     1      -0.840  -3.471  -0.004  0.00  0.00    -0.274 OA
ATOM     14  F   UNL     1       3.540   2.090  -0.020  0.00  0.00    -0.205 F 
ATOM     15  C   UNL     1      -1.923  -0.929   1.248  0.00  0.00    +0.110 C 
ATOM     16  C   UNL     1      -3.179  -0.420   1.183  0.00  0.00    +0.199 C 
ATOM     17  O   UNL     1      -3.714  -0.005   0.022  0.00  0.00    -0.445 OA
ATOM     18  H   UNL     1       1.670  -2.745  -0.027  0.00  0.00    +0.155 HD
ENDROOT
BRANCH  16  19
ATOM     19  N   UNL     1      -3.923  -0.328   2.333  0.00  0.00    -0.328 N 
ATOM     20  H   UNL     1      -3.549  -0.624   3.178  0.00  0.00    +0.145 HD
ATOM     21  H   UNL     1      -4.822   0.034   2.301  0.00  0.00    +0.145 HD
ENDBRANCH  16  19
BRANCH  15  22
ATOM     22  C   UNL     1      -1.392  -1.357   2.507  0.00  0.00    +0.102 C 
ATOM     23  N   UNL     1      -0.972  -1.696   3.507  0.00  0.00    -0.191 NA
ENDBRANCH  15  22
BRANCH   3  24
ATOM     24  C   UNL     1      -1.436  -1.334  -2.475  0.00  0.00    +0.341 C 
ATOM     25  O   UNL     1      -2.125  -1.232  -3.473  0.00  0.00    -0.245 OA
BRANCH  24  26
ATOM     26  O   UNL     1      -0.190  -1.842  -2.565  0.00  0.00    -0.456 OA
BRANCH  26  27
ATOM     27  C   UNL     1       0.257  -2.240  -3.862  0.00  0.00    +0.106 C 
ATOM     28  C   UNL     1       0.237  -1.032  -4.801  0.00  0.00    +0.055 C 
ATOM     29  C   UNL     1       1.683  -2.787  -3.765  0.00  0.00    +0.055 C 
ATOM     30  C   UNL     1      -0.670  -3.327  -4.409  0.00  0.00    +0.055 C 
ENDBRANCH  26  27
ENDBRANCH  24  26
ENDBRANCH   3  24
TORSDOF 5
