REMARK  Name = ZINC61502284
REMARK  5 active torsions:
REMARK  status: ('A' for Active; 'I' for Inactive)
REMARK    1  A    between atoms: C_4  and  N_7
REMARK    2  A    between atoms: C_10  and  C_12
REMARK    3  A    between atoms: C_12  and  N_13
REMARK    4  A    between atoms: N_16  and  C_17
REMARK    5  A    between atoms: C_17  and  C_18
REMARK                            x       y       z     vdW  Elec       q    Type
REMARK                         _______ _______ _______ _____ _____    ______ ____
ROOT
ATOM      1  N   UNL     1       7.061  -3.845   0.855  0.00  0.00    -0.299 N 
ATOM      2  C   UNL     1       7.573  -4.858   1.582  0.00  0.00    +0.300 C 
ATOM      3  O   UNL     1       6.837  -5.565   2.242  0.00  0.00    -0.253 OA
ATOM      4  N   UNL     1       8.901  -5.087   1.576  0.00  0.00    -0.299 N 
ATOM      5  H   UNL     1       7.648  -3.281   0.328  0.00  0.00    +0.150 HD
ATOM      6  H   UNL     1       9.488  -4.523   1.049  0.00  0.00    +0.150 HD
ENDROOT
BRANCH   1   7
ATOM      7  C   UNL     1       5.617  -3.596   0.862  0.00  0.00    +0.110 C 
BRANCH   7  11
ATOM      8  N   UNL     1       3.620  -0.649  -0.036  0.00  0.00    -0.330 N 
ATOM      9  C   UNL     1       4.954  -0.021  -0.040  0.00  0.00    +0.105 C 
ATOM     10  C   UNL     1       5.899  -1.095   0.556  0.00  0.00    +0.025 C 
ATOM     11  C   UNL     1       5.302  -2.398  -0.037  0.00  0.00    +0.025 C 
ATOM     12  C   UNL     1       3.786  -2.110  -0.046  0.00  0.00    +0.110 C 
BRANCH   8  16
ATOM     13  C   UNL     1      -0.017   1.379   0.010  0.00  0.00    +0.000 A 
ATOM     14  C   UNL     1       1.169   2.089   0.002  0.00  0.00    +0.002 A 
ATOM     15  C   UNL     1       2.377   1.420  -0.013  0.00  0.00    +0.023 A 
ATOM     16  C   UNL     1       2.400   0.031  -0.021  0.00  0.00    +0.030 A 
ATOM     17  C   UNL     1       1.206  -0.680  -0.013  0.00  0.00    +0.023 A 
ATOM     18  C   UNL     1       0.002  -0.004   0.002  0.00  0.00    +0.002 A 
ENDBRANCH   8  16
ENDBRANCH   7  11
ENDBRANCH   1   7
BRANCH   4  19
ATOM     19  C   UNL     1       9.458  -6.189   2.365  0.00  0.00    +0.113 C 
BRANCH  19  20
ATOM     20  C   UNL     1      10.976  -6.229   2.184  0.00  0.00    +0.048 C 
ATOM     21  C   UNL     1      11.574  -7.316   3.081  0.00  0.00    +0.047 C 
ATOM     22  C   UNL     1      13.010  -7.561   2.693  0.00  0.00    -0.005 A 
ATOM     23  C   UNL     1      13.841  -8.213   3.590  0.00  0.00    +0.007 A 
ATOM     24  C   UNL     1      15.161  -8.456   3.267  0.00  0.00    +0.000 A 
ATOM     25  C   UNL     1      15.659  -8.050   2.042  0.00  0.00    +0.004 A 
ATOM     26  C   UNL     1      14.837  -7.399   1.146  0.00  0.00    +0.046 A 
ATOM     27  C   UNL     1      13.507  -7.150   1.469  0.00  0.00    +0.124 A 
ATOM     28  O   UNL     1      12.732  -6.497   0.564  0.00  0.00    -0.491 OA
ATOM     29  C   UNL     1      11.314  -6.567   0.726  0.00  0.00    +0.234 C 
ENDBRANCH  19  20
ENDBRANCH   4  19
TORSDOF 5
