REMARK  Name = ZINC67000413
REMARK  7 active torsions:
REMARK  status: ('A' for Active; 'I' for Inactive)
REMARK    1  A    between atoms: C_1  and  C_2
REMARK    2  A    between atoms: C_3  and  N_11
REMARK    3  A    between atoms: C_7  and  N_8
REMARK    4  A    between atoms: C_12  and  C_14
REMARK    5  A    between atoms: N_16  and  C_17
REMARK    6  A    between atoms: C_17  and  C_18
REMARK    7  A    between atoms: C_18  and  O_28
REMARK                            x       y       z     vdW  Elec       q    Type
REMARK                         _______ _______ _______ _____ _____    ______ ____
ROOT
ATOM      1  C   UNL     1      -0.712  -0.775  -4.363  0.00  0.00    +0.299 C 
ATOM      2  O   UNL     1      -0.790   0.436  -4.351  0.00  0.00    -0.265 OA
ATOM      3  N   UNL     1      -0.655  -1.436  -5.536  0.00  0.00    -0.305 N 
ATOM      4  H   UNL     1      -0.592  -2.404  -5.545  0.00  0.00    +0.149 HD
ENDROOT
BRANCH   1   6
ATOM      5  N   UNL     1      -0.733  -0.872  -1.903  0.00  0.00    -0.277 N 
ATOM      6  C   UNL     1      -0.677  -1.532  -3.076  0.00  0.00    +0.303 C 
ATOM      7  O   UNL     1      -0.598  -2.744  -3.087  0.00  0.00    -0.265 OA
ATOM      8  H   UNL     1      -0.722   0.098  -1.892  0.00  0.00    +0.155 HD
BRANCH   5  11
ATOM      9  C   UNL     1      -2.234   0.257   0.236  0.00  0.00    +0.048 C 
ATOM     10  C   UNL     1      -1.530  -1.070   0.367  0.00  0.00    +0.001 A 
ATOM     11  C   UNL     1      -0.808  -1.583  -0.703  0.00  0.00    +0.039 A 
ATOM     12  C   UNL     1      -0.162  -2.806  -0.577  0.00  0.00    +0.024 A 
ATOM     13  C   UNL     1      -0.238  -3.507   0.610  0.00  0.00    +0.004 A 
ATOM     14  C   UNL     1      -0.958  -2.994   1.673  0.00  0.00    +0.033 A 
ATOM     15  C   UNL     1      -1.598  -1.773   1.554  0.00  0.00    +0.131 A 
BRANCH  15  16
ATOM     16  N   UNL     1      -2.361  -1.224   2.697  0.00  0.00    +0.057 N 
ATOM     17  O   UNL     1      -2.480  -0.028   2.825  0.00  0.00    -0.126 OA
ATOM     18  O   UNL     1      -2.866  -1.972   3.501  0.00  0.00    -0.126 OA
ENDBRANCH  15  16
ENDBRANCH   5  11
ENDBRANCH   1   6
BRANCH   3  19
ATOM     19  C   UNL     1      -0.689  -0.692  -6.798  0.00  0.00    +0.144 C 
BRANCH  19  20
ATOM     20  C   UNL     1      -0.739  -1.676  -7.968  0.00  0.00    +0.107 C 
ATOM     21  C   UNL     1      -1.940  -2.603  -7.796  0.00  0.00    +0.041 C 
ATOM     22  C   UNL     1      -2.100  -3.431  -9.077  0.00  0.00    +0.008 C 
ATOM     23  C   UNL     1      -2.569  -2.502 -10.195  0.00  0.00    +0.035 C 
ATOM     24  C   UNL     1      -1.680  -1.289 -10.284  0.00  0.00    -0.041 A 
ATOM     25  C   UNL     1      -0.843  -0.908  -9.259  0.00  0.00    -0.011 A 
ATOM     26  C   UNL     1      -0.053   0.226  -9.402  0.00  0.00    +0.007 A 
ATOM     27  C   UNL     1      -0.100   0.971 -10.563  0.00  0.00    +0.000 A 
ATOM     28  C   UNL     1      -0.938   0.586 -11.593  0.00  0.00    +0.000 A 
ATOM     29  C   UNL     1      -1.724  -0.539 -11.452  0.00  0.00    +0.004 A 
BRANCH  20  30
ATOM     30  O   UNL     1       0.459  -2.456  -7.979  0.00  0.00    -0.382 OA
ATOM     31  H   UNL     1       1.267  -1.934  -8.077  0.00  0.00    +0.211 HD
ENDBRANCH  20  30
ENDBRANCH  19  20
ENDBRANCH   3  19
TORSDOF 6
