REMARK  Name = ZINC66925444
REMARK  6 active torsions:
REMARK  status: ('A' for Active; 'I' for Inactive)
REMARK    1  A    between atoms: C_1  and  C_2
REMARK    2  A    between atoms: C_2  and  C_4
REMARK    3  A    between atoms: C_2  and  N_12
REMARK    4  A    between atoms: N_15  and  N_16
REMARK    5  A    between atoms: C_17  and  C_19
REMARK    6  A    between atoms: C_19  and  C_20
REMARK                            x       y       z     vdW  Elec       q    Type
REMARK                         _______ _______ _______ _____ _____    ______ ____
ROOT
ATOM      1  N   UNL     1      -1.372  -0.511   0.012  0.00  0.00    -0.292 N 
ATOM      2  C   UNL     1      -2.051  -0.643  -1.145  0.00  0.00    +0.316 C 
ATOM      3  O   UNL     1      -1.522  -0.341  -2.197  0.00  0.00    -0.251 OA
ATOM      4  N   UNL     1      -3.315  -1.109  -1.135  0.00  0.00    -0.218 N 
ATOM      5  H   UNL     1      -1.794  -0.752   0.852  0.00  0.00    +0.151 HD
ATOM      6  H   UNL     1      -3.804  -1.204  -1.968  0.00  0.00    +0.174 HD
ENDROOT
BRANCH   4   7
ATOM      7  N   UNL     1      -3.924  -1.457   0.078  0.00  0.00    -0.233 N 
ATOM      8  C   UNL     1      -5.189  -1.924   0.087  0.00  0.00    +0.234 C 
ATOM      9  O   UNL     1      -5.799  -2.042  -0.954  0.00  0.00    -0.274 OA
ATOM     10  H   UNL     1      -3.436  -1.363   0.910  0.00  0.00    +0.173 HD
BRANCH   8  11
ATOM     11  C   UNL     1      -5.844  -2.298   1.392  0.00  0.00    +0.135 C 
BRANCH  11  12
ATOM     12  C   UNL     1      -7.245  -2.787   1.128  0.00  0.00    -0.003 A 
ATOM     13  C   UNL     1      -8.311  -1.912   1.218  0.00  0.00    +0.007 A 
ATOM     14  C   UNL     1      -9.596  -2.360   0.976  0.00  0.00    +0.000 A 
ATOM     15  C   UNL     1      -9.816  -3.684   0.644  0.00  0.00    +0.003 A 
ATOM     16  C   UNL     1      -8.752  -4.561   0.554  0.00  0.00    +0.038 A 
ATOM     17  C   UNL     1      -7.464  -4.112   0.791  0.00  0.00    +0.127 A 
ATOM     18  F   UNL     1      -6.422  -4.967   0.698  0.00  0.00    -0.205 F 
ENDBRANCH  11  12
ENDBRANCH   8  11
ENDBRANCH   4   7
BRANCH   1  20
ATOM     19  C   UNL     1      -0.019   1.526   0.010  0.00  0.00    +0.033 C 
ATOM     20  C   UNL     1       0.002  -0.004   0.002  0.00  0.00    +0.102 C 
BRANCH  20  21
ATOM     21  C   UNL     1       0.731  -0.503   1.223  0.00  0.00    -0.026 A 
ATOM     22  C   UNL     1       0.080  -0.558   2.442  0.00  0.00    +0.008 A 
ATOM     23  C   UNL     1       0.747  -1.016   3.562  0.00  0.00    +0.040 A 
ATOM     24  C   UNL     1       2.067  -1.420   3.465  0.00  0.00    +0.142 A 
ATOM     25  C   UNL     1       2.719  -1.365   2.243  0.00  0.00    +0.076 A 
ATOM     26  C   UNL     1       2.048  -0.911   1.122  0.00  0.00    +0.028 A 
ATOM     27 CL   UNL     1       4.375  -1.871   2.119  0.00  0.00    -0.081 Cl
ATOM     28  F   UNL     1       2.720  -1.868   4.560  0.00  0.00    -0.204 F 
ENDBRANCH  20  21
ENDBRANCH   1  20
TORSDOF 5
