REMARK  Name = ZINC44528856
REMARK  4 active torsions:
REMARK  status: ('A' for Active; 'I' for Inactive)
REMARK    1  A    between atoms: C_2  and  S_8
REMARK    2  A    between atoms: S_8  and  N_11
REMARK    3  A    between atoms: C_15  and  C_18
REMARK    4  A    between atoms: C_18  and  N_19
REMARK                            x       y       z     vdW  Elec       q    Type
REMARK                         _______ _______ _______ _____ _____    ______ ____
ROOT
ATOM      1  N   UNL     1       1.896   4.274   1.440  0.00  0.00    -0.176 NA
ATOM      2  C   UNL     1       1.067   4.494   2.633  0.00  0.00    +0.109 C 
ATOM      3  C   UNL     1       1.354   5.896   3.180  0.00  0.00    +0.017 C 
ATOM      4  C   UNL     1       2.857   6.048   3.422  0.00  0.00    +0.004 C 
ATOM      5  C   UNL     1       3.608   5.883   2.099  0.00  0.00    -0.013 C 
ATOM      6  C   UNL     1       3.348   4.476   1.541  0.00  0.00    +0.111 C 
ENDROOT
BRANCH   1   7
ATOM      7  S   UNL     1       1.208   3.800   0.010  0.00  0.00    +0.063 S 
ATOM      8  O   UNL     1       2.099   4.200  -1.022  0.00  0.00    -0.153 OA
ATOM      9  O   UNL     1      -0.148   4.224   0.052  0.00  0.00    -0.153 OA
BRANCH   7  11
ATOM     10  C   UNL     1      -0.016   1.352   0.009  0.00  0.00    +0.057 A 
ATOM     11  C   UNL     1       1.185   2.038   0.002  0.00  0.00    +0.132 A 
ATOM     12  C   UNL     1       2.344   1.335  -0.013  0.00  0.00    +0.106 A 
ATOM     13  S   UNL     1       1.753  -0.350  -0.017  0.00  0.00    -0.063 S 
ATOM     14  C   UNL     1       0.002  -0.004   0.002  0.00  0.00    +0.081 A 
ATOM     15 CL   UNL     1      -1.332  -1.115   0.010  0.00  0.00    -0.076 Cl
ATOM     16 CL   UNL     1       3.978   1.920  -0.026  0.00  0.00    -0.074 Cl
ENDBRANCH   7  11
ENDBRANCH   1   7
BRANCH   5  17
ATOM     17  C   UNL     1       5.108   6.068   2.337  0.00  0.00    -0.082 C 
BRANCH  17  18
ATOM     18  N   UNL     1       5.370   7.450   2.762  0.00  0.00    +0.378 N 
ATOM     19  H   UNL     1       5.062   8.087   2.043  0.00  0.00    -0.090 HD
ATOM     20  H   UNL     1       4.868   7.639   3.617  0.00  0.00    -0.090 HD
ATOM     21  H   UNL     1       6.359   7.572   2.919  0.00  0.00    -0.090 HD
ENDBRANCH  17  18
ENDBRANCH   5  17
TORSDOF 4
