REMARK  Name = ZINC39223237
REMARK  6 active torsions:
REMARK  status: ('A' for Active; 'I' for Inactive)
REMARK    1  A    between atoms: C_1  and  C_2
REMARK    2  A    between atoms: C_2  and  C_36
REMARK    3  A    between atoms: C_6  and  C_26
REMARK    4  A    between atoms: N_11  and  N_12
REMARK    5  A    between atoms: N_12  and  C_13
REMARK    6  A    between atoms: C_14  and  C_20
REMARK                            x       y       z     vdW  Elec       q    Type
REMARK                         _______ _______ _______ _____ _____    ______ ____
ROOT
ATOM      1  C   UNL     1       0.343   1.373   0.126  0.00  0.00    +0.011 C 
ATOM      2  C   UNL     1       0.450  -0.153   0.086  0.00  0.00    -0.023 C 
ATOM      3  C   UNL     1       1.101  -0.588  -1.228  0.00  0.00    +0.060 C 
ATOM      4  C   UNL     1       2.492  -0.011  -1.320  0.00  0.00    +0.041 C 
ATOM      5  C   UNL     1       3.232   0.183  -0.208  0.00  0.00    +0.022 C 
ATOM      6  C   UNL     1       4.641   0.716  -0.316  0.00  0.00    +0.063 C 
ATOM      7  C   UNL     1       4.734   1.692  -1.490  0.00  0.00    +0.111 C 
ATOM      8  C   UNL     1       4.087   1.067  -2.700  0.00  0.00    +0.237 C 
ATOM      9  O   UNL     1       4.554   1.255  -3.803  0.00  0.00    -0.274 OA
ATOM     10  N   UNL     1       2.992   0.303  -2.557  0.00  0.00    -0.194 N 
ATOM     11  C   UNL     1       2.719  -0.099   1.069  0.00  0.00    +0.162 C 
ATOM     12  O   UNL     1       3.413   0.093   2.047  0.00  0.00    -0.292 OA
ATOM     13  C   UNL     1       1.324  -0.637   1.248  0.00  0.00    +0.086 C 
ATOM     14  C   UNL     1      -0.945  -0.769   0.202  0.00  0.00    +0.011 C 
ENDROOT
BRANCH   6  15
ATOM     15  C   UNL     1       5.594  -0.429  -0.541  0.00  0.00    -0.039 A 
ATOM     16  C   UNL     1       5.459  -1.232  -1.658  0.00  0.00    +0.007 A 
ATOM     17  C   UNL     1       6.332  -2.283  -1.865  0.00  0.00    +0.038 A 
ATOM     18  C   UNL     1       7.344  -2.531  -0.953  0.00  0.00    +0.123 A 
ATOM     19  C   UNL     1       7.479  -1.726   0.166  0.00  0.00    +0.038 A 
ATOM     20  C   UNL     1       6.607  -0.673   0.368  0.00  0.00    +0.007 A 
ATOM     21  F   UNL     1       8.199  -3.558  -1.154  0.00  0.00    -0.205 F 
ENDBRANCH   6  15
BRANCH  10  22
ATOM     22  N   UNL     1       2.346  -0.186  -3.700  0.00  0.00    -0.259 N 
ATOM     23  H   UNL     1       2.466  -1.111  -3.966  0.00  0.00    +0.170 HD
BRANCH  22  24
ATOM     24  C   UNL     1       1.557   0.630  -4.430  0.00  0.00    +0.059 C 
ATOM     25  C   UNL     1       0.820   0.161  -5.514  0.00  0.00    +0.110 C 
ATOM     26  N   UNL     1       0.049   0.974  -6.223  0.00  0.00    -0.155 NA
ATOM     27  N   UNL     1      -0.112   2.223  -6.017  0.00  0.00    -0.080 NA
ATOM     28  C   UNL     1       0.497   2.893  -5.027  0.00  0.00    +0.260 C 
ATOM     29  O   UNL     1       0.315   4.083  -4.868  0.00  0.00    -0.272 OA
ATOM     30  C   UNL     1       1.419   2.109  -4.110  0.00  0.00    +0.153 C 
BRANCH  25  31
ATOM     31  C   UNL     1       0.900  -1.273  -5.884  0.00  0.00    +0.003 A 
ATOM     32  C   UNL     1       0.738  -2.257  -4.910  0.00  0.00    +0.010 A 
ATOM     33  C   UNL     1       0.813  -3.590  -5.260  0.00  0.00    +0.001 A 
ATOM     34  C   UNL     1       1.049  -3.950  -6.574  0.00  0.00    +0.000 A 
ATOM     35  C   UNL     1       1.211  -2.979  -7.545  0.00  0.00    +0.001 A 
ATOM     36  C   UNL     1       1.132  -1.643  -7.208  0.00  0.00    +0.010 A 
ENDBRANCH  25  31
ENDBRANCH  22  24
ENDBRANCH  10  22
TORSDOF 4
