REMARK  Name = ZINC09317030
REMARK  11 active torsions:
REMARK  status: ('A' for Active; 'I' for Inactive)
REMARK    1  A    between atoms: C_1  and  C_2
REMARK    2  A    between atoms: C_2  and  C_3
REMARK    3  A    between atoms: C_2  and  C_4
REMARK    4  A    between atoms: C_2  and  C_5
REMARK    5  A    between atoms: C_8  and  O_25
REMARK    6  A    between atoms: C_9  and  N_11
REMARK    7  A    between atoms: C_12  and  C_14
REMARK    8  A    between atoms: C_16  and  S_20
REMARK    9  A    between atoms: N_18  and  C_19
REMARK   10  A    between atoms: S_20  and  N_23
REMARK   11  A    between atoms: N_23  and  C_24
REMARK                            x       y       z     vdW  Elec       q    Type
REMARK                         _______ _______ _______ _____ _____    ______ ____
ROOT
ATOM      1  N   UNL     1      -4.612  -0.093   4.919  0.00  0.00    -0.277 N 
ATOM      2  C   UNL     1      -3.784  -0.359   3.889  0.00  0.00    +0.265 C 
ATOM      3  O   UNL     1      -3.728  -1.484   3.428  0.00  0.00    -0.268 OA
ATOM      4  H   UNL     1      -4.721   0.819   5.230  0.00  0.00    +0.155 HD
ENDROOT
BRANCH   1   9
ATOM      5  C   UNL     1      -6.408  -3.264   5.418  0.00  0.00    -0.040 A 
ATOM      6  C   UNL     1      -6.702  -3.192   6.768  0.00  0.00    +0.008 A 
ATOM      7  C   UNL     1      -6.304  -2.095   7.508  0.00  0.00    +0.047 A 
ATOM      8  C   UNL     1      -5.610  -1.062   6.899  0.00  0.00    +0.138 A 
ATOM      9  C   UNL     1      -5.314  -1.133   5.540  0.00  0.00    +0.076 A 
ATOM     10  C   UNL     1      -5.721  -2.236   4.802  0.00  0.00    +0.031 A 
BRANCH   5  12
ATOM     11  C   UNL     1      -7.585  -5.444   5.528  0.00  0.00    +0.015 C 
ATOM     12  C   UNL     1      -6.844  -4.463   4.617  0.00  0.00    -0.013 C 
ATOM     13  C   UNL     1      -7.775  -4.012   3.489  0.00  0.00    +0.015 C 
ATOM     14  C   UNL     1      -5.615  -5.151   4.019  0.00  0.00    +0.015 C 
ENDBRANCH   5  12
BRANCH   8  15
ATOM     15  O   UNL     1      -5.218   0.018   7.627  0.00  0.00    -0.505 OA
ATOM     16  H   UNL     1      -5.869   0.733   7.649  0.00  0.00    +0.292 HD
ENDBRANCH   8  15
ENDBRANCH   1   9
BRANCH   2  17
ATOM     17  C   UNL     1      -2.951   0.707   3.324  0.00  0.00    +0.106 A 
ATOM     18  C   UNL     1      -2.829   1.991   3.811  0.00  0.00    +0.061 A 
ATOM     19  C   UNL     1      -1.939   2.667   2.970  0.00  0.00    +0.123 A 
ATOM     20  C   UNL     1      -1.536   1.801   2.010  0.00  0.00    +0.114 A 
ATOM     21  N   UNL     1      -2.143   0.607   2.213  0.00  0.00    -0.344 N 
ATOM     22  C   UNL     1      -1.969  -0.592   1.389  0.00  0.00    +0.149 C 
BRANCH  19  23
ATOM     23  S   UNL     1      -1.428   4.345   3.134  0.00  0.00    +0.060 S 
ATOM     24  O   UNL     1      -0.169   4.452   2.484  0.00  0.00    -0.153 OA
ATOM     25  O   UNL     1      -1.613   4.694   4.499  0.00  0.00    -0.153 OA
BRANCH  23  26
ATOM     26  N   UNL     1      -2.491   5.268   2.262  0.00  0.00    -0.193 NA
ATOM     27  C   UNL     1      -3.897   5.346   2.666  0.00  0.00    +0.127 C 
ATOM     28  H   UNL     1      -2.181   5.761   1.485  0.00  0.00    +0.148 HD
ENDBRANCH  23  26
ENDBRANCH  19  23
ENDBRANCH   2  17
TORSDOF 6
