REMARK  Name = ZINC35217450
REMARK  7 active torsions:
REMARK  status: ('A' for Active; 'I' for Inactive)
REMARK    1  A    between atoms: C_1  and  C_2
REMARK    2  A    between atoms: C_8  and  C_18
REMARK    3  A    between atoms: C_10  and  C_12
REMARK    4  A    between atoms: N_16  and  C_17
REMARK    5  A    between atoms: N_20  and  C_21
REMARK    6  A    between atoms: C_21  and  C_22
REMARK    7  A    between atoms: C_22  and  C_23
REMARK                            x       y       z     vdW  Elec       q    Type
REMARK                         _______ _______ _______ _____ _____    ______ ____
ROOT
ATOM      1  C   UNL     1       0.133   1.906  -0.913  0.00  0.00    +0.044 C 
ATOM      2  C   UNL     1       0.136   0.409  -0.742  0.00  0.00    -0.050 A 
ATOM      3  C   UNL     1       0.095  -0.412  -1.866  0.00  0.00    +0.005 A 
ATOM      4  C   UNL     1       0.096  -1.768  -1.747  0.00  0.00    +0.028 A 
ATOM      5  C   UNL     1       0.140  -2.356  -0.469  0.00  0.00    +0.072 A 
ATOM      6  C   UNL     1       0.182  -1.515   0.672  0.00  0.00    +0.013 A 
ATOM      7  C   UNL     1       0.185  -0.126   0.512  0.00  0.00    +0.014 A 
ATOM      8  C   UNL     1       0.228  -2.132   1.998  0.00  0.00    +0.048 A 
ATOM      9  C   UNL     1       0.227  -3.517   2.057  0.00  0.00    +0.043 A 
ATOM     10  C   UNL     1       0.184  -4.259   0.864  0.00  0.00    +0.089 A 
ATOM     11  N   UNL     1       0.143  -3.682  -0.322  0.00  0.00    -0.245 NA
ENDROOT
BRANCH  10  12
ATOM     12  C   UNL     1       0.184  -5.732   0.940  0.00  0.00    +0.067 A 
ATOM     13  C   UNL     1       0.128  -6.478   2.081  0.00  0.00    +0.029 A 
ATOM     14  C   UNL     1       0.150  -7.828   1.700  0.00  0.00    +0.020 A 
ATOM     15  C   UNL     1       0.218  -7.872   0.350  0.00  0.00    +0.086 A 
ATOM     16  N   UNL     1       0.234  -6.597  -0.125  0.00  0.00    -0.349 N 
ATOM     17  C   UNL     1       0.296  -6.211  -1.537  0.00  0.00    +0.149 C 
ENDBRANCH  10  12
BRANCH   8  18
ATOM     18  C   UNL     1       0.273  -1.310   3.227  0.00  0.00    +0.245 C 
ATOM     19  O   UNL     1       0.383  -0.102   3.147  0.00  0.00    -0.270 OA
ATOM     20  N   UNL     1       0.193  -1.901   4.436  0.00  0.00    -0.311 N 
ATOM     21  H   UNL     1       0.106  -2.865   4.500  0.00  0.00    +0.149 HD
BRANCH  20  22
ATOM     22  C   UNL     1       0.238  -1.086   5.653  0.00  0.00    +0.109 C 
BRANCH  22  23
ATOM     23  C   UNL     1       0.130  -1.995   6.879  0.00  0.00    +0.055 C 
BRANCH  23  24
ATOM     24  C   UNL     1       0.176  -1.158   8.131  0.00  0.00    -0.027 A 
ATOM     25  C   UNL     1       1.377  -0.961   8.787  0.00  0.00    +0.006 A 
ATOM     26  C   UNL     1       1.420  -0.193   9.935  0.00  0.00    +0.020 A 
ATOM     27  C   UNL     1       0.261   0.380  10.429  0.00  0.00    +0.042 A 
ATOM     28  C   UNL     1      -0.940   0.183   9.773  0.00  0.00    +0.040 A 
ATOM     29  C   UNL     1      -0.982  -0.581   8.621  0.00  0.00    +0.046 A 
ATOM     30 CL   UNL     1      -2.489  -0.823   7.793  0.00  0.00    -0.083 Cl
ATOM     31 CL   UNL     1       0.316   1.344  11.871  0.00  0.00    -0.083 Cl
ENDBRANCH  23  24
ENDBRANCH  22  23
ENDBRANCH  20  22
ENDBRANCH   8  18
TORSDOF 5
