REMARK  Name = ZINC09085925
REMARK  14 active torsions:
REMARK  status: ('A' for Active; 'I' for Inactive)
REMARK    1  A    between atoms: C_1  and  C_2
REMARK    2  A    between atoms: C_2  and  C_3
REMARK    3  A    between atoms: C_2  and  C_4
REMARK    4  A    between atoms: C_2  and  C_5
REMARK    5  A    between atoms: C_7  and  C_16
REMARK    6  A    between atoms: C_9  and  C_12
REMARK    7  A    between atoms: C_10  and  O_11
REMARK    8  A    between atoms: C_12  and  C_13
REMARK    9  A    between atoms: C_12  and  C_14
REMARK   10  A    between atoms: C_12  and  C_15
REMARK   11  A    between atoms: C_16  and  N_18
REMARK   12  A    between atoms: C_23  and  C_24
REMARK   13  A    between atoms: C_23  and  C_30
REMARK   14  A    between atoms: C_23  and  N_76
REMARK                            x       y       z     vdW  Elec       q    Type
REMARK                         _______ _______ _______ _____ _____    ______ ____
ROOT
ATOM      1  N   UNL     1      -2.114  -1.863   3.042  0.00  0.00    -0.327 N 
ATOM      2  C   UNL     1      -2.171  -2.505   1.720  0.00  0.00    +0.087 C 
ATOM      3  C   UNL     1      -0.882  -2.172   0.961  0.00  0.00    -0.058 C 
ATOM      4  C   UNL     1      -0.520  -0.177   2.293  0.00  0.00    -0.058 C 
ATOM      5  C   UNL     1      -1.794  -0.429   3.106  0.00  0.00    +0.087 C 
ATOM      6  N   UNL     1      -0.719  -0.702   0.924  0.00  0.00    +0.389 N 
ATOM      7  H   UNL     1      -1.568  -0.283   0.528  0.00  0.00    -0.080 HD
ENDROOT
BRANCH   1   8
ATOM      8  C   UNL     1      -2.348  -2.570   4.166  0.00  0.00    +0.082 C 
ATOM      9  S   UNL     1      -2.807  -4.216   4.061  0.00  0.00    -0.035 S 
BRANCH   8  12
ATOM     10  C   UNL     1      -1.388  -1.968   7.741  0.00  0.00    +0.000 A 
ATOM     11  C   UNL     1      -1.515  -2.573   6.511  0.00  0.00    +0.018 A 
ATOM     12  C   UNL     1      -2.210  -1.926   5.484  0.00  0.00    +0.004 A 
ATOM     13  C   UNL     1      -2.768  -0.665   5.711  0.00  0.00    +0.018 A 
ATOM     14  C   UNL     1      -2.640  -0.069   6.946  0.00  0.00    +0.000 A 
ATOM     15  C   UNL     1      -1.948  -0.716   7.963  0.00  0.00    +0.124 A 
BRANCH  10  17
ATOM     16  C   UNL     1      -0.126  -4.015   8.346  0.00  0.00    +0.015 C 
ATOM     17  C   UNL     1      -0.639  -2.664   8.848  0.00  0.00    -0.009 C 
ATOM     18  C   UNL     1       0.546  -1.799   9.285  0.00  0.00    +0.015 C 
ATOM     19  C   UNL     1      -1.575  -2.884  10.038  0.00  0.00    +0.015 C 
ENDBRANCH  10  17
BRANCH  14  20
ATOM     20  C   UNL     1      -3.246   1.289   7.192  0.00  0.00    -0.009 C 
ATOM     21  C   UNL     1      -3.945   1.774   5.921  0.00  0.00    +0.015 C 
ATOM     22  C   UNL     1      -4.264   1.194   8.330  0.00  0.00    +0.015 C 
ATOM     23  C   UNL     1      -2.143   2.277   7.577  0.00  0.00    +0.015 C 
ENDBRANCH  14  20
BRANCH  15  24
ATOM     24  O   UNL     1      -1.820  -0.122   9.177  0.00  0.00    -0.506 OA
ATOM     25  H   UNL     1      -1.033   0.432   9.263  0.00  0.00    +0.292 HD
ENDBRANCH  15  24
ENDBRANCH   8  12
ENDBRANCH   1   8
BRANCH   6  26
ATOM     26  C   UNL     1       0.435  -0.344   0.074  0.00  0.00    -0.007 C 
BRANCH  26  27
ATOM     27  C   UNL     1       0.596   1.155   0.074  0.00  0.00    -0.057 A 
ATOM     28  C   UNL     1      -0.520   1.970   0.038  0.00  0.00    +0.002 A 
ATOM     29  C   UNL     1      -0.373   3.344   0.043  0.00  0.00    +0.000 A 
ATOM     30  C   UNL     1       0.891   3.904   0.074  0.00  0.00    +0.000 A 
ATOM     31  C   UNL     1       2.007   3.089   0.104  0.00  0.00    +0.000 A 
ATOM     32  C   UNL     1       1.860   1.714   0.104  0.00  0.00    +0.002 A 
ENDBRANCH  26  27
BRANCH  26  33
ATOM     33  C   UNL     1       0.172  -0.821  -1.331  0.00  0.00    -0.057 A 
ATOM     34  C   UNL     1      -1.099  -0.724  -1.867  0.00  0.00    +0.002 A 
ATOM     35  C   UNL     1      -1.340  -1.157  -3.157  0.00  0.00    +0.000 A 
ATOM     36  C   UNL     1      -0.312  -1.696  -3.909  0.00  0.00    +0.000 A 
ATOM     37  C   UNL     1       0.958  -1.798  -3.371  0.00  0.00    +0.000 A 
ATOM     38  C   UNL     1       1.199  -1.360  -2.082  0.00  0.00    +0.002 A 
ENDBRANCH  26  33
ENDBRANCH   6  26
TORSDOF 8
