REMARK  Name = ZINC34261840
REMARK  13 active torsions:
REMARK  status: ('A' for Active; 'I' for Inactive)
REMARK    1  A    between atoms: C_1  and  C_2
REMARK    2  A    between atoms: C_2  and  C_3
REMARK    3  A    between atoms: C_3  and  C_4
REMARK    4  A    between atoms: C_4  and  C_5
REMARK    5  A    between atoms: C_6  and  C_7
REMARK    6  A    between atoms: C_7  and  C_8
REMARK    7  A    between atoms: C_8  and  N_9
REMARK    8  A    between atoms: C_14  and  C_36
REMARK    9  A    between atoms: C_17  and  C_22
REMARK   10  A    between atoms: C_17  and  C_33
REMARK   11  A    between atoms: C_22  and  C_23
REMARK   12  A    between atoms: C_41  and  O_42
REMARK   13  A    between atoms: O_42  and  C_43
REMARK                            x       y       z     vdW  Elec       q    Type
REMARK                         _______ _______ _______ _____ _____    ______ ____
ROOT
ATOM      1  N   UNL     1       5.497  -3.794  -4.787  0.00  0.00    -0.241 N 
ATOM      2  C   UNL     1       5.985  -5.074  -4.865  0.00  0.00    +0.224 C 
ATOM      3  O   UNL     1       5.795  -5.987  -4.091  0.00  0.00    -0.275 OA
ATOM      4  C   UNL     1       6.773  -5.094  -6.073  0.00  0.00    +0.077 C 
ATOM      5  C   UNL     1       7.324  -6.043  -7.056  0.00  0.00    -0.023 C 
ATOM      6  N   UNL     1       7.814  -5.124  -8.140  0.00  0.00    +0.396 N 
ATOM      7  C   UNL     1       7.058  -3.841  -8.028  0.00  0.00    +0.052 C 
ATOM      8  C   UNL     1       5.945  -4.127  -7.008  0.00  0.00    +0.086 C 
ATOM      9  C   UNL     1       5.651  -3.098  -5.952  0.00  0.00    +0.225 C 
ATOM     10  O   UNL     1       5.570  -1.898  -6.104  0.00  0.00    -0.275 OA
ATOM     11  H   UNL     1       8.801  -4.950  -8.020  0.00  0.00    -0.083 HD
ATOM     12  H   UNL     1       7.647  -5.542  -9.043  0.00  0.00    -0.083 HD
ENDROOT
BRANCH   5  13
ATOM     13  C   UNL     1       8.462  -6.832  -6.463  0.00  0.00    -0.019 A 
ATOM     14  C   UNL     1       9.067  -6.404  -5.297  0.00  0.00    +0.005 A 
ATOM     15  C   UNL     1      10.112  -7.127  -4.753  0.00  0.00    +0.000 A 
ATOM     16  C   UNL     1      10.555  -8.281  -5.373  0.00  0.00    +0.004 A 
ATOM     17  C   UNL     1       9.953  -8.713  -6.539  0.00  0.00    +0.046 A 
ATOM     18  C   UNL     1       8.901  -7.992  -7.084  0.00  0.00    +0.122 A 
BRANCH  18  19
ATOM     19  O   UNL     1       8.304  -8.419  -8.228  0.00  0.00    -0.495 OA
ATOM     20  C   UNL     1       8.807  -9.622  -8.813  0.00  0.00    +0.277 C 
ENDBRANCH  18  19
ENDBRANCH   5  13
BRANCH   7  21
ATOM     21  C   UNL     1       6.449  -3.477  -9.358  0.00  0.00    +0.347 C 
ATOM     22  O   UNL     1       6.638  -4.188 -10.330  0.00  0.00    -0.248 OA
ATOM     23  O   UNL     1       5.768  -2.471  -9.462  0.00  0.00    -0.248 OA
ENDBRANCH   7  21
BRANCH   1  24
ATOM     24  C   UNL     1       4.872  -3.236  -3.585  0.00  0.00    +0.120 C 
BRANCH  24  25
ATOM     25  C   UNL     1       3.368  -3.511  -3.617  0.00  0.00    +0.046 C 
BRANCH  25  27
ATOM     26  C   UNL     1       1.727  -2.095  -2.492  0.00  0.00    -0.031 C 
ATOM     27  C   UNL     1       2.725  -2.937  -2.381  0.00  0.00    -0.029 C 
BRANCH  26  28
ATOM     28  C   UNL     1       1.085  -1.521  -1.256  0.00  0.00    +0.027 C 
BRANCH  28  29
ATOM     29  C   UNL     1       1.107   0.007  -1.332  0.00  0.00    +0.004 C 
BRANCH  29  31
ATOM     30  C   UNL     1       0.477   2.118  -0.153  0.00  0.00    +0.004 C 
ATOM     31  C   UNL     1       0.455   0.590  -0.077  0.00  0.00    -0.003 C 
ENDBRANCH  29  31
ENDBRANCH  28  29
ENDBRANCH  26  28
ENDBRANCH  25  27
ENDBRANCH  24  25
ENDBRANCH   1  24
BRANCH   7  32
ATOM     32  C   UNL     1       7.981  -2.722  -7.543  0.00  0.00    +0.037 C 
BRANCH  32  33
ATOM     33  C   UNL     1       9.092  -2.519  -8.541  0.00  0.00    -0.023 A 
ATOM     34  C   UNL     1      10.315  -3.070  -8.497  0.00  0.00    +0.087 A 
ATOM     35  N   UNL     1      11.053  -2.655  -9.573  0.00  0.00    -0.360 N 
ATOM     36  H   UNL     1      11.967  -2.921  -9.757  0.00  0.00    +0.165 HD
ATOM     37  C   UNL     1      10.303  -1.806 -10.355  0.00  0.00    +0.047 A 
ATOM     38  C   UNL     1       9.039  -1.688  -9.746  0.00  0.00    +0.003 A 
ATOM     39  C   UNL     1       8.058  -0.884 -10.329  0.00  0.00    +0.010 A 
ATOM     40  C   UNL     1       8.328  -0.218 -11.491  0.00  0.00    +0.001 A 
ATOM     41  C   UNL     1       9.571  -0.334 -12.097  0.00  0.00    +0.002 A 
ATOM     42  C   UNL     1      10.558  -1.114 -11.534  0.00  0.00    +0.026 A 
ENDBRANCH  32  33
ENDBRANCH   7  32
TORSDOF 11
