REMARK  Name = ZINC05077297
REMARK  7 active torsions:
REMARK  status: ('A' for Active; 'I' for Inactive)
REMARK    1  A    between atoms: C_1  and  C_2
REMARK    2  A    between atoms: C_7  and  N_12
REMARK    3  A    between atoms: C_9  and  C_11
REMARK    4  A    between atoms: C_13  and  C_15
REMARK    5  A    between atoms: C_15  and  N_16
REMARK    6  A    between atoms: C_19  and  C_23
REMARK    7  A    between atoms: C_19  and  C_24
REMARK                            x       y       z     vdW  Elec       q    Type
REMARK                         _______ _______ _______ _____ _____    ______ ____
ROOT
ATOM      1  N   UNL     1      -5.368   2.128  -2.646  0.00  0.00    -0.215 N 
ATOM      2  C   UNL     1      -6.027   3.183  -2.130  0.00  0.00    +0.251 C 
ATOM      3  O   UNL     1      -6.024   3.556  -0.976  0.00  0.00    -0.272 OA
ATOM      4  C   UNL     1      -6.774   3.809  -3.291  0.00  0.00    +0.135 C 
ATOM      5  N   UNL     1      -6.420   2.949  -4.433  0.00  0.00    -0.281 N 
ATOM      6  C   UNL     1      -5.597   1.997  -3.958  0.00  0.00    +0.310 C 
ATOM      7  O   UNL     1      -5.115   1.117  -4.643  0.00  0.00    -0.252 OA
ATOM      8  C   UNL     1      -8.282   3.775  -3.038  0.00  0.00    +0.047 C 
ATOM      9  H   UNL     1      -6.723   3.049  -5.350  0.00  0.00    +0.152 HD
ENDROOT
BRANCH   4  10
ATOM     10  C   UNL     1      -6.310   5.223  -3.529  0.00  0.00    -0.012 A 
ATOM     11  C   UNL     1      -5.930   6.014  -2.460  0.00  0.00    +0.010 A 
ATOM     12  C   UNL     1      -5.504   7.311  -2.674  0.00  0.00    +0.050 A 
ATOM     13  C   UNL     1      -5.457   7.823  -3.962  0.00  0.00    +0.162 A 
ATOM     14  C   UNL     1      -5.837   7.028  -5.037  0.00  0.00    +0.162 A 
ATOM     15  C   UNL     1      -6.259   5.725  -4.815  0.00  0.00    +0.055 A 
ATOM     16  O   UNL     1      -5.795   7.509  -6.309  0.00  0.00    -0.485 OA
ATOM     17  C   UNL     1      -5.720   8.932  -6.457  0.00  0.00    +0.270 C 
ATOM     18  C   UNL     1      -4.653   9.460  -5.488  0.00  0.00    +0.270 C 
ATOM     19  O   UNL     1      -5.040   9.104  -4.157  0.00  0.00    -0.485 OA
ENDBRANCH   4  10
BRANCH   1  20
ATOM     20  C   UNL     1      -4.510   1.231  -1.867  0.00  0.00    +0.213 C 
BRANCH  20  22
ATOM     21  N   UNL     1      -2.127   1.086  -1.221  0.00  0.00    -0.311 N 
ATOM     22  C   UNL     1      -3.097   1.753  -1.878  0.00  0.00    +0.231 C 
ATOM     23  O   UNL     1      -2.831   2.773  -2.477  0.00  0.00    -0.274 OA
ATOM     24  H   UNL     1      -2.339   0.270  -0.742  0.00  0.00    +0.149 HD
BRANCH  21  30
ATOM     25  C   UNL     1       1.402   3.145   0.006  0.00  0.00    +0.008 C 
ATOM     26  C   UNL     1       1.423   1.615  -0.003  0.00  0.00    -0.009 C 
ATOM     27  C   UNL     1       2.139   1.122  -1.262  0.00  0.00    +0.003 C 
ATOM     28  C   UNL     1       1.399   1.629  -2.501  0.00  0.00    +0.002 C 
ATOM     29  C   UNL     1      -0.037   1.099  -2.490  0.00  0.00    +0.022 C 
ATOM     30  C   UNL     1      -0.753   1.593  -1.232  0.00  0.00    +0.076 C 
ATOM     31  C   UNL     1      -0.013   1.086   0.008  0.00  0.00    +0.009 C 
ATOM     32  C   UNL     1      -0.729   1.579   1.267  0.00  0.00    +0.009 C 
ENDBRANCH  21  30
ENDBRANCH  20  22
ENDBRANCH   1  20
TORSDOF 4
