REMARK  Name = ZINC06624597
REMARK  12 active torsions:
REMARK  status: ('A' for Active; 'I' for Inactive)
REMARK    1  A    between atoms: C_1  and  C_2
REMARK    2  A    between atoms: C_6  and  O_31
REMARK    3  A    between atoms: C_7  and  C_30
REMARK    4  A    between atoms: C_12  and  C_13
REMARK    5  A    between atoms: C_13  and  C_14
REMARK    6  A    between atoms: C_14  and  C_15
REMARK    7  A    between atoms: N_17  and  C_18
REMARK    8  A    between atoms: N_17  and  C_19
REMARK    9  A    between atoms: C_19  and  C_20
REMARK   10  A    between atoms: C_20  and  C_22
REMARK   11  A    between atoms: C_20  and  O_29
REMARK   12  A    between atoms: C_25  and  O_28
REMARK                            x       y       z     vdW  Elec       q    Type
REMARK                         _______ _______ _______ _____ _____    ______ ____
ROOT
ATOM      1  C   UNL     1       1.104   4.103   1.456  0.00  0.00    +0.101 C 
ENDROOT
BRANCH   1   2
ATOM      2  C   UNL     1       1.041   5.608   1.465  0.00  0.00    +0.216 C 
ATOM      3  O   UNL     1       1.006   6.220   0.418  0.00  0.00    -0.276 OA
ATOM      4  N   UNL     1       1.024   6.275   2.636  0.00  0.00    -0.302 N 
ATOM      5  C   UNL     1       1.067   5.537   3.900  0.00  0.00    +0.132 C 
BRANCH   4   6
ATOM      6  C   UNL     1       0.964   7.739   2.644  0.00  0.00    +0.143 C 
BRANCH   6   7
ATOM      7  C   UNL     1      -0.499   8.189   2.660  0.00  0.00    +0.162 C 
BRANCH   7   8
ATOM      8  C   UNL     1      -0.561   9.694   2.669  0.00  0.00    -0.017 A 
ATOM      9  C   UNL     1      -0.491  10.395   1.479  0.00  0.00    +0.010 A 
ATOM     10  C   UNL     1      -0.554  11.775   1.484  0.00  0.00    +0.046 A 
ATOM     11  C   UNL     1      -0.675  12.458   2.685  0.00  0.00    +0.117 A 
ATOM     12  C   UNL     1      -0.740  11.753   3.878  0.00  0.00    +0.046 A 
ATOM     13  C   UNL     1      -0.683  10.373   3.867  0.00  0.00    +0.010 A 
BRANCH  11  14
ATOM     14  O   UNL     1      -0.731  13.816   2.692  0.00  0.00    -0.507 OA
ATOM     15  H   UNL     1       0.133  14.245   2.763  0.00  0.00    +0.292 HD
ENDBRANCH  11  14
ENDBRANCH   7   8
BRANCH   7  16
ATOM     16  O   UNL     1      -1.163   7.691   1.497  0.00  0.00    -0.386 OA
ATOM     17  H   UNL     1      -0.780   7.997   0.664  0.00  0.00    +0.210 HD
ENDBRANCH   7  16
ENDBRANCH   6   7
ENDBRANCH   4   6
ENDBRANCH   1   2
BRANCH   1  18
ATOM     18  C   UNL     1       1.111   3.601   0.011  0.00  0.00    +0.052 C 
BRANCH  18  30
ATOM     19  C   UNL     1       3.663   2.248  -0.020  0.00  0.00    +0.045 C 
ATOM     20  C   UNL     1       2.376   1.463  -0.012  0.00  0.00    -0.030 A 
ATOM     21  C   UNL     1       2.389  -0.001  -0.021  0.00  0.00    +0.021 A 
ATOM     22  C   UNL     1       3.594  -0.712  -0.036  0.00  0.00    +0.015 A 
ATOM     23  C   UNL     1       3.577  -2.076  -0.043  0.00  0.00    +0.046 A 
ATOM     24  C   UNL     1       2.367  -2.767  -0.036  0.00  0.00    +0.123 A 
ATOM     25  C   UNL     1       1.164  -2.080  -0.021  0.00  0.00    +0.034 A 
ATOM     26  C   UNL     1       1.163  -0.693  -0.013  0.00  0.00    +0.146 A 
ATOM     27  O   UNL     1       0.002  -0.004   0.002  0.00  0.00    -0.422 OA
ATOM     28  C   UNL     1      -0.016   1.338   0.009  0.00  0.00    +0.341 A 
ATOM     29  O   UNL     1      -1.088   1.917   0.018  0.00  0.00    -0.245 OA
ATOM     30  C   UNL     1       1.173   2.095   0.002  0.00  0.00    +0.041 A 
ATOM     31  C   UNL     1      -0.139  -2.837  -0.012  0.00  0.00    +0.051 C 
BRANCH  24  32
ATOM     32  O   UNL     1       2.367  -4.124  -0.044  0.00  0.00    -0.506 OA
ATOM     33  H   UNL     1       2.358  -4.513  -0.930  0.00  0.00    +0.292 HD
ENDBRANCH  24  32
ENDBRANCH  18  30
ENDBRANCH   1  18
TORSDOF 9
