REMARK  Name = ZINC41644341
REMARK  8 active torsions:
REMARK  status: ('A' for Active; 'I' for Inactive)
REMARK    1  A    between atoms: C_1  and  C_2
REMARK    2  A    between atoms: N_8  and  C_9
REMARK    3  A    between atoms: C_9  and  C_11
REMARK    4  A    between atoms: C_9  and  C_12
REMARK    5  A    between atoms: C_12  and  N_13
REMARK    6  A    between atoms: C_14  and  C_16
REMARK    7  A    between atoms: N_18  and  C_19
REMARK    8  A    between atoms: C_24  and  N_25
REMARK                            x       y       z     vdW  Elec       q    Type
REMARK                         _______ _______ _______ _____ _____    ______ ____
ROOT
ATOM      1  C   UNL     1       2.950  -4.546   3.265  0.00  0.00    +0.303 C 
ATOM      2  O   UNL     1       2.404  -4.970   2.267  0.00  0.00    -0.265 OA
ATOM      3  N   UNL     1       3.350  -5.399   4.229  0.00  0.00    -0.276 N 
ATOM      4  H   UNL     1       3.725  -5.056   5.055  0.00  0.00    +0.155 HD
ENDROOT
BRANCH   3   5
ATOM      5  C   UNL     1       3.224  -6.779   4.038  0.00  0.00    +0.055 A 
ATOM      6  C   UNL     1       2.248  -7.277   3.186  0.00  0.00    +0.025 A 
ATOM      7  C   UNL     1       2.125  -8.641   2.999  0.00  0.00    +0.002 A 
ATOM      8  C   UNL     1       2.973  -9.513   3.658  0.00  0.00    +0.002 A 
ATOM      9  C   UNL     1       3.948  -9.026   4.508  0.00  0.00    +0.025 A 
ATOM     10  C   UNL     1       4.083  -7.659   4.698  0.00  0.00    +0.051 A 
BRANCH  10  11
ATOM     11  N   UNL     1       5.072  -7.163   5.552  0.00  0.00    -0.328 N 
ATOM     12  C   UNL     1       4.796  -6.964   6.982  0.00  0.00    +0.105 C 
ATOM     13  C   UNL     1       5.863  -7.702   7.797  0.00  0.00    +0.019 C 
ATOM     14  C   UNL     1       7.251  -7.236   7.354  0.00  0.00    +0.003 C 
ATOM     15  C   UNL     1       7.456  -7.572   5.875  0.00  0.00    +0.019 C 
ATOM     16  C   UNL     1       6.410  -6.838   5.039  0.00  0.00    +0.105 C 
ENDBRANCH  10  11
ENDBRANCH   3   5
BRANCH   1  18
ATOM     17  N   UNL     1       2.781  -2.226   2.460  0.00  0.00    -0.309 N 
ATOM     18  C   UNL     1       3.180  -3.079   3.424  0.00  0.00    +0.299 C 
ATOM     19  O   UNL     1       3.727  -2.655   4.421  0.00  0.00    -0.265 OA
ATOM     20  H   UNL     1       2.344  -2.565   1.663  0.00  0.00    +0.149 HD
BRANCH  17  21
ATOM     21  C   UNL     1       3.007  -0.787   2.616  0.00  0.00    +0.089 C 
BRANCH  21  22
ATOM     22  C   UNL     1       2.325  -0.036   1.470  0.00  0.00    -0.054 C 
ATOM     23  C   UNL     1       2.723   1.440   1.519  0.00  0.00    -0.012 C 
BRANCH  22  30
ATOM     24  C   UNL     1       0.957  -2.000   0.001  0.00  0.00    -0.013 C 
ATOM     25  C   UNL     1       0.467  -1.549   1.378  0.00  0.00    -0.071 C 
ATOM     26  C   UNL     1      -1.058  -1.662   1.439  0.00  0.00    -0.016 C 
ATOM     27  C   UNL     1      -1.543  -1.210   2.819  0.00  0.00    -0.003 C 
ATOM     28  C   UNL     1      -1.057   0.219   3.078  0.00  0.00    -0.019 C 
ATOM     29  C   UNL     1       0.468   0.262   2.957  0.00  0.00    -0.078 C 
ATOM     30  N   UNL     1       0.867  -0.155   1.607  0.00  0.00    +0.384 N 
ATOM     31  H   UNL     1       0.418   0.439   0.926  0.00  0.00    -0.081 HD
ENDBRANCH  22  30
ENDBRANCH  21  22
ENDBRANCH  17  21
ENDBRANCH   1  18
TORSDOF 6
