REMARK  Name = ZINC58171107
REMARK  3 active torsions:
REMARK  status: ('A' for Active; 'I' for Inactive)
REMARK    1  A    between atoms: C_1  and  C_2
REMARK    2  A    between atoms: C_10  and  C_11
REMARK    3  A    between atoms: C_23  and  C_25
REMARK                            x       y       z     vdW  Elec       q    Type
REMARK                         _______ _______ _______ _____ _____    ______ ____
ROOT
ATOM      1  C   UNL     1       0.029  -0.161   2.546  0.00  0.00    +0.254 C 
ATOM      2  O   UNL     1       0.128   1.037   2.735  0.00  0.00    -0.269 OA
ATOM      3  N   UNL     1      -0.051  -1.004   3.595  0.00  0.00    -0.282 N 
ATOM      4  C   UNL     1      -0.164  -0.632   4.996  0.00  0.00    +0.080 C 
ATOM      5  C   UNL     1       0.490   0.660   5.437  0.00  0.00    +0.023 C 
ATOM      6  C   UNL     1       0.193   0.837   6.935  0.00  0.00    +0.002 C 
ATOM      7  C   UNL     1       0.691  -0.356   7.745  0.00  0.00    +0.000 C 
ATOM      8  C   UNL     1       0.118  -1.679   7.211  0.00  0.00    +0.005 C 
ATOM      9  C   UNL     1       0.549  -1.785   5.753  0.00  0.00    +0.012 C 
ATOM     10  C   UNL     1      -0.022  -2.998   5.003  0.00  0.00    +0.037 C 
ATOM     11  C   UNL     1      -0.046  -2.485   3.536  0.00  0.00    +0.163 C 
ENDROOT
BRANCH   1  21
ATOM     12  C   UNL     1       0.492   1.454   0.021  0.00  0.00    +0.046 C 
ATOM     13  C   UNL     1       0.194  -0.023   0.006  0.00  0.00    -0.024 A 
ATOM     14  C   UNL     1       0.126  -0.715  -1.216  0.00  0.00    -0.007 A 
ATOM     15  C   UNL     1       0.306  -0.203  -2.527  0.00  0.00    +0.009 A 
ATOM     16  C   UNL     1       0.205  -1.015  -3.610  0.00  0.00    +0.001 A 
ATOM     17  C   UNL     1      -0.077  -2.370  -3.482  0.00  0.00    +0.001 A 
ATOM     18  C   UNL     1      -0.259  -2.910  -2.225  0.00  0.00    +0.015 A 
ATOM     19  C   UNL     1      -0.159  -2.097  -1.115  0.00  0.00    +0.020 A 
ATOM     20  S   UNL     1      -0.315  -2.360   0.633  0.00  0.00    -0.083 S 
ATOM     21  C   UNL     1      -0.003  -0.689   1.175  0.00  0.00    +0.078 A 
ENDBRANCH   1  21
BRANCH  11  22
ATOM     22  C   UNL     1       1.182  -2.966   2.807  0.00  0.00    +0.231 C 
ATOM     23  O   UNL     1       2.134  -2.227   2.670  0.00  0.00    -0.274 OA
ATOM     24  N   UNL     1       1.222  -4.217   2.307  0.00  0.00    -0.328 N 
ATOM     25  H   UNL     1       0.461  -4.808   2.416  0.00  0.00    +0.145 HD
ATOM     26  H   UNL     1       2.013  -4.527   1.837  0.00  0.00    +0.145 HD
ENDBRANCH  11  22
TORSDOF 2
