REMARK  Name = ZINC39560751
REMARK  9 active torsions:
REMARK  status: ('A' for Active; 'I' for Inactive)
REMARK    1  A    between atoms: C_1  and  C_2
REMARK    2  A    between atoms: N_4  and  C_5
REMARK    3  A    between atoms: C_5  and  C_6
REMARK    4  A    between atoms: C_6  and  N_7
REMARK    5  A    between atoms: N_7  and  C_8
REMARK    6  A    between atoms: C_11  and  C_33
REMARK    7  A    between atoms: C_27  and  C_29
REMARK    8  A    between atoms: C_29  and  O_31
REMARK    9  A    between atoms: O_31  and  C_32
REMARK                            x       y       z     vdW  Elec       q    Type
REMARK                         _______ _______ _______ _____ _____    ______ ____
ROOT
ATOM      1  C   UNL     1       0.581  -5.651  -3.986  0.00  0.00    -0.068 C 
ATOM      2  C   UNL     1      -0.574  -4.911  -4.666  0.00  0.00    +0.008 C 
ATOM      3  C   UNL     1      -1.886  -5.248  -3.953  0.00  0.00    +0.087 C 
ATOM      4  N   UNL     1      -2.108  -6.698  -4.003  0.00  0.00    -0.274 NA
ATOM      5  C   UNL     1      -1.038  -7.418  -3.296  0.00  0.00    +0.106 C 
ATOM      6  C   UNL     1       0.296  -7.156  -3.998  0.00  0.00    +0.009 C 
ATOM      7  C   UNL     1      -1.355  -8.893  -3.334  0.00  0.00    +0.063 C 
ATOM      8  N   UNL     1      -0.558  -9.903  -3.099  0.00  0.00    -0.250 NA
ATOM      9  C   UNL     1      -1.240 -11.049  -3.241  0.00  0.00    +0.068 C 
ATOM     10  C   UNL     1      -0.830 -12.373  -3.095  0.00  0.00    +0.028 C 
ATOM     11  C   UNL     1      -1.792 -13.381  -3.314  0.00  0.00    -0.002 C 
ATOM     12  C   UNL     1      -3.054 -13.133  -3.650  0.00  0.00    -0.022 C 
ATOM     13  C   UNL     1      -3.638 -11.763  -3.844  0.00  0.00    +0.064 C 
ATOM     14  C   UNL     1      -2.583 -10.721  -3.599  0.00  0.00    -0.013 C 
ATOM     15  C   UNL     1      -2.642  -9.382  -3.652  0.00  0.00    -0.017 C 
ATOM     16  C   UNL     1      -3.804  -8.476  -3.974  0.00  0.00    +0.067 C 
ATOM     17  C   UNL     1      -3.439  -7.059  -3.506  0.00  0.00    +0.172 C 
ENDROOT
BRANCH   3  18
ATOM     18  C   UNL     1      -3.026  -4.540  -4.637  0.00  0.00    -0.030 A 
ATOM     19  C   UNL     1      -3.569  -5.063  -5.796  0.00  0.00    +0.005 A 
ATOM     20  C   UNL     1      -4.615  -4.413  -6.424  0.00  0.00    +0.000 A 
ATOM     21  C   UNL     1      -5.119  -3.241  -5.893  0.00  0.00    +0.000 A 
ATOM     22  C   UNL     1      -4.577  -2.718  -4.734  0.00  0.00    +0.000 A 
ATOM     23  C   UNL     1      -3.534  -3.370  -4.103  0.00  0.00    +0.005 A 
ENDBRANCH   3  18
BRANCH   1  24
ATOM     24  N   UNL     1       0.710  -5.189  -2.597  0.00  0.00    +0.382 N 
ATOM     25  H   UNL     1       1.415  -5.734  -2.125  0.00  0.00    -0.085 HD
ATOM     26  H   UNL     1      -0.174  -5.298  -2.123  0.00  0.00    -0.085 HD
BRANCH  24  27
ATOM     27  C   UNL     1       1.099  -3.772  -2.587  0.00  0.00    -0.063 C 
BRANCH  27  28
ATOM     28  C   UNL     1       1.233  -3.290  -1.142  0.00  0.00    +0.085 C 
BRANCH  28  32
ATOM     29  C   UNL     1       2.199   0.217   0.050  0.00  0.00    +0.109 C 
ATOM     30  C   UNL     1       1.799  -1.236   0.040  0.00  0.00    +0.210 C 
ATOM     31  O   UNL     1       1.638  -1.828   1.086  0.00  0.00    -0.276 OA
ATOM     32  N   UNL     1       1.621  -1.878  -1.132  0.00  0.00    -0.317 N 
ATOM     33  H   UNL     1       1.750  -1.404  -1.968  0.00  0.00    +0.149 HD
ENDBRANCH  28  32
ENDBRANCH  27  28
ENDBRANCH  24  27
ENDBRANCH   1  24
BRANCH  17  34
ATOM     34  C   UNL     1      -3.440  -7.014  -1.999  0.00  0.00    +0.325 C 
ATOM     35  O   UNL     1      -2.563  -7.567  -1.378  0.00  0.00    -0.249 OA
BRANCH  34  36
ATOM     36  O   UNL     1      -4.415  -6.361  -1.348  0.00  0.00    -0.467 OA
ATOM     37  C   UNL     1      -4.353  -6.359   0.080  0.00  0.00    +0.280 C 
ENDBRANCH  34  36
ENDBRANCH  17  34
TORSDOF 7
