REMARK  Name = ZINC32511874
REMARK  7 active torsions:
REMARK  status: ('A' for Active; 'I' for Inactive)
REMARK    1  A    between atoms: C_1  and  C_2
REMARK    2  A    between atoms: C_5  and  O_9
REMARK    3  A    between atoms: O_9  and  C_10
REMARK    4  A    between atoms: C_10  and  C_12
REMARK    5  A    between atoms: C_10  and  C_13
REMARK    6  A    between atoms: N_15  and  N_16
REMARK    7  A    between atoms: C_17  and  C_18
REMARK                            x       y       z     vdW  Elec       q    Type
REMARK                         _______ _______ _______ _____ _____    ______ ____
ROOT
ATOM      1  C   UNL     1       2.356  -4.817  -0.670  0.00  0.00    +0.273 C 
ATOM      2  O   UNL     1       1.353  -4.926   0.004  0.00  0.00    -0.270 OA
ATOM      3  N   UNL     1       3.484  -5.460  -0.309  0.00  0.00    -0.204 N 
ATOM      4  H   UNL     1       4.393  -5.362  -0.920  0.00  0.00    +0.177 HD
ENDROOT
BRANCH   1   5
ATOM      5  C   UNL     1       2.339  -3.965  -1.913  0.00  0.00    +0.257 C 
ATOM      6  C   UNL     1       2.555  -4.850  -3.142  0.00  0.00    +0.062 C 
BRANCH   5   7
ATOM      7  O   UNL     1       1.078  -3.302  -2.019  0.00  0.00    -0.479 OA
BRANCH   7  12
ATOM      8  C   UNL     1       0.907   1.386  -5.138  0.00  0.00    +0.044 C 
ATOM      9  C   UNL     1       0.953   0.132  -4.303  0.00  0.00    -0.049 A 
ATOM     10  C   UNL     1       2.147  -0.546  -4.141  0.00  0.00    +0.007 A 
ATOM     11  C   UNL     1       2.191  -1.696  -3.376  0.00  0.00    +0.047 A 
ATOM     12  C   UNL     1       1.036  -2.171  -2.772  0.00  0.00    +0.136 A 
ATOM     13  C   UNL     1      -0.161  -1.489  -2.936  0.00  0.00    +0.060 A 
ATOM     14  C   UNL     1      -0.200  -0.339  -3.702  0.00  0.00    +0.022 A 
ATOM     15 BR   UNL     1      -1.738  -2.132  -2.114  0.00  0.00    -0.047 Br
ENDBRANCH   7  12
ENDBRANCH   5   7
ENDBRANCH   1   5
BRANCH   3  16
ATOM     16  N   UNL     1       3.499  -6.253   0.846  0.00  0.00    -0.188 NA
ATOM     17  C   UNL     1       4.618  -6.752   1.276  0.00  0.00    +0.138 C 
BRANCH  17  18
ATOM     18  C   UNL     1       5.901  -6.220   0.781  0.00  0.00    -0.002 A 
ATOM     19  C   UNL     1       7.062  -6.991   0.877  0.00  0.00    +0.013 A 
ATOM     20  C   UNL     1       8.260  -6.494   0.409  0.00  0.00    +0.050 A 
ATOM     21  C   UNL     1       8.319  -5.224  -0.148  0.00  0.00    +0.166 A 
ATOM     22  C   UNL     1       7.165  -4.447  -0.242  0.00  0.00    +0.167 A 
ATOM     23  C   UNL     1       5.960  -4.942   0.221  0.00  0.00    +0.059 A 
ATOM     24  O   UNL     1       7.488  -3.254  -0.821  0.00  0.00    -0.453 OA
ATOM     25  C   UNL     1       8.765  -3.467  -1.452  0.00  0.00    +0.466 C 
ATOM     26  O   UNL     1       9.364  -4.516  -0.669  0.00  0.00    -0.453 OA
ENDBRANCH  17  18
ENDBRANCH   3  16
TORSDOF 5
