REMARK  Name = ZINC12279648
REMARK  8 active torsions:
REMARK  status: ('A' for Active; 'I' for Inactive)
REMARK    1  A    between atoms: C_1  and  N_2
REMARK    2  A    between atoms: C_4  and  C_7
REMARK    3  A    between atoms: C_7  and  N_8
REMARK    4  A    between atoms: C_19  and  N_57
REMARK    5  A    between atoms: C_23  and  C_24
REMARK    6  A    between atoms: C_23  and  N_57
REMARK    7  A    between atoms: C_24  and  C_25
REMARK    8  A    between atoms: C_25  and  C_26
REMARK                            x       y       z     vdW  Elec       q    Type
REMARK                         _______ _______ _______ _____ _____    ______ ____
ROOT
ATOM      1  N   UNL     1      12.513  -5.959  -4.820  0.00  0.00    -0.294 N 
ATOM      2  C   UNL     1      12.250  -7.211  -4.375  0.00  0.00    +0.203 A 
ATOM      3  N   UNL     1      11.117  -7.542  -3.796  0.00  0.00    -0.230 NA
ATOM      4  C   UNL     1      10.203  -6.587  -3.650  0.00  0.00    +0.116 A 
ATOM      5  C   UNL     1      10.383  -5.254  -4.080  0.00  0.00    +0.076 A 
ATOM      6  C   UNL     1      11.634  -4.935  -4.708  0.00  0.00    +0.263 A 
ATOM      7  O   UNL     1      11.889  -3.814  -5.115  0.00  0.00    -0.267 OA
ATOM      8  C   UNL     1       9.275  -4.347  -3.838  0.00  0.00    -0.023 A 
ATOM      9  C   UNL     1       8.186  -4.870  -3.226  0.00  0.00    -0.006 A 
ATOM     10  S   UNL     1       8.584  -6.578  -2.949  0.00  0.00    -0.073 S 
ATOM     11  C   UNL     1       6.920  -4.157  -2.862  0.00  0.00    +0.027 C 
ATOM     12  C   UNL     1       7.172  -2.645  -2.949  0.00  0.00    -0.067 C 
ATOM     13  C   UNL     1       7.874  -2.341  -4.275  0.00  0.00    -0.011 C 
ATOM     14  C   UNL     1       9.306  -2.875  -4.239  0.00  0.00    +0.035 C 
ENDROOT
BRANCH  12  15
ATOM     15  N   UNL     1       5.885  -1.926  -2.902  0.00  0.00    +0.381 N 
ATOM     16  H   UNL     1       5.167  -2.485  -3.377  0.00  0.00    -0.086 HD
ATOM     17  H   UNL     1       5.985  -1.021  -3.378  0.00  0.00    -0.086 HD
BRANCH  15  18
ATOM     18  C   UNL     1       5.477  -1.696  -1.503  0.00  0.00    -0.082 C 
BRANCH  18  19
ATOM     19  C   UNL     1       4.142  -0.949  -1.486  0.00  0.00    -0.014 C 
BRANCH  19  20
ATOM     20  C   UNL     1       3.711  -0.707  -0.038  0.00  0.00    +0.033 C 
BRANCH  20  21
ATOM     21  C   UNL     1       2.396   0.029  -0.022  0.00  0.00    -0.047 A 
ATOM     22  C   UNL     1       1.208  -0.679  -0.013  0.00  0.00    +0.003 A 
ATOM     23  C   UNL     1       0.002  -0.004   0.002  0.00  0.00    +0.000 A 
ATOM     24  C   UNL     1      -0.017   1.378   0.010  0.00  0.00    +0.000 A 
ATOM     25  C   UNL     1       1.171   2.086   0.002  0.00  0.00    +0.000 A 
ATOM     26  C   UNL     1       2.377   1.411  -0.015  0.00  0.00    +0.003 A 
ENDBRANCH  20  21
ENDBRANCH  19  20
ENDBRANCH  18  19
ENDBRANCH  15  18
ENDBRANCH  12  15
BRANCH   1  27
ATOM     27  C   UNL     1      13.810  -5.700  -5.451  0.00  0.00    +0.164 C 
BRANCH  27  31
ATOM     28  C   UNL     1      13.871  -7.936  -9.937  0.00  0.00    +0.172 C 
ATOM     29  N   UNL     1      13.733  -6.925  -8.885  0.00  0.00    -0.274 N 
ATOM     30  C   UNL     1      13.937  -7.120  -7.566  0.00  0.00    +0.113 A 
ATOM     31  C   UNL     1      13.704  -5.946  -6.934  0.00  0.00    +0.010 A 
ATOM     32  C   UNL     1      13.354  -4.999  -7.902  0.00  0.00    +0.139 A 
ATOM     33  N   UNL     1      13.371  -5.585  -9.072  0.00  0.00    -0.180 NA
ENDBRANCH  27  31
ENDBRANCH   1  27
TORSDOF 7
