REMARK  Name = ZINC18096620
REMARK  9 active torsions:
REMARK  status: ('A' for Active; 'I' for Inactive)
REMARK    1  A    between atoms: C_1  and  O_2
REMARK    2  A    between atoms: O_2  and  C_3
REMARK    3  A    between atoms: C_5  and  C_18
REMARK    4  A    between atoms: C_8  and  O_9
REMARK    5  A    between atoms: O_9  and  C_10
REMARK    6  A    between atoms: C_10  and  C_11
REMARK    7  A    between atoms: C_18  and  N_19
REMARK    8  A    between atoms: N_19  and  C_20
REMARK    9  A    between atoms: C_29  and  O_32
REMARK                            x       y       z     vdW  Elec       q    Type
REMARK                         _______ _______ _______ _____ _____    ______ ____
ROOT
ATOM      1  C   UNL     1       0.626  -0.619   1.042  0.00  0.00    +0.162 A 
ATOM      2  C   UNL     1       1.202   0.137   2.051  0.00  0.00    +0.051 A 
ATOM      3  C   UNL     1       1.836  -0.490   3.108  0.00  0.00    -0.061 A 
ATOM      4  C   UNL     1       1.897  -1.870   3.161  0.00  0.00    +0.005 A 
ATOM      5  C   UNL     1       1.325  -2.630   2.158  0.00  0.00    +0.049 A 
ATOM      6  C   UNL     1       0.683  -2.008   1.099  0.00  0.00    +0.162 A 
ENDROOT
BRANCH   1   8
ATOM      7  C   UNL     1      -0.017   1.425   0.010  0.00  0.00    +0.277 C 
ATOM      8  O   UNL     1       0.002  -0.004   0.002  0.00  0.00    -0.491 OA
ENDBRANCH   1   8
BRANCH   6   9
ATOM      9  O   UNL     1       0.115  -2.754   0.114  0.00  0.00    -0.484 OA
BRANCH   9  10
ATOM     10  C   UNL     1       0.211  -4.174   0.238  0.00  0.00    +0.264 C 
BRANCH  10  11
ATOM     11  C   UNL     1      -0.470  -4.829  -0.936  0.00  0.00    -0.010 A 
ATOM     12  C   UNL     1      -1.815  -5.141  -0.868  0.00  0.00    +0.008 A 
ATOM     13  C   UNL     1      -2.441  -5.741  -1.944  0.00  0.00    +0.020 A 
ATOM     14  C   UNL     1      -1.721  -6.029  -3.090  0.00  0.00    +0.041 A 
ATOM     15  C   UNL     1      -0.375  -5.717  -3.158  0.00  0.00    +0.020 A 
ATOM     16  C   UNL     1       0.248  -5.111  -2.083  0.00  0.00    +0.008 A 
ATOM     17 CL   UNL     1      -2.506  -6.784  -4.442  0.00  0.00    -0.084 Cl
ENDBRANCH  10  11
ENDBRANCH   9  10
ENDBRANCH   6   9
BRANCH   3  18
ATOM     18  C   UNL     1       2.462   0.334   4.204  0.00  0.00    -0.046 C 
BRANCH  18  19
ATOM     19  N   UNL     1       1.471   0.576   5.261  0.00  0.00    +0.386 N 
ATOM     20  H   UNL     1       0.682   1.073   4.875  0.00  0.00    -0.085 HD
ATOM     21  H   UNL     1       1.160  -0.307   5.639  0.00  0.00    -0.085 HD
BRANCH  19  22
ATOM     22  C   UNL     1       2.080   1.378   6.330  0.00  0.00    -0.065 C 
ATOM     23  C   UNL     1       3.276   0.624   6.915  0.00  0.00    -0.009 C 
ATOM     24  C   UNL     1       3.912   1.460   8.028  0.00  0.00    -0.009 C 
ATOM     25  C   UNL     1       4.383   2.798   7.455  0.00  0.00    +0.007 C 
ATOM     26  C   UNL     1       3.187   3.552   6.870  0.00  0.00    -0.009 C 
ATOM     27  C   UNL     1       2.552   2.716   5.757  0.00  0.00    -0.009 C 
ATOM     28  C   UNL     1       2.155   3.804   7.971  0.00  0.00    +0.038 C 
ATOM     29  C   UNL     1       1.684   2.466   8.544  0.00  0.00    +0.065 C 
ATOM     30  C   UNL     1       2.880   1.712   9.129  0.00  0.00    +0.038 C 
ATOM     31  C   UNL     1       1.048   1.630   7.431  0.00  0.00    +0.022 C 
BRANCH  29  32
ATOM     32  O   UNL     1       0.720   2.701   9.572  0.00  0.00    -0.389 OA
ATOM     33  H   UNL     1       1.054   3.227  10.312  0.00  0.00    +0.210 HD
ENDBRANCH  29  32
ENDBRANCH  19  22
ENDBRANCH  18  19
ENDBRANCH   3  18
TORSDOF 8
