REMARK  Name = ZINC38684663
REMARK  13 active torsions:
REMARK  status: ('A' for Active; 'I' for Inactive)
REMARK    1  A    between atoms: C_1  and  C_2
REMARK    2  A    between atoms: C_2  and  C_3
REMARK    3  A    between atoms: C_2  and  C_4
REMARK    4  A    between atoms: C_4  and  C_5
REMARK    5  A    between atoms: C_5  and  O_6
REMARK    6  A    between atoms: O_6  and  C_7
REMARK    7  A    between atoms: C_11  and  C_13
REMARK    8  A    between atoms: C_18  and  O_27
REMARK    9  A    between atoms: C_22  and  N_26
REMARK   10  A    between atoms: C_23  and  C_24
REMARK   11  A    between atoms: O_27  and  C_28
REMARK   12  A    between atoms: C_28  and  C_30
REMARK   13  A    between atoms: C_35  and  N_36
REMARK                            x       y       z     vdW  Elec       q    Type
REMARK                         _______ _______ _______ _____ _____    ______ ____
ROOT
ATOM      1  C   UNL     1      -8.019  -1.026  -3.505  0.00  0.00    +0.098 C 
ATOM      2  C   UNL     1      -8.148  -1.934  -4.700  0.00  0.00    +0.008 A 
ATOM      3  C   UNL     1      -7.608  -3.207  -4.649  0.00  0.00    +0.012 A 
ATOM      4  C   UNL     1      -7.716  -4.053  -5.734  0.00  0.00    +0.047 A 
ATOM      5  C   UNL     1      -8.370  -3.627  -6.883  0.00  0.00    +0.135 A 
ATOM      6  C   UNL     1      -8.912  -2.353  -6.937  0.00  0.00    +0.093 A 
ATOM      7  C   UNL     1      -8.801  -1.503  -5.844  0.00  0.00    +0.138 A 
ATOM      8  O   UNL     1      -9.337  -0.260  -5.913  0.00  0.00    -0.441 OA
ATOM      9  C   UNL     1      -9.589   0.425  -4.785  0.00  0.00    +0.199 C 
ATOM     10  C   UNL     1      -8.996   0.111  -3.612  0.00  0.00    +0.098 C 
ENDROOT
BRANCH   1  15
ATOM     11  C   UNL     1      -4.532  -0.223  -2.290  0.00  0.00    +0.121 A 
ATOM     12  C   UNL     1      -4.044   0.538  -3.342  0.00  0.00    +0.045 A 
ATOM     13  C   UNL     1      -4.843   0.790  -4.440  0.00  0.00    +0.004 A 
ATOM     14  C   UNL     1      -6.128   0.283  -4.492  0.00  0.00    +0.005 A 
ATOM     15  C   UNL     1      -6.618  -0.476  -3.445  0.00  0.00    -0.031 A 
ATOM     16  C   UNL     1      -5.821  -0.735  -2.347  0.00  0.00    +0.050 A 
BRANCH  11  17
ATOM     17  O   UNL     1      -3.748  -0.473  -1.208  0.00  0.00    -0.492 OA
BRANCH  17  18
ATOM     18  C   UNL     1      -2.433   0.086  -1.218  0.00  0.00    +0.229 C 
BRANCH  18  19
ATOM     19  C   UNL     1      -1.706  -0.299   0.072  0.00  0.00    +0.044 C 
BRANCH  19  21
ATOM     20  C   UNL     1      -0.392   1.826   0.090  0.00  0.00    +0.007 C 
ATOM     21  C   UNL     1      -0.298   0.299   0.062  0.00  0.00    -0.014 C 
ATOM     22  C   UNL     1       0.472  -0.188   1.291  0.00  0.00    +0.007 C 
ENDBRANCH  19  21
ENDBRANCH  18  19
ENDBRANCH  17  18
ENDBRANCH  11  17
ENDBRANCH   1  15
BRANCH   9  23
ATOM     23  N   UNL     1     -10.473   1.474  -4.826  0.00  0.00    -0.328 N 
ATOM     24  H   UNL     1     -10.906   1.711  -5.662  0.00  0.00    +0.145 HD
ATOM     25  H   UNL     1     -10.666   1.978  -4.020  0.00  0.00    +0.145 HD
ENDBRANCH   9  23
BRANCH  10  26
ATOM     26  C   UNL     1      -9.308   0.880  -2.446  0.00  0.00    +0.101 C 
ATOM     27  N   UNL     1      -9.555   1.491  -1.520  0.00  0.00    -0.191 NA
ENDBRANCH  10  26
BRANCH   5  28
ATOM     28  O   UNL     1      -8.477  -4.458  -7.952  0.00  0.00    -0.422 OA
BRANCH  28  29
ATOM     29  C   UNL     1      -9.229  -5.568  -7.818  0.00  0.00    +0.347 C 
ATOM     30  O   UNL     1      -9.861  -5.753  -6.797  0.00  0.00    -0.244 OA
BRANCH  29  31
ATOM     31  C   UNL     1      -9.285  -6.560  -8.912  0.00  0.00    +0.089 A 
ATOM     32  C   UNL     1      -9.655  -6.164 -10.199  0.00  0.00    +0.017 A 
ATOM     33  C   UNL     1      -9.705  -7.095 -11.215  0.00  0.00    +0.001 A 
ATOM     34  C   UNL     1      -9.389  -8.419 -10.962  0.00  0.00    +0.002 A 
ATOM     35  C   UNL     1      -9.021  -8.817  -9.689  0.00  0.00    +0.033 A 
ATOM     36  C   UNL     1      -8.962  -7.895  -8.664  0.00  0.00    +0.140 A 
BRANCH  36  37
ATOM     37  N   UNL     1      -8.562  -8.322  -7.304  0.00  0.00    +0.057 N 
ATOM     38  O   UNL     1      -8.406  -9.496  -7.061  0.00  0.00    -0.126 OA
ATOM     39  O   UNL     1      -8.392  -7.497  -6.437  0.00  0.00    -0.126 OA
ENDBRANCH  36  37
ENDBRANCH  29  31
ENDBRANCH  28  29
ENDBRANCH   5  28
TORSDOF 11
