REMARK  Name = ZINC35746962
REMARK  13 active torsions:
REMARK  status: ('A' for Active; 'I' for Inactive)
REMARK    1  A    between atoms: C_1  and  C_2
REMARK    2  A    between atoms: C_5  and  C_40
REMARK    3  A    between atoms: C_6  and  C_8
REMARK    4  A    between atoms: C_17  and  C_19
REMARK    5  A    between atoms: C_19  and  N_20
REMARK    6  A    between atoms: N_20  and  C_21
REMARK    7  A    between atoms: N_20  and  C_28
REMARK    8  A    between atoms: C_21  and  C_22
REMARK    9  A    between atoms: C_28  and  C_29
REMARK   10  A    between atoms: C_29  and  C_31
REMARK   11  A    between atoms: C_29  and  O_39
REMARK   12  A    between atoms: C_31  and  O_32
REMARK   13  A    between atoms: O_32  and  C_33
REMARK                            x       y       z     vdW  Elec       q    Type
REMARK                         _______ _______ _______ _____ _____    ______ ____
ROOT
ATOM      1  N   UNL     1       3.870  -6.526   6.019  0.00  0.00    +0.389 N 
ATOM      2  H   UNL     1       3.581  -5.988   6.823  0.00  0.00    -0.081 HD
ENDROOT
BRANCH   1   3
ATOM      3  C   UNL     1       4.478  -5.632   5.025  0.00  0.00    -0.003 C 
BRANCH   3  13
ATOM      4  C   UNL     1       0.691  -1.524   3.898  0.00  0.00    +0.004 A 
ATOM      5  C   UNL     1      -0.457  -1.670   4.603  0.00  0.00    +0.056 A 
ATOM      6  S   UNL     1      -0.166  -3.140   5.567  0.00  0.00    -0.076 S 
ATOM      7  C   UNL     1       1.474  -3.522   5.007  0.00  0.00    +0.116 A 
ATOM      8  C   UNL     1       1.756  -2.503   4.082  0.00  0.00    +0.080 A 
ATOM      9  C   UNL     1       3.043  -2.570   3.459  0.00  0.00    +0.260 A 
ATOM     10  O   UNL     1       3.381  -1.728   2.645  0.00  0.00    -0.267 OA
ATOM     11  N   UNL     1       3.874  -3.577   3.786  0.00  0.00    -0.312 N 
ATOM     12  H   UNL     1       4.747  -3.627   3.367  0.00  0.00    +0.170 HD
ATOM     13  C   UNL     1       3.514  -4.524   4.690  0.00  0.00    +0.094 A 
ATOM     14  N   UNL     1       2.351  -4.484   5.282  0.00  0.00    -0.229 NA
BRANCH   4  20
ATOM     15  C   UNL     1       1.085   3.381   3.058  0.00  0.00    +0.044 C 
ATOM     16  C   UNL     1       1.050   1.964   2.546  0.00  0.00    -0.050 A 
ATOM     17  C   UNL     1       1.173   1.717   1.190  0.00  0.00    +0.003 A 
ATOM     18  C   UNL     1       1.141   0.420   0.713  0.00  0.00    +0.004 A 
ATOM     19  C   UNL     1       0.985  -0.637   1.587  0.00  0.00    -0.043 A 
ATOM     20  C   UNL     1       0.860  -0.394   2.954  0.00  0.00    -0.013 A 
ATOM     21  C   UNL     1       0.899   0.916   3.430  0.00  0.00    +0.012 A 
ATOM     22  C   UNL     1       0.948  -2.050   1.065  0.00  0.00    +0.044 C 
ENDBRANCH   4  20
ENDBRANCH   3  13
ENDBRANCH   1   3
BRANCH   1  23
ATOM     23  C   UNL     1       2.702  -7.192   5.430  0.00  0.00    -0.042 C 
BRANCH  23  24
ATOM     24  C   UNL     1       3.109  -7.886   4.155  0.00  0.00    -0.064 A 
ATOM     25  C   UNL     1       3.027  -7.218   2.948  0.00  0.00    +0.002 A 
ATOM     26  C   UNL     1       3.401  -7.855   1.779  0.00  0.00    +0.000 A 
ATOM     27  C   UNL     1       3.856  -9.160   1.818  0.00  0.00    +0.000 A 
ATOM     28  C   UNL     1       3.938  -9.828   3.026  0.00  0.00    +0.000 A 
ATOM     29  C   UNL     1       3.569  -9.189   4.195  0.00  0.00    +0.002 A 
ENDBRANCH  23  24
ENDBRANCH   1  23
BRANCH   1  30
ATOM     30  C   UNL     1       4.852  -7.537   6.434  0.00  0.00    -0.043 C 
BRANCH  30  31
ATOM     31  C   UNL     1       4.367  -8.226   7.712  0.00  0.00    +0.135 C 
BRANCH  31  32
ATOM     32  O   UNL     1       3.200  -8.998   7.422  0.00  0.00    -0.390 OA
ATOM     33  H   UNL     1       3.366  -9.764   6.855  0.00  0.00    +0.210 HD
ENDBRANCH  31  32
BRANCH  31  34
ATOM     34  C   UNL     1       5.467  -9.145   8.246  0.00  0.00    +0.258 C 
BRANCH  34  35
ATOM     35  O   UNL     1       5.060  -9.698   9.498  0.00  0.00    -0.489 OA
BRANCH  35  36
ATOM     36  C   UNL     1       5.930 -10.542  10.112  0.00  0.00    +0.121 A 
ATOM     37  C   UNL     1       7.153 -10.828   9.524  0.00  0.00    +0.045 A 
ATOM     38  C   UNL     1       8.036 -11.686  10.150  0.00  0.00    +0.004 A 
ATOM     39  C   UNL     1       7.701 -12.261  11.362  0.00  0.00    +0.000 A 
ATOM     40  C   UNL     1       6.482 -11.978  11.951  0.00  0.00    +0.004 A 
ATOM     41  C   UNL     1       5.598 -11.116  11.332  0.00  0.00    +0.045 A 
ENDBRANCH  35  36
ENDBRANCH  34  35
ENDBRANCH  31  34
ENDBRANCH  30  31
ENDBRANCH   1  30
TORSDOF 11
