REMARK  Name = ZINC13980566
REMARK  12 active torsions:
REMARK  status: ('A' for Active; 'I' for Inactive)
REMARK    1  A    between atoms: C_1  and  C_2
REMARK    2  A    between atoms: C_2  and  C_3
REMARK    3  A    between atoms: C_3  and  C_5
REMARK    4  A    between atoms: C_3  and  C_6
REMARK    5  A    between atoms: C_11  and  O_12
REMARK    6  A    between atoms: O_12  and  C_13
REMARK    7  A    between atoms: C_13  and  C_14
REMARK    8  A    between atoms: N_16  and  N_17
REMARK    9  A    between atoms: N_17  and  C_18
REMARK   10  A    between atoms: C_18  and  N_20
REMARK   11  A    between atoms: C_21  and  C_23
REMARK   12  A    between atoms: C_27  and  N_29
REMARK                            x       y       z     vdW  Elec       q    Type
REMARK                         _______ _______ _______ _____ _____    ______ ____
ROOT
ATOM      1  N   UNL     1       2.323   0.998  -0.015  0.00  0.00    -0.245 N 
ATOM      2  H   UNL     1       3.156   1.494  -0.020  0.00  0.00    +0.172 HD
ENDROOT
BRANCH   1   5
ATOM      3  C   UNL     1       3.518  -1.061  -0.037  0.00  0.00    +0.267 C 
ATOM      4  O   UNL     1       4.560  -0.441  -0.044  0.00  0.00    -0.271 OA
ATOM      5  N   UNL     1       2.342  -0.403  -0.022  0.00  0.00    -0.232 N 
ATOM      6  H   UNL     1       1.509  -0.900  -0.017  0.00  0.00    +0.173 HD
BRANCH   3   7
ATOM      7  C   UNL     1       3.539  -2.568  -0.045  0.00  0.00    +0.326 C 
BRANCH   7   8
ATOM      8  O   UNL     1       4.892  -3.026  -0.061  0.00  0.00    -0.482 OA
BRANCH   8  14
ATOM      9  C   UNL     1       6.377  -4.885  -0.091  0.00  0.00    -0.003 A 
ATOM     10  C   UNL     1       6.574  -6.252  -0.094  0.00  0.00    +0.007 A 
ATOM     11  C   UNL     1       5.488  -7.108  -0.088  0.00  0.00    +0.001 A 
ATOM     12  C   UNL     1       4.203  -6.598  -0.073  0.00  0.00    +0.004 A 
ATOM     13  C   UNL     1       4.000  -5.232  -0.064  0.00  0.00    +0.046 A 
ATOM     14  C   UNL     1       5.088  -4.371  -0.070  0.00  0.00    +0.125 A 
BRANCH   9  15
ATOM     15  C   UNL     1       7.561  -3.952  -0.103  0.00  0.00    +0.019 C 
ATOM     16  C   UNL     1       8.425  -4.209   1.133  0.00  0.00    +0.012 C 
BRANCH  15  18
ATOM     17  C   UNL     1       9.520  -3.169  -1.442  0.00  0.00    +0.004 C 
ATOM     18  C   UNL     1       8.389  -4.197  -1.366  0.00  0.00    +0.004 C 
ENDBRANCH  15  18
ENDBRANCH   9  15
ENDBRANCH   8  14
ENDBRANCH   7   8
ENDBRANCH   3   7
ENDBRANCH   1   5
BRANCH   1  19
ATOM     19  C   UNL     1       1.147   1.655   0.000  0.00  0.00    +0.153 C 
ATOM     20  S   UNL     1       1.124   3.367   0.009  0.00  0.00    -0.017 S 
BRANCH  19  21
ATOM     21  N   UNL     1      -0.011   0.966   0.007  0.00  0.00    -0.263 N 
ATOM     22  C   UNL     1      -1.187   1.624   0.017  0.00  0.00    +0.250 C 
ATOM     23  O   UNL     1      -1.204   2.839   0.023  0.00  0.00    -0.270 OA
ATOM     24  H   UNL     1       0.002  -0.004   0.002  0.00  0.00    +0.157 HD
BRANCH  22  25
ATOM     25  C   UNL     1      -2.456   0.868   0.018  0.00  0.00    +0.039 A 
ATOM     26  C   UNL     1      -2.441  -0.529   0.005  0.00  0.00    +0.014 A 
ATOM     27  C   UNL     1      -3.628  -1.228   0.013  0.00  0.00    +0.023 A 
ATOM     28  C   UNL     1      -4.836  -0.549   0.022  0.00  0.00    +0.071 A 
ATOM     29  C   UNL     1      -4.858   0.835   0.030  0.00  0.00    +0.145 A 
ATOM     30  C   UNL     1      -3.676   1.547   0.028  0.00  0.00    +0.047 A 
ATOM     31 CL   UNL     1      -6.327  -1.438   0.024  0.00  0.00    -0.081 Cl
BRANCH  29  32
ATOM     32  N   UNL     1      -6.152   1.553   0.040  0.00  0.00    +0.058 N 
ATOM     33  O   UNL     1      -6.173   2.771   0.047  0.00  0.00    -0.126 OA
ATOM     34  O   UNL     1      -7.197   0.926   0.042  0.00  0.00    -0.126 OA
ENDBRANCH  29  32
ENDBRANCH  22  25
ENDBRANCH  19  21
ENDBRANCH   1  19
TORSDOF 10
