REMARK  Name = ZINC01434719
REMARK  6 active torsions:
REMARK  status: ('A' for Active; 'I' for Inactive)
REMARK    1  A    between atoms: C_1  and  C_2
REMARK    2  A    between atoms: C_5  and  C_8
REMARK    3  A    between atoms: C_13  and  C_23
REMARK    4  A    between atoms: C_25  and  O_31
REMARK    5  A    between atoms: C_26  and  O_30
REMARK    6  A    between atoms: O_31  and  C_32
REMARK                            x       y       z     vdW  Elec       q    Type
REMARK                         _______ _______ _______ _____ _____    ______ ____
ROOT
ATOM      1  C   UNL     1       1.227   3.016  -0.812  0.00  0.00    +0.032 C 
ATOM      2  C   UNL     1       0.221   3.820   0.009  0.00  0.00    +0.059 C 
ATOM      3  C   UNL     1      -1.125   3.113   0.015  0.00  0.00    +0.017 C 
ATOM      4  C   UNL     1      -1.189   1.772  -0.032  0.00  0.00    +0.036 C 
ATOM      5  C   UNL     1      -2.452   0.944  -0.003  0.00  0.00    +0.136 C 
ATOM      6  N   UNL     1      -3.669   1.703  -0.197  0.00  0.00    -0.331 N 
ATOM      7  C   UNL     1      -4.079   2.658   0.732  0.00  0.00    +0.049 A 
ATOM      8  C   UNL     1      -5.213   2.474   1.506  0.00  0.00    +0.025 A 
ATOM      9  C   UNL     1      -5.521   3.396   2.491  0.00  0.00    +0.002 A 
ATOM     10  C   UNL     1      -4.707   4.494   2.702  0.00  0.00    +0.002 A 
ATOM     11  C   UNL     1      -3.584   4.692   1.915  0.00  0.00    +0.025 A 
ATOM     12  C   UNL     1      -3.284   3.780   0.919  0.00  0.00    +0.052 A 
ATOM     13  N   UNL     1      -2.199   3.941   0.065  0.00  0.00    -0.316 N 
ATOM     14  C   UNL     1      -0.003   1.004  -0.100  0.00  0.00    +0.163 C 
ATOM     15  O   UNL     1      -0.089  -0.208  -0.111  0.00  0.00    -0.292 OA
ATOM     16  C   UNL     1       1.357   1.632  -0.165  0.00  0.00    +0.088 C 
ATOM     17  H   UNL     1      -4.210   1.544  -0.987  0.00  0.00    +0.147 HD
ATOM     18  H   UNL     1      -2.211   4.701  -0.538  0.00  0.00    +0.152 HD
ENDROOT
BRANCH   1  23
ATOM     19  C   UNL     1       6.354   5.682  -0.786  0.00  0.00    +0.044 C 
ATOM     20  C   UNL     1       5.017   4.987  -0.793  0.00  0.00    -0.050 A 
ATOM     21  C   UNL     1       4.378   4.730  -1.991  0.00  0.00    +0.003 A 
ATOM     22  C   UNL     1       3.151   4.092  -1.998  0.00  0.00    +0.004 A 
ATOM     23  C   UNL     1       2.564   3.711  -0.805  0.00  0.00    -0.043 A 
ATOM     24  C   UNL     1       3.201   3.973   0.393  0.00  0.00    +0.004 A 
ATOM     25  C   UNL     1       4.429   4.607   0.399  0.00  0.00    +0.003 A 
ENDBRANCH   1  23
BRANCH   5  26
ATOM     26  C   UNL     1      -2.533   0.241   1.327  0.00  0.00    -0.018 A 
ATOM     27  C   UNL     1      -2.456  -1.138   1.384  0.00  0.00    +0.055 A 
ATOM     28  C   UNL     1      -2.531  -1.787   2.606  0.00  0.00    +0.163 A 
ATOM     29  C   UNL     1      -2.683  -1.048   3.775  0.00  0.00    +0.177 A 
ATOM     30  C   UNL     1      -2.760   0.335   3.712  0.00  0.00    +0.086 A 
ATOM     31  C   UNL     1      -2.680   0.977   2.488  0.00  0.00    +0.029 A 
ATOM     32 CL   UNL     1      -2.951   1.262   5.167  0.00  0.00    -0.080 Cl
BRANCH  29  33
ATOM     33  O   UNL     1      -2.758  -1.680   4.977  0.00  0.00    -0.502 OA
ATOM     34  H   UNL     1      -1.901  -1.811   5.406  0.00  0.00    +0.292 HD
ENDBRANCH  29  33
BRANCH  28  35
ATOM     35  O   UNL     1      -2.455  -3.144   2.663  0.00  0.00    -0.491 OA
ATOM     36  C   UNL     1      -2.299  -3.837   1.424  0.00  0.00    +0.277 C 
ENDBRANCH  28  35
ENDBRANCH   5  26
TORSDOF 4
