REMARK  Name = ZINC39583715
REMARK  5 active torsions:
REMARK  status: ('A' for Active; 'I' for Inactive)
REMARK    1  A    between atoms: C_4  and  N_7
REMARK    2  A    between atoms: C_8  and  C_25
REMARK    3  A    between atoms: C_12  and  S_14
REMARK    4  A    between atoms: S_14  and  C_15
REMARK    5  A    between atoms: C_15  and  C_16
REMARK                            x       y       z     vdW  Elec       q    Type
REMARK                         _______ _______ _______ _____ _____    ______ ____
ROOT
ATOM      1  N   UNL     1       2.706  -1.538  -0.668  0.00  0.00    -0.284 N 
ATOM      2  C   UNL     1       3.832  -1.940   0.193  0.00  0.00    +0.188 C 
ATOM      3  N   UNL     1       4.707  -0.753   0.325  0.00  0.00    -0.230 NA
ATOM      4  N   UNL     1       4.403   0.060  -0.864  0.00  0.00    -0.226 NA
ATOM      5  C   UNL     1       2.941  -0.126  -1.033  0.00  0.00    +0.218 C 
ATOM      6  H   UNL     1       4.502  -0.244   1.173  0.00  0.00    +0.143 HD
ATOM      7  H   UNL     1       4.630   1.030  -0.706  0.00  0.00    +0.143 HD
ENDROOT
BRANCH   2   8
ATOM      8  C   UNL     1       3.321  -2.359   1.548  0.00  0.00    -0.010 A 
ATOM      9  C   UNL     1       2.737  -1.427   2.385  0.00  0.00    +0.007 A 
ATOM     10  C   UNL     1       2.269  -1.811   3.628  0.00  0.00    +0.002 A 
ATOM     11  C   UNL     1       2.385  -3.127   4.034  0.00  0.00    +0.020 A 
ATOM     12  C   UNL     1       2.969  -4.060   3.196  0.00  0.00    +0.041 A 
ATOM     13  C   UNL     1       3.432  -3.676   1.950  0.00  0.00    +0.026 A 
ATOM     14 CL   UNL     1       3.115  -5.714   3.705  0.00  0.00    -0.084 Cl
ENDBRANCH   2   8
BRANCH   1  18
ATOM     15  C   UNL     1      -0.497  -3.919  -1.855  0.00  0.00    +0.000 A 
ATOM     16  C   UNL     1      -0.476  -2.577  -2.186  0.00  0.00    +0.002 A 
ATOM     17  C   UNL     1       0.585  -1.784  -1.794  0.00  0.00    +0.023 A 
ATOM     18  C   UNL     1       1.631  -2.337  -1.066  0.00  0.00    +0.033 A 
ATOM     19  C   UNL     1       1.607  -3.686  -0.735  0.00  0.00    +0.023 A 
ATOM     20  C   UNL     1       0.543  -4.473  -1.131  0.00  0.00    +0.002 A 
ENDBRANCH   1  18
BRANCH   5  21
ATOM     21  S   UNL     1       2.032   0.978   0.083  0.00  0.00    -0.114 S 
BRANCH  21  22
ATOM     22  C   UNL     1       1.774   2.480  -0.900  0.00  0.00    +0.146 C 
BRANCH  22  23
ATOM     23  C   UNL     1       0.912   3.445  -0.127  0.00  0.00    +0.118 A 
ATOM     24  N   UNL     1       1.359   4.355   0.688  0.00  0.00    -0.232 NA
ATOM     25  C   UNL     1       0.317   5.048   1.215  0.00  0.00    +0.089 A 
ATOM     26  C   UNL     1       0.223   6.107   2.121  0.00  0.00    +0.030 A 
ATOM     27  C   UNL     1      -1.003   6.602   2.465  0.00  0.00    +0.002 A 
ATOM     28  C   UNL     1      -2.161   6.065   1.923  0.00  0.00    +0.002 A 
ATOM     29  C   UNL     1      -2.093   5.019   1.026  0.00  0.00    +0.028 A 
ATOM     30  C   UNL     1      -0.856   4.503   0.665  0.00  0.00    +0.066 A 
ATOM     31  N   UNL     1      -0.446   3.494  -0.184  0.00  0.00    -0.341 N 
ATOM     32  H   UNL     1      -1.020   2.925  -0.720  0.00  0.00    +0.167 HD
ENDBRANCH  22  23
ENDBRANCH  21  22
ENDBRANCH   5  21
TORSDOF 5
