REMARK  Name = ZINC36203358
REMARK  8 active torsions:
REMARK  status: ('A' for Active; 'I' for Inactive)
REMARK    1  A    between atoms: C_1  and  C_2
REMARK    2  A    between atoms: C_2  and  C_3
REMARK    3  A    between atoms: C_10  and  C_12
REMARK    4  A    between atoms: C_12  and  C_14
REMARK    5  A    between atoms: C_12  and  O_15
REMARK    6  A    between atoms: O_15  and  C_16
REMARK    7  A    between atoms: C_16  and  C_18
REMARK    8  A    between atoms: C_20  and  N_26
REMARK                            x       y       z     vdW  Elec       q    Type
REMARK                         _______ _______ _______ _____ _____    ______ ____
ROOT
ATOM      1  C   UNL     1      -2.169   2.722  -4.902  0.00  0.00    +0.360 C 
ATOM      2  O   UNL     1      -3.371   2.577  -4.998  0.00  0.00    -0.243 OA
ENDROOT
BRANCH   1   3
ATOM      3  C   UNL     1      -1.500   3.835  -5.611  0.00  0.00    +0.169 A 
ATOM      4  C   UNL     1      -2.255   4.715  -6.382  0.00  0.00    +0.095 A 
ATOM      5  C   UNL     1      -1.608   5.760  -7.044  0.00  0.00    +0.067 A 
ATOM      6  C   UNL     1      -0.226   5.877  -6.903  0.00  0.00    +0.100 A 
ATOM      7  C   UNL     1       0.455   4.961  -6.117  0.00  0.00    +0.150 A 
ATOM      8  N   UNL     1      -0.184   3.989  -5.501  0.00  0.00    -0.226 NA
ATOM      9 CL   UNL     1       2.176   5.102  -5.938  0.00  0.00    -0.060 Cl
ATOM     10 CL   UNL     1       0.631   7.157  -7.704  0.00  0.00    -0.078 Cl
ATOM     11 CL   UNL     1      -3.974   4.515  -6.518  0.00  0.00    -0.079 Cl
BRANCH   5  12
ATOM     12  N   UNL     1      -2.326   6.662  -7.826  0.00  0.00    -0.356 N 
ATOM     13  H   UNL     1      -3.287   6.569  -7.916  0.00  0.00    +0.142 HD
ATOM     14  H   UNL     1      -1.864   7.384  -8.281  0.00  0.00    +0.142 HD
ENDBRANCH   5  12
ENDBRANCH   1   3
BRANCH   1  15
ATOM     15  O   UNL     1      -1.445   1.871  -4.150  0.00  0.00    -0.448 OA
BRANCH  15  16
ATOM     16  C   UNL     1      -2.157   0.820  -3.494  0.00  0.00    +0.259 C 
ATOM     17  C   UNL     1      -2.216  -0.405  -4.409  0.00  0.00    +0.062 C 
BRANCH  16  24
ATOM     18  C   UNL     1      -1.453  -0.535   0.024  0.00  0.00    +0.076 C 
ATOM     19  C   UNL     1      -1.452  -2.045   0.280  0.00  0.00    +0.022 C 
ATOM     20  C   UNL     1      -2.880  -2.580   0.156  0.00  0.00    +0.003 C 
ATOM     21  C   UNL     1      -3.400  -2.330  -1.261  0.00  0.00    +0.019 C 
ATOM     22  C   UNL     1      -3.423  -0.823  -1.534  0.00  0.00    +0.108 C 
ATOM     23  N   UNL     1      -2.085  -0.272  -1.276  0.00  0.00    -0.295 N 
ATOM     24  C   UNL     1      -1.449   0.457  -2.214  0.00  0.00    +0.256 C 
ATOM     25  O   UNL     1      -0.307   0.820  -2.029  0.00  0.00    -0.272 OA
BRANCH  18  27
ATOM     26  C   UNL     1       0.642  -0.288   1.364  0.00  0.00    +0.006 C 
ATOM     27  C   UNL     1      -0.013  -0.016   0.009  0.00  0.00    +0.019 C 
ENDBRANCH  18  27
ENDBRANCH  16  24
ENDBRANCH  15  16
ENDBRANCH   1  15
TORSDOF 6
