REMARK  Name = ZINC06881357
REMARK  9 active torsions:
REMARK  status: ('A' for Active; 'I' for Inactive)
REMARK    1  A    between atoms: C_1  and  C_2
REMARK    2  A    between atoms: C_5  and  C_8
REMARK    3  A    between atoms: C_13  and  N_17
REMARK    4  A    between atoms: N_17  and  C_18
REMARK    5  A    between atoms: C_18  and  C_19
REMARK    6  A    between atoms: C_19  and  C_21
REMARK    7  A    between atoms: C_19  and  N_52
REMARK    8  A    between atoms: C_28  and  N_52
REMARK    9  A    between atoms: C_29  and  N_52
REMARK                            x       y       z     vdW  Elec       q    Type
REMARK                         _______ _______ _______ _____ _____    ______ ____
ROOT
ATOM      1  C   UNL     1       3.243  -1.149   2.504  0.00  0.00    +0.002 A 
ATOM      2  C   UNL     1       4.198  -0.349   3.034  0.00  0.00    +0.056 A 
ATOM      3  S   UNL     1       3.297   1.110   3.521  0.00  0.00    -0.076 S 
ATOM      4  C   UNL     1       1.672   0.621   3.007  0.00  0.00    +0.114 A 
ATOM      5  C   UNL     1       1.866  -0.667   2.468  0.00  0.00    +0.055 A 
ATOM      6  C   UNL     1       0.697  -1.304   1.972  0.00  0.00    +0.131 A 
ATOM      7  N   UNL     1      -0.463  -0.670   2.044  0.00  0.00    -0.220 NA
ATOM      8  C   UNL     1      -0.572   0.539   2.563  0.00  0.00    +0.224 A 
ATOM      9  N   UNL     1       0.478   1.180   3.039  0.00  0.00    -0.228 NA
ENDROOT
BRANCH   1  14
ATOM     10  C   UNL     1       4.591  -6.348   0.429  0.00  0.00    +0.044 C 
ATOM     11  C   UNL     1       4.238  -4.987   0.972  0.00  0.00    -0.050 A 
ATOM     12  C   UNL     1       3.791  -3.998   0.115  0.00  0.00    +0.004 A 
ATOM     13  C   UNL     1       3.466  -2.750   0.606  0.00  0.00    +0.009 A 
ATOM     14  C   UNL     1       3.590  -2.487   1.970  0.00  0.00    -0.017 A 
ATOM     15  C   UNL     1       4.046  -3.486   2.829  0.00  0.00    +0.009 A 
ATOM     16  C   UNL     1       4.363  -4.732   2.326  0.00  0.00    +0.004 A 
ENDBRANCH   1  14
BRANCH   6  17
ATOM     17  N   UNL     1       0.769  -2.571   1.421  0.00  0.00    -0.330 N 
ATOM     18  H   UNL     1       1.604  -3.063   1.447  0.00  0.00    +0.147 HD
BRANCH  17  19
ATOM     19  C   UNL     1      -0.415  -3.168   0.799  0.00  0.00    +0.092 C 
BRANCH  19  20
ATOM     20  C   UNL     1      -0.067  -4.561   0.273  0.00  0.00    -0.020 C 
BRANCH  20  21
ATOM     21  C   UNL     1      -1.247  -5.126  -0.474  0.00  0.00    -0.041 A 
ATOM     22  C   UNL     1      -1.391  -4.880  -1.827  0.00  0.00    +0.003 A 
ATOM     23  C   UNL     1      -2.472  -5.401  -2.513  0.00  0.00    +0.000 A 
ATOM     24  C   UNL     1      -3.415  -6.161  -1.845  0.00  0.00    +0.001 A 
ATOM     25  C   UNL     1      -3.275  -6.403  -0.492  0.00  0.00    +0.020 A 
ATOM     26  C   UNL     1      -2.190  -5.885   0.194  0.00  0.00    +0.043 A 
ATOM     27 CL   UNL     1      -2.014  -6.189   1.895  0.00  0.00    -0.083 Cl
ENDBRANCH  20  21
BRANCH  20  30
ATOM     28  C   UNL     1       1.222  -5.689  -1.440  0.00  0.00    -0.096 C 
ATOM     29  C   UNL     1       0.990  -3.279  -1.489  0.00  0.00    -0.096 C 
ATOM     30  N   UNL     1       1.110  -4.466  -0.616  0.00  0.00    +0.382 N 
ATOM     31  H   UNL     1       1.956  -4.373  -0.041  0.00  0.00    -0.082 HD
ENDBRANCH  20  30
ENDBRANCH  19  20
ENDBRANCH  17  19
ENDBRANCH   6  17
TORSDOF 6
