REMARK  Name = ZINC02544796
REMARK  7 active torsions:
REMARK  status: ('A' for Active; 'I' for Inactive)
REMARK    1  A    between atoms: C_1  and  O_2
REMARK    2  A    between atoms: O_2  and  C_3
REMARK    3  A    between atoms: C_7  and  C_10
REMARK    4  A    between atoms: C_8  and  O_9
REMARK    5  A    between atoms: C_10  and  N_11
REMARK    6  A    between atoms: N_11  and  C_12
REMARK    7  A    between atoms: C_15  and  C_18
REMARK                            x       y       z     vdW  Elec       q    Type
REMARK                         _______ _______ _______ _____ _____    ______ ____
ROOT
ATOM      1  N   UNL     1      -0.698   1.558   1.213  0.00  0.00    -0.340 N 
ATOM      2  H   UNL     1      -1.495   2.106   1.135  0.00  0.00    +0.146 HD
ENDROOT
BRANCH   1   3
ATOM      3  C   UNL     1      -0.205   1.221   2.475  0.00  0.00    +0.027 A 
ATOM      4  C   UNL     1       0.933   0.432   2.590  0.00  0.00    +0.023 A 
ATOM      5  C   UNL     1       1.422   0.104   3.839  0.00  0.00    +0.006 A 
ATOM      6  C   UNL     1       0.773   0.551   4.976  0.00  0.00    -0.044 A 
ATOM      7  C   UNL     1      -0.363   1.332   4.866  0.00  0.00    +0.006 A 
ATOM      8  C   UNL     1      -0.854   1.668   3.619  0.00  0.00    +0.023 A 
BRANCH   6   9
ATOM      9  C   UNL     1       1.306   0.186   6.338  0.00  0.00    +0.019 C 
ATOM     10  C   UNL     1       2.731   0.723   6.488  0.00  0.00    +0.008 C 
ATOM     11  C   UNL     1       3.272   0.353   7.871  0.00  0.00    +0.001 C 
ATOM     12  C   UNL     1       3.281  -1.169   8.024  0.00  0.00    +0.000 C 
ATOM     13  C   UNL     1       1.856  -1.706   7.873  0.00  0.00    +0.001 C 
ATOM     14  C   UNL     1       1.315  -1.336   6.491  0.00  0.00    +0.008 C 
ENDBRANCH   6   9
ENDBRANCH   1   3
BRANCH   1  15
ATOM     15  C   UNL     1      -0.013   1.086   0.008  0.00  0.00    +0.140 C 
BRANCH  15  20
ATOM     16  C   UNL     1      -1.221   3.343  -2.781  0.00  0.00    +0.163 A 
ATOM     17  C   UNL     1      -2.085   2.498  -3.459  0.00  0.00    +0.064 A 
ATOM     18  C   UNL     1      -2.275   1.202  -3.014  0.00  0.00    +0.022 A 
ATOM     19  C   UNL     1      -1.605   0.747  -1.893  0.00  0.00    +0.024 A 
ATOM     20  C   UNL     1      -0.742   1.585  -1.213  0.00  0.00    +0.016 A 
ATOM     21  C   UNL     1      -0.551   2.886  -1.650  0.00  0.00    +0.163 A 
ATOM     22 BR   UNL     1      -3.455   0.050  -3.941  0.00  0.00    -0.050 Br
BRANCH  16  24
ATOM     23  C   UNL     1      -1.758   5.019  -4.380  0.00  0.00    +0.277 C 
ATOM     24  O   UNL     1      -1.033   4.617  -3.216  0.00  0.00    -0.491 OA
ENDBRANCH  16  24
BRANCH  21  25
ATOM     25  O   UNL     1       0.294   3.714  -0.978  0.00  0.00    -0.503 OA
ATOM     26  H   UNL     1       1.207   3.684  -1.293  0.00  0.00    +0.292 HD
ENDBRANCH  21  25
ENDBRANCH  15  20
ENDBRANCH   1  15
TORSDOF 6
