REMARK  Name = ZINC05648456
REMARK  5 active torsions:
REMARK  status: ('A' for Active; 'I' for Inactive)
REMARK    1  A    between atoms: N_8  and  N_9
REMARK    2  A    between atoms: C_10  and  C_12
REMARK    3  A    between atoms: C_12  and  C_13
REMARK    4  A    between atoms: C_13  and  S_14
REMARK    5  A    between atoms: S_14  and  C_15
REMARK                            x       y       z     vdW  Elec       q    Type
REMARK                         _______ _______ _______ _____ _____    ______ ____
ROOT
ATOM      1  N   UNL     1      -3.302   3.229   0.033  0.00  0.00    -0.206 N 
ATOM      2  C   UNL     1      -4.630   2.994   0.037  0.00  0.00    +0.233 C 
ATOM      3  O   UNL     1      -5.043   1.854   0.032  0.00  0.00    -0.274 OA
ATOM      4  H   UNL     1      -2.927   4.263   0.037  0.00  0.00    +0.177 HD
ENDROOT
BRANCH   1  12
ATOM      5  C   UNL     1       1.210  -0.672  -0.013  0.00  0.00    +0.001 A 
ATOM      6  C   UNL     1       2.397   0.040  -0.021  0.00  0.00    +0.002 A 
ATOM      7  C   UNL     1       2.389   1.421  -0.013  0.00  0.00    +0.024 A 
ATOM      8  C   UNL     1       1.182   2.111   0.002  0.00  0.00    +0.043 A 
ATOM      9  C   UNL     1      -0.017   1.386   0.010  0.00  0.00    +0.028 A 
ATOM     10  C   UNL     1       0.002  -0.004   0.002  0.00  0.00    +0.012 A 
ATOM     11  C   UNL     1      -1.110   2.386   0.019  0.00  0.00    +0.152 C 
ATOM     12  N   UNL     1      -2.401   2.157   0.023  0.00  0.00    -0.175 NA
ATOM     13  C   UNL     1      -0.429   3.696   0.026  0.00  0.00    +0.269 C 
ATOM     14  O   UNL     1      -0.971   4.785   0.037  0.00  0.00    -0.268 OA
ATOM     15  N   UNL     1       0.896   3.472   0.012  0.00  0.00    -0.280 N 
ATOM     16  H   UNL     1       1.716   4.206   0.008  0.00  0.00    +0.155 HD
ENDBRANCH   1  12
BRANCH   2  17
ATOM     17  C   UNL     1      -5.599   4.148   0.047  0.00  0.00    +0.108 C 
BRANCH  17  18
ATOM     18  C   UNL     1      -7.032   3.610   0.050  0.00  0.00    +0.083 C 
BRANCH  18  19
ATOM     19  S   UNL     1      -8.199   4.998   0.062  0.00  0.00    -0.125 S 
BRANCH  19  20
ATOM     20  C   UNL     1      -9.782   4.225   0.064  0.00  0.00    +0.008 A 
ATOM     21  C   UNL     1      -9.879   2.838   0.051  0.00  0.00    +0.016 A 
ATOM     22  C   UNL     1     -11.121   2.235   0.057  0.00  0.00    +0.021 A 
ATOM     23  C   UNL     1     -12.268   3.009   0.066  0.00  0.00    +0.041 A 
ATOM     24  C   UNL     1     -12.175   4.390   0.074  0.00  0.00    +0.021 A 
ATOM     25  C   UNL     1     -10.935   4.999   0.073  0.00  0.00    +0.016 A 
ATOM     26 CL   UNL     1     -13.828   2.247   0.067  0.00  0.00    -0.084 Cl
ENDBRANCH  19  20
ENDBRANCH  18  19
ENDBRANCH  17  18
ENDBRANCH   2  17
TORSDOF 5
