REMARK  Name = ZINC20905495
REMARK  5 active torsions:
REMARK  status: ('A' for Active; 'I' for Inactive)
REMARK    1  A    between atoms: C_1  and  S_2
REMARK    2  A    between atoms: S_2  and  C_3
REMARK    3  A    between atoms: C_6  and  C_9
REMARK    4  A    between atoms: N_23  and  C_24
REMARK    5  A    between atoms: C_24  and  C_25
REMARK                            x       y       z     vdW  Elec       q    Type
REMARK                         _______ _______ _______ _____ _____    ______ ____
ROOT
ATOM      1  C   UNL     1       2.452   3.935  -0.002  0.00  0.00    +0.134 C 
ATOM      2  C   UNL     1       2.749   4.412  -1.403  0.00  0.00    +0.042 A 
ATOM      3  C   UNL     1       3.194   5.660  -1.678  0.00  0.00    -0.016 A 
ATOM      4  C   UNL     1       3.362   5.748  -3.111  0.00  0.00    +0.003 A 
ATOM      5  C   UNL     1       3.788   6.777  -3.958  0.00  0.00    +0.010 A 
ATOM      6  C   UNL     1       3.828   6.499  -5.301  0.00  0.00    +0.001 A 
ATOM      7  C   UNL     1       3.465   5.262  -5.809  0.00  0.00    +0.002 A 
ATOM      8  C   UNL     1       3.038   4.226  -4.995  0.00  0.00    +0.026 A 
ATOM      9  C   UNL     1       2.989   4.479  -3.626  0.00  0.00    +0.047 A 
ATOM     10  N   UNL     1       2.624   3.700  -2.565  0.00  0.00    -0.356 N 
ATOM     11  H   UNL     1       2.273   2.658  -2.536  0.00  0.00    +0.166 HD
ATOM     12  C   UNL     1       3.445   6.705  -0.620  0.00  0.00    +0.053 C 
ATOM     13  C   UNL     1       3.498   5.998   0.741  0.00  0.00    +0.090 C 
ATOM     14  N   UNL     1       2.336   5.109   0.877  0.00  0.00    -0.283 NA
ENDROOT
BRANCH   1  18
ATOM     15  C   UNL     1      -1.225   1.755   0.017  0.00  0.00    +0.008 A 
ATOM     16  C   UNL     1      -0.013   1.076   0.008  0.00  0.00    +0.015 A 
ATOM     17  C   UNL     1       1.173   1.783   0.000  0.00  0.00    +0.006 A 
ATOM     18  C   UNL     1       1.155   3.166   0.007  0.00  0.00    -0.024 A 
ATOM     19  C   UNL     1      -0.049   3.845   0.021  0.00  0.00    +0.006 A 
ATOM     20  C   UNL     1      -1.239   3.145   0.029  0.00  0.00    +0.015 A 
BRANCH  15  22
ATOM     21  C   UNL     1      -4.016   2.147   0.033  0.00  0.00    +0.090 C 
ATOM     22  S   UNL     1      -2.741   0.857   0.020  0.00  0.00    -0.129 S 
ENDBRANCH  15  22
ENDBRANCH   1  18
BRANCH  14  23
ATOM     23  C   UNL     1       2.144   4.704   2.276  0.00  0.00    +0.157 C 
BRANCH  23  24
ATOM     24  C   UNL     1       2.276   5.909   3.171  0.00  0.00    +0.099 A 
ATOM     25  N   UNL     1       1.255   6.669   3.622  0.00  0.00    -0.349 N 
ATOM     26  H   UNL     1       0.221   6.427   3.337  0.00  0.00    +0.166 HD
ATOM     27  C   UNL     1       1.798   7.655   4.401  0.00  0.00    +0.101 A 
ATOM     28  C   UNL     1       3.131   7.464   4.399  0.00  0.00    +0.101 A 
ATOM     29  N   UNL     1       3.394   6.387   3.644  0.00  0.00    -0.349 N 
ATOM     30  H   UNL     1       4.349   5.901   3.395  0.00  0.00    +0.166 HD
ENDBRANCH  23  24
ENDBRANCH  14  23
TORSDOF 4
