REMARK  Name = ZINC67127073
REMARK  7 active torsions:
REMARK  status: ('A' for Active; 'I' for Inactive)
REMARK    1  A    between atoms: C_1  and  C_2
REMARK    2  A    between atoms: C_7  and  N_8
REMARK    3  A    between atoms: C_9  and  C_11
REMARK    4  A    between atoms: C_11  and  C_12
REMARK    5  A    between atoms: C_12  and  C_13
REMARK    6  A    between atoms: C_13  and  C_14
REMARK    7  A    between atoms: C_14  and  C_15
REMARK                            x       y       z     vdW  Elec       q    Type
REMARK                         _______ _______ _______ _____ _____    ______ ____
ROOT
ATOM      1  C   UNL     1      -0.245  -0.946   6.038  0.00  0.00    +0.009 C 
ENDROOT
BRANCH   1   2
ATOM      2  C   UNL     1      -0.168   0.054   4.882  0.00  0.00    +0.096 C 
BRANCH   2   4
ATOM      3  N   UNL     1       0.025  -0.014   2.417  0.00  0.00    -0.285 N 
ATOM      4  C   UNL     1      -0.056  -0.693   3.578  0.00  0.00    +0.217 C 
ATOM      5  O   UNL     1      -0.040  -1.906   3.574  0.00  0.00    -0.275 OA
ATOM      6  H   UNL     1       0.078   0.955   2.424  0.00  0.00    +0.155 HD
BRANCH   3  13
ATOM      7  C   UNL     1      -1.265   1.183   0.181  0.00  0.00    +0.045 C 
ATOM      8  C   UNL     1      -0.584  -0.158   0.084  0.00  0.00    -0.029 A 
ATOM      9  C   UNL     1      -0.569  -0.840  -1.117  0.00  0.00    +0.006 A 
ATOM     10  C   UNL     1       0.054  -2.070  -1.207  0.00  0.00    +0.020 A 
ATOM     11  C   UNL     1       0.667  -2.622  -0.095  0.00  0.00    +0.043 A 
ATOM     12  C   UNL     1       0.655  -1.944   1.109  0.00  0.00    +0.043 A 
ATOM     13  C   UNL     1       0.034  -0.706   1.201  0.00  0.00    +0.038 A 
ATOM     14 CL   UNL     1       1.449  -4.168  -0.213  0.00  0.00    -0.083 Cl
ENDBRANCH   3  13
ENDBRANCH   2   4
ENDBRANCH   1   2
BRANCH   1  15
ATOM     15  C   UNL     1      -0.358  -0.187   7.362  0.00  0.00    +0.002 C 
BRANCH  15  16
ATOM     16  C   UNL     1      -0.435  -1.187   8.517  0.00  0.00    +0.016 C 
BRANCH  16  17
ATOM     17  C   UNL     1      -0.548  -0.428   9.841  0.00  0.00    +0.069 C 
ATOM     18  C   UNL     1      -0.585  -1.403  11.037  0.00  0.00    +0.108 C 
ATOM     19  C   UNL     1      -1.574  -0.996  12.133  0.00  0.00    +0.105 C 
ATOM     20  C   UNL     1      -2.346   0.303  11.819  0.00  0.00    +0.093 C 
ATOM     21  S   UNL     1      -2.191   0.399   9.993  0.00  0.00    -0.154 S 
ATOM     22  N   UNL     1      -2.531  -2.114  12.184  0.00  0.00    -0.294 N 
ATOM     23  C   UNL     1      -2.176  -3.033  11.276  0.00  0.00    +0.300 C 
ATOM     24  O   UNL     1      -2.794  -4.065  11.101  0.00  0.00    -0.253 OA
ATOM     25  N   UNL     1      -1.088  -2.708  10.579  0.00  0.00    -0.294 N 
ATOM     26  H   UNL     1      -3.294  -2.175  12.779  0.00  0.00    +0.151 HD
ATOM     27  H   UNL     1      -0.691  -3.251   9.881  0.00  0.00    +0.151 HD
ENDBRANCH  16  17
ENDBRANCH  15  16
ENDBRANCH   1  15
TORSDOF 6
