REMARK  Name = ZINC59459237
REMARK  7 active torsions:
REMARK  status: ('A' for Active; 'I' for Inactive)
REMARK    1  A    between atoms: C_4  and  C_7
REMARK    2  A    between atoms: C_7  and  C_9
REMARK    3  A    between atoms: C_7  and  O_29
REMARK    4  A    between atoms: N_11  and  N_12
REMARK    5  A    between atoms: C_13  and  C_14
REMARK    6  A    between atoms: C_17  and  S_19
REMARK    7  A    between atoms: S_19  and  C_20
REMARK                            x       y       z     vdW  Elec       q    Type
REMARK                         _______ _______ _______ _____ _____    ______ ____
ROOT
ATOM      1  N   UNL     1       4.594  -0.709   3.625  0.00  0.00    -0.185 NA
ATOM      2  C   UNL     1       4.827   0.162   4.565  0.00  0.00    +0.176 C 
ENDROOT
BRANCH   2   3
ATOM      3  C   UNL     1       5.150  -0.292   5.918  0.00  0.00    +0.149 A 
ATOM      4  C   UNL     1       5.409   0.511   6.993  0.00  0.00    +0.052 A 
ATOM      5  C   UNL     1       5.667  -0.336   8.081  0.00  0.00    +0.057 A 
ATOM      6  C   UNL     1       5.556  -1.613   7.628  0.00  0.00    +0.169 A 
ATOM      7  O   UNL     1       5.238  -1.578   6.323  0.00  0.00    -0.447 OA
BRANCH   6   8
ATOM      8  S   UNL     1       5.782  -3.070   8.592  0.00  0.00    -0.025 S 
BRANCH   8   9
ATOM      9  C   UNL     1       5.506  -4.384   7.452  0.00  0.00    +0.143 A 
ATOM     10  N   UNL     1       5.206  -4.317   6.173  0.00  0.00    -0.232 NA
ATOM     11  C   UNL     1       5.021  -5.418   5.413  0.00  0.00    +0.079 A 
ATOM     12  C   UNL     1       4.697  -5.484   4.038  0.00  0.00    +0.029 A 
ATOM     13  C   UNL     1       4.542  -6.694   3.413  0.00  0.00    +0.002 A 
ATOM     14  C   UNL     1       4.695  -7.890   4.100  0.00  0.00    +0.001 A 
ATOM     15  C   UNL     1       5.012  -7.862   5.446  0.00  0.00    +0.017 A 
ATOM     16  C   UNL     1       5.169  -6.655   6.080  0.00  0.00    +0.040 A 
ATOM     17  S   UNL     1       5.569  -6.148   7.735  0.00  0.00    -0.061 S 
ENDBRANCH   8   9
ENDBRANCH   6   8
ENDBRANCH   2   3
BRANCH   1  20
ATOM     18  C   UNL     1       4.044  -1.175   1.356  0.00  0.00    +0.265 C 
ATOM     19  O   UNL     1       4.095  -2.362   1.602  0.00  0.00    -0.271 OA
ATOM     20  N   UNL     1       4.285  -0.274   2.329  0.00  0.00    -0.204 N 
ATOM     21  H   UNL     1       4.244   0.675   2.133  0.00  0.00    +0.177 HD
BRANCH  18  22
ATOM     22  C   UNL     1       3.711  -0.707  -0.038  0.00  0.00    +0.232 C 
BRANCH  22  26
ATOM     23  C   UNL     1      -0.017   1.378   0.010  0.00  0.00    +0.000 A 
ATOM     24  C   UNL     1       1.171   2.086   0.002  0.00  0.00    +0.000 A 
ATOM     25  C   UNL     1       2.377   1.411  -0.013  0.00  0.00    +0.006 A 
ATOM     26  C   UNL     1       2.396   0.029  -0.020  0.00  0.00    -0.010 A 
ATOM     27  C   UNL     1       1.208  -0.679  -0.012  0.00  0.00    +0.006 A 
ATOM     28  C   UNL     1       0.002  -0.004   0.002  0.00  0.00    +0.000 A 
ENDBRANCH  22  26
BRANCH  22  29
ATOM     29  O   UNL     1       3.614  -1.836  -0.908  0.00  0.00    -0.378 OA
ATOM     30  H   UNL     1       2.934  -2.474  -0.651  0.00  0.00    +0.211 HD
ENDBRANCH  22  29
ENDBRANCH  18  22
ENDBRANCH   1  20
TORSDOF 7
