REMARK  Name = ZINC38686170
REMARK  16 active torsions:
REMARK  status: ('A' for Active; 'I' for Inactive)
REMARK    1  A    between atoms: C_1  and  C_2
REMARK    2  A    between atoms: C_2  and  C_3
REMARK    3  A    between atoms: C_3  and  C_4
REMARK    4  A    between atoms: C_4  and  C_5
REMARK    5  A    between atoms: C_5  and  O_6
REMARK    6  A    between atoms: O_6  and  C_7
REMARK    7  A    between atoms: C_12  and  C_13
REMARK    8  A    between atoms: C_18  and  O_27
REMARK    9  A    between atoms: C_22  and  N_26
REMARK   10  A    between atoms: C_23  and  C_24
REMARK   11  A    between atoms: O_27  and  C_28
REMARK   12  A    between atoms: C_28  and  C_30
REMARK   13  A    between atoms: C_30  and  O_31
REMARK   14  A    between atoms: O_31  and  C_32
REMARK   15  A    between atoms: C_36  and  C_39
REMARK   16  A    between atoms: C_37  and  C_38
REMARK                            x       y       z     vdW  Elec       q    Type
REMARK                         _______ _______ _______ _____ _____    ______ ____
ROOT
ATOM      1  C   UNL     1       1.568  -6.816  -2.589  0.00  0.00    +0.101 C 
ATOM      2  C   UNL     1       0.477  -7.678  -3.167  0.00  0.00    +0.008 A 
ATOM      3  C   UNL     1      -0.777  -7.134  -3.385  0.00  0.00    +0.012 A 
ATOM      4  C   UNL     1      -1.789  -7.909  -3.915  0.00  0.00    +0.047 A 
ATOM      5  C   UNL     1      -1.551  -9.240  -4.229  0.00  0.00    +0.135 A 
ATOM      6  C   UNL     1      -0.298  -9.788  -4.011  0.00  0.00    +0.093 A 
ATOM      7  C   UNL     1       0.720  -9.006  -3.479  0.00  0.00    +0.138 A 
ATOM      8  O   UNL     1       1.941  -9.557  -3.271  0.00  0.00    -0.441 OA
ATOM      9  C   UNL     1       2.805  -8.972  -2.425  0.00  0.00    +0.199 C 
ATOM     10  C   UNL     1       2.683  -7.676  -2.064  0.00  0.00    +0.098 C 
ENDROOT
BRANCH   1  16
ATOM     11  C   UNL     1       2.025  -4.527  -3.505  0.00  0.00    +0.125 A 
ATOM     12  C   UNL     1       2.525  -3.689  -4.492  0.00  0.00    +0.046 A 
ATOM     13  C   UNL     1       3.093  -4.227  -5.630  0.00  0.00    +0.004 A 
ATOM     14  C   UNL     1       3.165  -5.599  -5.786  0.00  0.00    +0.001 A 
ATOM     15  C   UNL     1       2.668  -6.436  -4.804  0.00  0.00    +0.008 A 
ATOM     16  C   UNL     1       2.104  -5.903  -3.661  0.00  0.00    +0.007 A 
BRANCH  11  17
ATOM     17  O   UNL     1       1.466  -4.000  -2.384  0.00  0.00    -0.492 OA
BRANCH  17  18
ATOM     18  C   UNL     1       1.419  -2.575  -2.290  0.00  0.00    +0.229 C 
BRANCH  18  19
ATOM     19  C   UNL     1       0.760  -2.172  -0.970  0.00  0.00    +0.041 C 
BRANCH  19  20
ATOM     20  C   UNL     1       0.710  -0.646  -0.870  0.00  0.00    +0.003 C 
BRANCH  20  22
ATOM     21  C   UNL     1       0.001   1.283   0.551  0.00  0.00    +0.004 C 
ATOM     22  C   UNL     1       0.051  -0.243   0.451  0.00  0.00    -0.003 C 
ENDBRANCH  20  22
ENDBRANCH  19  20
ENDBRANCH  18  19
ENDBRANCH  17  18
ENDBRANCH  11  17
ENDBRANCH   1  16
BRANCH   9  23
ATOM     23  N   UNL     1       3.842  -9.712  -1.915  0.00  0.00    -0.328 N 
ATOM     24  H   UNL     1       3.943 -10.644  -2.166  0.00  0.00    +0.145 HD
ATOM     25  H   UNL     1       4.474  -9.304  -1.303  0.00  0.00    +0.145 HD
ENDBRANCH   9  23
BRANCH  10  26
ATOM     26  C   UNL     1       3.639  -7.112  -1.160  0.00  0.00    +0.101 C 
ATOM     27  N   UNL     1       4.397  -6.664  -0.443  0.00  0.00    -0.191 NA
ENDBRANCH  10  26
BRANCH   5  28
ATOM     28  O   UNL     1      -2.547 -10.005  -4.750  0.00  0.00    -0.423 OA
BRANCH  28  29
ATOM     29  C   UNL     1      -3.055 -10.985  -3.985  0.00  0.00    +0.350 C 
ATOM     30  O   UNL     1      -2.700 -11.099  -2.836  0.00  0.00    -0.247 OA
BRANCH  29  31
ATOM     31  C   UNL     1      -4.067 -11.941  -4.560  0.00  0.00    +0.349 C 
BRANCH  31  32
ATOM     32  O   UNL     1      -4.453 -12.885  -3.559  0.00  0.00    -0.481 OA
BRANCH  32  33
ATOM     33  C   UNL     1      -5.367 -13.825  -3.917  0.00  0.00    +0.124 A 
ATOM     34  C   UNL     1      -5.877 -13.843  -5.207  0.00  0.00    +0.046 A 
ATOM     35  C   UNL     1      -6.806 -14.799  -5.568  0.00  0.00    +0.004 A 
ATOM     36  C   UNL     1      -7.226 -15.740  -4.645  0.00  0.00    +0.004 A 
ATOM     37  C   UNL     1      -6.719 -15.724  -3.359  0.00  0.00    -0.044 A 
ATOM     38  C   UNL     1      -5.786 -14.773  -2.994  0.00  0.00    -0.006 A 
ATOM     39  C   UNL     1      -5.229 -14.760  -1.594  0.00  0.00    +0.048 C 
ATOM     40  C   UNL     1      -7.180 -16.750  -2.356  0.00  0.00    +0.044 C 
ENDBRANCH  32  33
ENDBRANCH  31  32
ENDBRANCH  29  31
ENDBRANCH  28  29
ENDBRANCH   5  28
TORSDOF 13
