REMARK  Name = ZINC38670096
REMARK  10 active torsions:
REMARK  status: ('A' for Active; 'I' for Inactive)
REMARK    1  A    between atoms: C_1  and  C_2
REMARK    2  A    between atoms: C_9  and  S_12
REMARK    3  A    between atoms: S_12  and  N_15
REMARK    4  A    between atoms: N_15  and  C_16
REMARK    5  A    between atoms: C_16  and  C_17
REMARK    6  A    between atoms: C_17  and  C_19
REMARK    7  A    between atoms: C_17  and  N_29
REMARK    8  A    between atoms: N_27  and  C_28
REMARK    9  A    between atoms: N_29  and  C_30
REMARK   10  A    between atoms: N_29  and  C_31
REMARK                            x       y       z     vdW  Elec       q    Type
REMARK                         _______ _______ _______ _____ _____    ______ ____
ROOT
ATOM      1  N   UNL     1       0.629   1.450   3.367  0.00  0.00    -0.191 NA
ATOM      2  H   UNL     1       0.752   2.239   3.919  0.00  0.00    +0.148 HD
ENDROOT
BRANCH   1   3
ATOM      3  S   UNL     1      -0.824   1.179   2.622  0.00  0.00    +0.060 S 
ATOM      4  O   UNL     1      -0.535   0.881   1.263  0.00  0.00    -0.153 OA
ATOM      5  O   UNL     1      -1.681   2.248   3.001  0.00  0.00    -0.153 OA
BRANCH   3  14
ATOM      6  C   UNL     1       2.155  -2.805   1.466  0.00  0.00    +0.065 C 
ATOM      7  C   UNL     1       0.880  -2.761   2.267  0.00  0.00    +0.039 A 
ATOM      8  C   UNL     1       0.376  -3.943   2.804  0.00  0.00    +0.023 A 
ATOM      9  C   UNL     1      -0.779  -3.923   3.533  0.00  0.00    +0.012 A 
ATOM     10  C   UNL     1      -1.427  -2.686   3.717  0.00  0.00    +0.002 A 
ATOM     11  C   UNL     1      -2.617  -2.587   4.455  0.00  0.00    +0.010 A 
ATOM     12  C   UNL     1      -3.213  -1.373   4.610  0.00  0.00    +0.003 A 
ATOM     13  C   UNL     1      -2.657  -0.226   4.046  0.00  0.00    +0.031 A 
ATOM     14  C   UNL     1      -1.505  -0.286   3.325  0.00  0.00    +0.131 A 
ATOM     15  C   UNL     1      -0.860  -1.522   3.143  0.00  0.00    +0.098 A 
ATOM     16  N   UNL     1       0.277  -1.611   2.444  0.00  0.00    -0.250 NA
ENDBRANCH   3  14
ENDBRANCH   1   3
BRANCH   1  17
ATOM     17  C   UNL     1       1.730   0.500   3.193  0.00  0.00    +0.095 C 
BRANCH  17  18
ATOM     18  C   UNL     1       3.047   1.164   3.602  0.00  0.00    -0.023 C 
BRANCH  18  19
ATOM     19  C   UNL     1       3.359   2.289   2.649  0.00  0.00    -0.059 A 
ATOM     20  C   UNL     1       3.916   2.015   1.412  0.00  0.00    +0.004 A 
ATOM     21  C   UNL     1       4.203   3.042   0.539  0.00  0.00    +0.023 A 
ATOM     22  C   UNL     1       3.935   4.366   0.894  0.00  0.00    +0.033 A 
ATOM     23  C   UNL     1       3.377   4.628   2.136  0.00  0.00    -0.025 A 
ATOM     24  C   UNL     1       3.085   3.596   3.006  0.00  0.00    +0.007 A 
ATOM     25  C   UNL     1       3.187   6.123   2.271  0.00  0.00    +0.056 C 
ATOM     26  C   UNL     1       3.709   6.700   0.945  0.00  0.00    +0.109 C 
ATOM     27  N   UNL     1       4.146   5.538   0.166  0.00  0.00    -0.332 N 
ATOM     28  C   UNL     1       4.722   5.597  -1.179  0.00  0.00    +0.129 C 
ENDBRANCH  18  19
BRANCH  18  29
ATOM     29  N   UNL     1       4.129   0.172   3.560  0.00  0.00    +0.381 N 
ATOM     30  C   UNL     1       5.404   0.823   3.890  0.00  0.00    -0.096 C 
ATOM     31  C   UNL     1       3.856  -0.893   4.535  0.00  0.00    -0.096 C 
ATOM     32  H   UNL     1       4.185  -0.226   2.634  0.00  0.00    -0.082 HD
ENDBRANCH  18  29
ENDBRANCH  17  18
ENDBRANCH   1  17
TORSDOF 6
