REMARK  Name = ZINC43726723
REMARK  6 active torsions:
REMARK  status: ('A' for Active; 'I' for Inactive)
REMARK    1  A    between atoms: C_1  and  C_2
REMARK    2  A    between atoms: C_5  and  S_8
REMARK    3  A    between atoms: S_8  and  O_11
REMARK    4  A    between atoms: O_11  and  C_12
REMARK    5  A    between atoms: C_18  and  C_36
REMARK    6  A    between atoms: C_29  and  C_35
REMARK                            x       y       z     vdW  Elec       q    Type
REMARK                         _______ _______ _______ _____ _____    ______ ____
ROOT
ATOM      1  C   UNL     1       2.183  -4.809   1.225  0.00  0.00    +0.156 C 
ATOM      2  C   UNL     1       2.221  -6.154   1.983  0.00  0.00    +0.035 C 
ATOM      3  C   UNL     1       3.585  -6.211   2.702  0.00  0.00    +0.007 C 
ATOM      4  C   UNL     1       4.300  -4.899   2.354  0.00  0.00    +0.001 C 
ATOM      5  C   UNL     1       3.683  -4.451   1.015  0.00  0.00    -0.000 C 
ATOM      6  C   UNL     1       4.188  -5.333  -0.130  0.00  0.00    +0.010 C 
ATOM      7  C   UNL     1       5.714  -5.342  -0.168  0.00  0.00    +0.005 C 
ATOM      8  C   UNL     1       6.235  -5.945   1.141  0.00  0.00    -0.001 C 
ATOM      9  C   UNL     1       5.801  -5.055   2.286  0.00  0.00    -0.004 C 
ATOM     10  C   UNL     1       6.333  -5.643   3.596  0.00  0.00    +0.004 C 
ATOM     11  C   UNL     1       7.859  -5.712   3.536  0.00  0.00    +0.005 C 
ATOM     12  C   UNL     1       8.291  -6.606   2.370  0.00  0.00    +0.002 C 
ATOM     13  C   UNL     1       7.763  -6.034   1.081  0.00  0.00    -0.025 C 
ATOM     14  C   UNL     1       8.157  -6.955  -0.077  0.00  0.00    +0.015 C 
ATOM     15  C   UNL     1       9.682  -6.990  -0.209  0.00  0.00    +0.075 C 
ATOM     16  C   UNL     1      10.266  -7.396   1.126  0.00  0.00    +0.134 C 
ATOM     17  O   UNL     1      11.058  -8.304   1.208  0.00  0.00    -0.297 OA
ATOM     18  C   UNL     1       9.823  -6.638   2.321  0.00  0.00    +0.078 C 
ATOM     19  C   UNL     1       8.346  -4.639   0.846  0.00  0.00    +0.012 C 
ATOM     20  C   UNL     1       3.895  -2.960   0.746  0.00  0.00    +0.014 C 
ENDROOT
BRANCH   1  21
ATOM     21  O   UNL     1       1.522  -4.962  -0.033  0.00  0.00    -0.230 OA
BRANCH  21  22
ATOM     22  S   UNL     1       0.063  -4.530  -0.023  0.00  0.00    +0.112 S 
ATOM     23  O   UNL     1      -0.476  -4.950   1.223  0.00  0.00    -0.142 OA
ATOM     24  O   UNL     1      -0.490  -4.937  -1.267  0.00  0.00    -0.142 OA
BRANCH  22  29
ATOM     25  C   UNL     1      -0.018   1.503   0.010  0.00  0.00    +0.044 C 
ATOM     26  C   UNL     1       0.002  -0.004   0.002  0.00  0.00    -0.050 A 
ATOM     27  C   UNL     1       0.006  -0.689  -1.199  0.00  0.00    +0.005 A 
ATOM     28  C   UNL     1       0.025  -2.071  -1.206  0.00  0.00    +0.030 A 
ATOM     29  C   UNL     1       0.040  -2.768  -0.013  0.00  0.00    +0.117 A 
ATOM     30  C   UNL     1       0.037  -2.084   1.188  0.00  0.00    +0.030 A 
ATOM     31  C   UNL     1       0.023  -0.702   1.195  0.00  0.00    +0.005 A 
ENDBRANCH  22  29
ENDBRANCH  21  22
ENDBRANCH   1  21
TORSDOF 3
