REMARK  Name = ZINC34748220
REMARK  7 active torsions:
REMARK  status: ('A' for Active; 'I' for Inactive)
REMARK    1  A    between atoms: C_1  and  C_2
REMARK    2  A    between atoms: C_2  and  C_3
REMARK    3  A    between atoms: C_3  and  C_4
REMARK    4  A    between atoms: C_4  and  N_5
REMARK    5  A    between atoms: N_18  and  C_21
REMARK    6  A    between atoms: C_21  and  C_22
REMARK    7  A    between atoms: N_24  and  C_25
REMARK                            x       y       z     vdW  Elec       q    Type
REMARK                         _______ _______ _______ _____ _____    ______ ____
ROOT
ATOM      1  N   UNL     1       1.613  -1.725   3.779  0.00  0.00    -0.280 N 
ATOM      2  C   UNL     1       2.947  -1.872   3.671  0.00  0.00    +0.264 A 
ATOM      3  O   UNL     1       3.687  -0.909   3.779  0.00  0.00    -0.267 OA
ATOM      4  C   UNL     1       3.483  -3.176   3.428  0.00  0.00    +0.076 A 
ATOM      5  C   UNL     1       4.896  -3.562   3.278  0.00  0.00    -0.023 A 
ATOM      6  C   UNL     1       5.150  -4.861   3.053  0.00  0.00    -0.004 A 
ATOM      7  S   UNL     1       3.554  -5.645   3.030  0.00  0.00    -0.073 S 
ATOM      8  C   UNL     1       2.547  -4.215   3.321  0.00  0.00    +0.117 A 
ATOM      9  N   UNL     1       1.240  -4.003   3.436  0.00  0.00    -0.208 NA
ATOM     10  C   UNL     1       0.773  -2.793   3.666  0.00  0.00    +0.202 A 
ATOM     11  N   UNL     1      -0.582  -2.603   3.787  0.00  0.00    -0.304 N 
ATOM     12  C   UNL     1      -1.409  -2.284   2.613  0.00  0.00    +0.089 C 
ATOM     13  C   UNL     1      -2.603  -3.243   2.585  0.00  0.00    -0.059 C 
ATOM     14  N   UNL     1      -3.317  -3.171   3.866  0.00  0.00    +0.387 N 
ATOM     15  C   UNL     1      -2.449  -3.652   4.949  0.00  0.00    -0.059 C 
ATOM     16  C   UNL     1      -1.248  -2.719   5.093  0.00  0.00    +0.089 C 
ATOM     17  C   UNL     1       6.623  -5.136   2.911  0.00  0.00    +0.043 C 
ATOM     18  C   UNL     1       7.252  -3.750   2.649  0.00  0.00    +0.010 C 
ATOM     19  C   UNL     1       6.229  -2.810   3.318  0.00  0.00    +0.037 C 
ATOM     20  H   UNL     1      -3.582  -2.215   4.049  0.00  0.00    -0.081 HD
ENDROOT
BRANCH   1  21
ATOM     21  C   UNL     1       1.055  -0.394   4.028  0.00  0.00    +0.128 C 
BRANCH  21  22
ATOM     22  C   UNL     1       1.077  -0.105   5.530  0.00  0.00    +0.021 C 
BRANCH  22  24
ATOM     23  C   UNL     1       0.516   1.575   7.293  0.00  0.00    +0.004 C 
ATOM     24  C   UNL     1       0.494   1.286   5.791  0.00  0.00    -0.002 C 
ENDBRANCH  22  24
ENDBRANCH  21  22
ENDBRANCH   1  21
BRANCH  14  25
ATOM     25  C   UNL     1      -4.523  -4.007   3.800  0.00  0.00    +0.019 C 
BRANCH  25  26
ATOM     26  C   UNL     1      -5.320  -3.839   5.068  0.00  0.00    +0.197 C 
ATOM     27  O   UNL     1      -4.923  -3.097   5.941  0.00  0.00    -0.278 OA
ATOM     28  N   UNL     1      -6.475  -4.514   5.232  0.00  0.00    -0.314 N 
ATOM     29  H   UNL     1      -6.793  -5.108   4.534  0.00  0.00    +0.149 HD
BRANCH  28  30
ATOM     30  C   UNL     1      -7.250  -4.351   6.465  0.00  0.00    +0.073 C 
ATOM     31  C   UNL     1      -6.713  -5.303   7.535  0.00  0.00    +0.022 C 
ATOM     32  C   UNL     1      -7.522  -5.133   8.822  0.00  0.00    +0.002 C 
ATOM     33  C   UNL     1      -8.992  -5.454   8.546  0.00  0.00    +0.000 C 
ATOM     34  C   UNL     1      -9.530  -4.502   7.476  0.00  0.00    +0.002 C 
ATOM     35  C   UNL     1      -8.721  -4.673   6.189  0.00  0.00    +0.022 C 
ENDBRANCH  28  30
ENDBRANCH  25  26
ENDBRANCH  14  25
TORSDOF 6
