REMARK  Name = ZINC21131403
REMARK  9 active torsions:
REMARK  status: ('A' for Active; 'I' for Inactive)
REMARK    1  A    between atoms: C_1  and  C_2
REMARK    2  A    between atoms: C_2  and  C_4
REMARK    3  A    between atoms: C_2  and  N_17
REMARK    4  A    between atoms: N_6  and  C_7
REMARK    5  A    between atoms: C_10  and  S_13
REMARK    6  A    between atoms: S_13  and  N_16
REMARK    7  A    between atoms: N_20  and  S_23
REMARK    8  A    between atoms: S_23  and  C_26
REMARK    9  A    between atoms: C_31  and  N_32
REMARK                            x       y       z     vdW  Elec       q    Type
REMARK                         _______ _______ _______ _____ _____    ______ ____
ROOT
ATOM      1  N   UNL     1      -0.818  -0.796   0.015  0.00  0.00    +0.389 N 
ATOM      2  C   UNL     1      -0.961  -2.251   0.162  0.00  0.00    -0.060 C 
ATOM      3  C   UNL     1      -2.433  -2.593   0.415  0.00  0.00    +0.091 C 
ATOM      4  N   UNL     1      -3.244  -1.993  -0.656  0.00  0.00    -0.180 NA
ATOM      5  C   UNL     1      -3.055  -0.565  -0.955  0.00  0.00    +0.091 C 
ATOM      6  C   UNL     1      -1.559  -0.303  -1.154  0.00  0.00    -0.060 C 
ATOM      7  H   UNL     1      -1.253  -0.325   0.909  0.00  0.00    -0.081 HD
ENDROOT
BRANCH   4   8
ATOM      8  S   UNL     1      -4.340  -2.901  -1.502  0.00  0.00    +0.063 S 
ATOM      9  O   UNL     1      -4.790  -3.921  -0.621  0.00  0.00    -0.153 OA
ATOM     10  O   UNL     1      -5.230  -1.986  -2.126  0.00  0.00    -0.153 OA
BRANCH   8  11
ATOM     11  C   UNL     1      -3.458  -3.708  -2.797  0.00  0.00    +0.136 A 
ATOM     12  C   UNL     1      -2.168  -3.316  -3.104  0.00  0.00    +0.031 A 
ATOM     13  C   UNL     1      -1.475  -3.952  -4.117  0.00  0.00    +0.002 A 
ATOM     14  C   UNL     1      -2.074  -4.974  -4.829  0.00  0.00    +0.002 A 
ATOM     15  C   UNL     1      -3.365  -5.363  -4.524  0.00  0.00    +0.035 A 
ATOM     16  C   UNL     1      -4.057  -4.730  -3.509  0.00  0.00    +0.152 A 
BRANCH  16  17
ATOM     17  N   UNL     1      -5.440  -5.147  -3.183  0.00  0.00    +0.058 N 
ATOM     18  O   UNL     1      -5.920  -6.131  -3.716  0.00  0.00    -0.126 OA
ATOM     19  O   UNL     1      -6.097  -4.505  -2.383  0.00  0.00    -0.126 OA
ENDBRANCH  16  17
ENDBRANCH   8  11
ENDBRANCH   4   8
BRANCH   1  21
ATOM     20  C   UNL     1       1.147  -0.748  -1.446  0.00  0.00    -0.004 C 
ATOM     21  C   UNL     1       0.598  -0.411  -0.058  0.00  0.00    +0.017 C 
BRANCH  21  22
ATOM     22  C   UNL     1       0.729   1.070   0.188  0.00  0.00    +0.203 C 
ATOM     23  O   UNL     1      -0.265   1.758   0.290  0.00  0.00    -0.277 OA
ATOM     24  N   UNL     1       1.950   1.629   0.296  0.00  0.00    -0.287 N 
ATOM     25  H   UNL     1       2.851   1.020   0.129  0.00  0.00    +0.155 HD
BRANCH  24  26
ATOM     26  C   UNL     1       2.073   2.985   0.622  0.00  0.00    +0.033 A 
ATOM     27  C   UNL     1       1.143   3.901   0.147  0.00  0.00    +0.025 A 
ATOM     28  C   UNL     1       1.264   5.237   0.474  0.00  0.00    +0.030 A 
ATOM     29  C   UNL     1       2.315   5.665   1.264  0.00  0.00    +0.105 A 
ATOM     30  C   UNL     1       3.245   4.756   1.734  0.00  0.00    +0.030 A 
ATOM     31  C   UNL     1       3.127   3.417   1.415  0.00  0.00    +0.025 A 
BRANCH  29  32
ATOM     32  S   UNL     1       2.469   7.372   1.674  0.00  0.00    +0.056 S 
ATOM     33  O   UNL     1       1.168   7.934   1.565  0.00  0.00    -0.153 OA
ATOM     34  O   UNL     1       3.227   7.434   2.874  0.00  0.00    -0.153 OA
BRANCH  32  35
ATOM     35  N   UNL     1       3.391   8.078   0.494  0.00  0.00    -0.204 NA
ATOM     36  H   UNL     1       3.511   9.149   0.714  0.00  0.00    +0.144 HD
ATOM     37  H   UNL     1       2.894   7.957  -0.480  0.00  0.00    +0.144 HD
ENDBRANCH  32  35
ENDBRANCH  29  32
ENDBRANCH  24  26
ENDBRANCH  21  22
ENDBRANCH   1  21
TORSDOF 8
