REMARK  Name = ZINC24137587
REMARK  9 active torsions:
REMARK  status: ('A' for Active; 'I' for Inactive)
REMARK    1  A    between atoms: C_1  and  C_2
REMARK    2  A    between atoms: C_2  and  C_3
REMARK    3  A    between atoms: C_3  and  C_31
REMARK    4  A    between atoms: N_6  and  N_10
REMARK    5  A    between atoms: C_11  and  C_13
REMARK    6  A    between atoms: C_13  and  S_14
REMARK    7  A    between atoms: S_14  and  C_15
REMARK    8  A    between atoms: N_23  and  C_24
REMARK    9  A    between atoms: C_28  and  C_30
REMARK                            x       y       z     vdW  Elec       q    Type
REMARK                         _______ _______ _______ _____ _____    ______ ____
ROOT
ATOM      1  S   UNL     1      -2.068  -0.072  -2.508  0.00  0.00    -0.078 S 
ENDROOT
BRANCH   1   2
ATOM      2  C   UNL     1      -2.898   0.235  -0.984  0.00  0.00    +0.175 A 
ATOM      3  N   UNL     1      -4.054  -0.276  -0.640  0.00  0.00    -0.222 NA
ATOM      4  C   UNL     1      -4.404   0.173   0.595  0.00  0.00    +0.091 A 
ATOM      5  C   UNL     1      -5.512  -0.046   1.417  0.00  0.00    +0.030 A 
ATOM      6  C   UNL     1      -5.582   0.566   2.648  0.00  0.00    +0.002 A 
ATOM      7  C   UNL     1      -4.561   1.401   3.078  0.00  0.00    +0.002 A 
ATOM      8  C   UNL     1      -3.460   1.629   2.277  0.00  0.00    +0.028 A 
ATOM      9  C   UNL     1      -3.373   1.020   1.035  0.00  0.00    +0.074 A 
ATOM     10  N   UNL     1      -2.429   1.039   0.019  0.00  0.00    -0.287 N 
BRANCH  10  11
ATOM     11  C   UNL     1      -1.224   1.754   0.017  0.00  0.00    +0.049 A 
ATOM     12  C   UNL     1      -1.238   3.143   0.029  0.00  0.00    +0.026 A 
ATOM     13  C   UNL     1      -0.049   3.845   0.022  0.00  0.00    +0.002 A 
ATOM     14  C   UNL     1       1.156   3.166   0.007  0.00  0.00    +0.003 A 
ATOM     15  C   UNL     1       1.174   1.783   0.000  0.00  0.00    -0.048 A 
ATOM     16  C   UNL     1      -0.013   1.076   0.008  0.00  0.00    +0.029 A 
ATOM     17  C   UNL     1       2.489   1.048  -0.016  0.00  0.00    +0.044 C 
ENDBRANCH  10  11
ENDBRANCH   1   2
BRANCH   1  18
ATOM     18  C   UNL     1      -3.256  -1.190  -3.293  0.00  0.00    +0.174 C 
BRANCH  18  20
ATOM     19  N   UNL     1      -3.465  -2.431  -5.422  0.00  0.00    -0.223 N 
ATOM     20  C   UNL     1      -2.742  -1.597  -4.650  0.00  0.00    +0.240 C 
ATOM     21  O   UNL     1      -1.677  -1.173  -5.047  0.00  0.00    -0.273 OA
ATOM     22  H   UNL     1      -4.431  -2.816  -5.062  0.00  0.00    +0.174 HD
BRANCH  19  26
ATOM     23  C   UNL     1      -2.659  -3.014  -8.935  0.00  0.00    +0.111 C 
ATOM     24  C   UNL     1      -3.470  -2.335  -7.849  0.00  0.00    +0.263 C 
ATOM     25  O   UNL     1      -4.365  -1.532  -7.998  0.00  0.00    -0.271 OA
ATOM     26  N   UNL     1      -2.987  -2.810  -6.683  0.00  0.00    -0.137 N 
ATOM     27  C   UNL     1      -2.000  -3.690  -6.880  0.00  0.00    +0.326 C 
ATOM     28  O   UNL     1      -1.411  -4.257  -5.980  0.00  0.00    -0.251 OA
ATOM     29  N   UNL     1      -1.732  -3.879  -8.185  0.00  0.00    -0.284 N 
ATOM     30  C   UNL     1      -3.568  -3.853  -9.835  0.00  0.00    +0.041 C 
ATOM     31  H   UNL     1      -1.008  -4.508  -8.724  0.00  0.00    +0.151 HD
BRANCH  23  33
ATOM     32  C   UNL     1      -1.000  -2.711 -10.778  0.00  0.00    +0.006 C 
ATOM     33  C   UNL     1      -1.885  -1.986  -9.762  0.00  0.00    +0.032 C 
ENDBRANCH  23  33
ENDBRANCH  19  26
ENDBRANCH  18  20
ENDBRANCH   1  18
TORSDOF 6
