REMARK  Name = ZINC02239757
REMARK  5 active torsions:
REMARK  status: ('A' for Active; 'I' for Inactive)
REMARK    1  A    between atoms: C_1  and  C_2
REMARK    2  A    between atoms: C_5  and  C_11
REMARK    3  A    between atoms: C_6  and  N_8
REMARK    4  A    between atoms: C_26  and  C_27
REMARK    5  A    between atoms: C_26  and  C_28
REMARK                            x       y       z     vdW  Elec       q    Type
REMARK                         _______ _______ _______ _____ _____    ______ ____
ROOT
ATOM      1  C   UNL     1       3.958   4.247   2.029  0.00  0.00    +0.254 C 
ATOM      2  O   UNL     1       3.529   5.278   2.509  0.00  0.00    -0.270 OA
ATOM      3  N   UNL     1       3.294   3.643   1.024  0.00  0.00    -0.257 N 
ATOM      4  C   UNL     1       3.839   2.534   0.398  0.00  0.00    +0.045 A 
ATOM      5  C   UNL     1       5.216   2.387   0.285  0.00  0.00    +0.024 A 
ATOM      6  C   UNL     1       5.734   1.244  -0.293  0.00  0.00    +0.002 A 
ATOM      7  C   UNL     1       4.900   0.232  -0.757  0.00  0.00    +0.001 A 
ATOM      8  C   UNL     1       3.541   0.357  -0.666  0.00  0.00    +0.010 A 
ATOM      9  C   UNL     1       2.999   1.521  -0.114  0.00  0.00    +0.006 A 
ATOM     10  C   UNL     1       1.520   1.708  -0.032  0.00  0.00    +0.017 A 
ATOM     11  C   UNL     1       1.069   2.989   0.322  0.00  0.00    +0.029 A 
ATOM     12  S   UNL     1      -0.658   3.070   0.396  0.00  0.00    -0.053 S 
ATOM     13  S   UNL     1      -1.059   1.088  -0.132  0.00  0.00    -0.044 S 
ATOM     14  C   UNL     1       0.637   0.565  -0.327  0.00  0.00    +0.071 A 
ATOM     15  S   UNL     1       1.151  -1.003  -0.782  0.00  0.00    -0.043 S 
ATOM     16  C   UNL     1       1.990   4.160   0.588  0.00  0.00    +0.069 C 
ATOM     17  C   UNL     1       1.395   5.042   1.688  0.00  0.00    +0.037 C 
ATOM     18  C   UNL     1       2.164   4.981  -0.691  0.00  0.00    +0.037 C 
ENDROOT
BRANCH   1  23
ATOM     19  C   UNL     1       8.827   1.942   4.053  0.00  0.00    +0.044 C 
ATOM     20  C   UNL     1       7.552   2.545   3.522  0.00  0.00    -0.048 A 
ATOM     21  C   UNL     1       6.364   1.843   3.623  0.00  0.00    +0.004 A 
ATOM     22  C   UNL     1       5.192   2.392   3.145  0.00  0.00    +0.015 A 
ATOM     23  C   UNL     1       5.209   3.655   2.549  0.00  0.00    +0.067 A 
ATOM     24  C   UNL     1       6.411   4.357   2.450  0.00  0.00    +0.139 A 
ATOM     25  C   UNL     1       7.575   3.799   2.937  0.00  0.00    +0.036 A 
BRANCH  24  26
ATOM     26  N   UNL     1       6.437   5.698   1.824  0.00  0.00    +0.057 N 
ATOM     27  O   UNL     1       7.544   6.411   1.841  0.00  0.00    -0.126 OA
ATOM     28  O   UNL     1       5.354   6.178   1.250  0.00  0.00    -0.126 OA
ENDBRANCH  24  26
ENDBRANCH   1  23
TORSDOF 2
