REMARK  Name = ZINC63562727
REMARK  7 active torsions:
REMARK  status: ('A' for Active; 'I' for Inactive)
REMARK    1  A    between atoms: C_1  and  S_2
REMARK    2  A    between atoms: S_2  and  C_3
REMARK    3  A    between atoms: C_8  and  N_9
REMARK    4  A    between atoms: C_10  and  C_12
REMARK    5  A    between atoms: C_12  and  S_13
REMARK    6  A    between atoms: S_13  and  C_14
REMARK    7  A    between atoms: C_20  and  N_24
REMARK                            x       y       z     vdW  Elec       q    Type
REMARK                         _______ _______ _______ _____ _____    ______ ____
ROOT
ATOM      1  S   UNL     1       0.424  -6.758  -1.303  0.00  0.00    -0.106 S 
ENDROOT
BRANCH   1   2
ATOM      2  C   UNL     1      -0.350  -7.949  -0.174  0.00  0.00    +0.236 C 
ATOM      3  N   UNL     1      -1.777  -7.640  -0.016  0.00  0.00    -0.355 N 
ATOM      4  C   UNL     1      -1.983  -7.383   1.244  0.00  0.00    +0.061 A 
ATOM      5  C   UNL     1      -3.185  -7.015   2.004  0.00  0.00    +0.029 A 
ATOM      6  C   UNL     1      -3.094  -6.806   3.333  0.00  0.00    +0.035 A 
ATOM      7  C   UNL     1      -1.882  -6.925   4.037  0.00  0.00    +0.128 A 
ATOM      8  C   UNL     1      -0.722  -7.257   3.437  0.00  0.00    +0.060 A 
ATOM      9  C   UNL     1      -0.701  -7.509   1.989  0.00  0.00    +0.063 A 
ATOM     10  N   UNL     1       0.249  -7.840   1.162  0.00  0.00    -0.355 N 
ATOM     11  H   UNL     1       1.182  -7.987   1.386  0.00  0.00    +0.162 HD
ATOM     12  H   UNL     1      -2.443  -7.628  -0.720  0.00  0.00    +0.162 HD
BRANCH   7  13
ATOM     13  N   UNL     1      -1.881  -6.675   5.496  0.00  0.00    +0.056 N 
ATOM     14  O   UNL     1      -2.909  -6.375   6.059  0.00  0.00    -0.126 OA
ATOM     15  O   UNL     1      -0.853  -6.771   6.125  0.00  0.00    -0.126 OA
ENDBRANCH   7  13
ENDBRANCH   1   2
BRANCH   1  16
ATOM     16  C   UNL     1       0.107  -5.149  -0.528  0.00  0.00    +0.169 C 
BRANCH  16  18
ATOM     17  N   UNL     1       0.593  -2.769  -0.995  0.00  0.00    -0.284 N 
ATOM     18  C   UNL     1       0.706  -4.057  -1.376  0.00  0.00    +0.227 C 
ATOM     19  O   UNL     1       1.288  -4.336  -2.403  0.00  0.00    -0.275 OA
ATOM     20  H   UNL     1       0.199  -2.550  -0.136  0.00  0.00    +0.155 HD
BRANCH  17  26
ATOM     21  C   UNL     1       1.415  -0.511  -1.304  0.00  0.00    +0.029 A 
ATOM     22  C   UNL     1       1.868   0.496  -2.145  0.00  0.00    +0.016 A 
ATOM     23  C   UNL     1       1.949   0.275  -3.507  0.00  0.00    +0.001 A 
ATOM     24  C   UNL     1       1.578  -0.948  -4.036  0.00  0.00    +0.002 A 
ATOM     25  C   UNL     1       1.125  -1.956  -3.206  0.00  0.00    +0.024 A 
ATOM     26  C   UNL     1       1.047  -1.746  -1.838  0.00  0.00    +0.047 A 
BRANCH  21  28
ATOM     27  C   UNL     1       1.883   1.477   0.638  0.00  0.00    +0.090 C 
ATOM     28  S   UNL     1       1.312  -0.232   0.432  0.00  0.00    -0.127 S 
ENDBRANCH  21  28
ENDBRANCH  17  26
ENDBRANCH  16  18
ENDBRANCH   1  16
TORSDOF 6
