REMARK  Name = ZINC08386447
REMARK  4 active torsions:
REMARK  status: ('A' for Active; 'I' for Inactive)
REMARK    1  A    between atoms: N_15  and  N_16
REMARK    2  A    between atoms: C_17  and  C_18
REMARK    3  A    between atoms: C_21  and  O_26
REMARK    4  A    between atoms: C_23  and  O_24
REMARK                            x       y       z     vdW  Elec       q    Type
REMARK                         _______ _______ _______ _____ _____    ______ ____
ROOT
ATOM      1  C   UNL     1      -0.017   1.374   0.010  0.00  0.00    +0.001 A 
ATOM      2  C   UNL     1       1.171   2.088   0.002  0.00  0.00    +0.002 A 
ATOM      3  C   UNL     1       2.384   1.432  -0.013  0.00  0.00    +0.026 A 
ATOM      4  C   UNL     1       2.424   0.042  -0.021  0.00  0.00    +0.050 A 
ATOM      5  C   UNL     1       1.220  -0.680  -0.014  0.00  0.00    +0.029 A 
ATOM      6  C   UNL     1       0.002  -0.004   0.002  0.00  0.00    +0.012 A 
ATOM      7  C   UNL     1       1.591  -2.105  -0.025  0.00  0.00    +0.137 A 
ATOM      8  C   UNL     1       3.000  -2.148  -0.040  0.00  0.00    +0.163 A 
ATOM      9  N   UNL     1       3.475  -0.860  -0.037  0.00  0.00    -0.338 N 
ATOM     10  H   UNL     1       4.414  -0.616  -0.045  0.00  0.00    +0.167 HD
ATOM     11  N   UNL     1       3.596  -3.337  -0.052  0.00  0.00    -0.192 NA
ATOM     12  C   UNL     1       2.852  -4.435  -0.051  0.00  0.00    +0.256 A 
ATOM     13  N   UNL     1       1.524  -4.369  -0.037  0.00  0.00    -0.111 NA
ATOM     14  N   UNL     1       0.905  -3.239  -0.026  0.00  0.00    -0.142 NA
ATOM     15  N   UNL     1       3.469  -5.674  -0.064  0.00  0.00    -0.204 N 
ATOM     16  H   UNL     1       4.438  -5.732  -0.074  0.00  0.00    +0.177 HD
ENDROOT
BRANCH  15  17
ATOM     17  N   UNL     1       2.696  -6.842  -0.062  0.00  0.00    -0.187 NA
ATOM     18  C   UNL     1       3.276  -8.004  -0.075  0.00  0.00    +0.142 C 
BRANCH  18  19
ATOM     19  C   UNL     1       2.463  -9.233  -0.074  0.00  0.00    +0.038 A 
ATOM     20  C   UNL     1       3.084 -10.484  -0.081  0.00  0.00    +0.032 A 
ATOM     21  C   UNL     1       2.321 -11.632  -0.080  0.00  0.00    +0.061 A 
ATOM     22  C   UNL     1       0.933 -11.549  -0.072  0.00  0.00    +0.148 A 
ATOM     23  C   UNL     1       0.307 -10.310  -0.065  0.00  0.00    +0.102 A 
ATOM     24  C   UNL     1       1.064  -9.151  -0.059  0.00  0.00    +0.143 A 
ATOM     25 BR   UNL     1      -1.581 -10.206  -0.055  0.00  0.00    -0.043 Br
ATOM     26 BR   UNL     1       3.163 -13.325  -0.090  0.00  0.00    -0.046 Br
BRANCH  24  27
ATOM     27  O   UNL     1       0.453  -7.938  -0.045  0.00  0.00    -0.505 OA
ATOM     28  H   UNL     1       0.267  -7.581  -0.925  0.00  0.00    +0.292 HD
ENDBRANCH  24  27
BRANCH  22  29
ATOM     29  O   UNL     1       0.186 -12.684  -0.071  0.00  0.00    -0.504 OA
ATOM     30  H   UNL     1      -0.025 -13.015   0.813  0.00  0.00    +0.292 HD
ENDBRANCH  22  29
ENDBRANCH  18  19
ENDBRANCH  15  17
TORSDOF 4
