REMARK  Name = ZINC09313307
REMARK  14 active torsions:
REMARK  status: ('A' for Active; 'I' for Inactive)
REMARK    1  A    between atoms: C_1  and  C_2
REMARK    2  A    between atoms: C_2  and  N_70
REMARK    3  A    between atoms: C_3  and  C_4
REMARK    4  A    between atoms: C_3  and  N_70
REMARK    5  A    between atoms: C_5  and  C_6
REMARK    6  A    between atoms: C_5  and  N_70
REMARK    7  A    between atoms: C_6  and  N_7
REMARK    8  A    between atoms: C_8  and  C_28
REMARK    9  A    between atoms: C_11  and  C_12
REMARK   10  A    between atoms: C_11  and  O_23
REMARK   11  A    between atoms: C_19  and  C_22
REMARK   12  A    between atoms: C_31  and  N_34
REMARK   13  A    between atoms: N_34  and  C_35
REMARK   14  A    between atoms: N_34  and  C_36
REMARK                            x       y       z     vdW  Elec       q    Type
REMARK                         _______ _______ _______ _____ _____    ______ ____
ROOT
ATOM      1  N   UNL     1       0.595  -3.934  -4.191  0.00  0.00    -0.285 N 
ATOM      2  C   UNL     1      -0.177  -2.744  -4.562  0.00  0.00    +0.144 C 
ATOM      3  C   UNL     1      -1.575  -3.219  -4.885  0.00  0.00    +0.071 C 
ATOM      4  C   UNL     1      -2.644  -2.440  -5.284  0.00  0.00    +0.133 C 
ATOM      5  C   UNL     1      -1.568  -4.609  -4.698  0.00  0.00    +0.249 C 
ATOM      6  O   UNL     1      -2.516  -5.356  -4.860  0.00  0.00    -0.282 OA
ATOM      7  C   UNL     1      -0.203  -5.013  -4.267  0.00  0.00    +0.288 C 
ATOM      8  O   UNL     1       0.141  -6.150  -4.020  0.00  0.00    -0.266 OA
ENDROOT
BRANCH   4   9
ATOM      9  C   UNL     1      -3.913  -3.076  -5.670  0.00  0.00    +0.017 A 
ATOM     10  C   UNL     1      -3.921  -4.145  -6.575  0.00  0.00    +0.015 A 
ATOM     11  C   UNL     1      -5.107  -4.743  -6.927  0.00  0.00    +0.046 A 
ATOM     12  C   UNL     1      -6.315  -4.285  -6.397  0.00  0.00    +0.124 A 
ATOM     13  C   UNL     1      -6.303  -3.213  -5.508  0.00  0.00    -0.002 A 
ATOM     14  C   UNL     1      -5.125  -2.613  -5.141  0.00  0.00    +0.019 A 
ATOM     15  C   UNL     1      -7.746  -2.934  -5.130  0.00  0.00    +0.083 C 
ATOM     16  C   UNL     1      -8.517  -3.713  -6.222  0.00  0.00    +0.175 C 
ATOM     17  O   UNL     1      -7.582  -4.734  -6.608  0.00  0.00    -0.488 OA
ATOM     18  C   UNL     1      -8.846  -2.803  -7.407  0.00  0.00    +0.052 C 
ENDBRANCH   4   9
BRANCH   2  19
ATOM     19  C   UNL     1      -0.214  -1.773  -3.410  0.00  0.00    -0.022 A 
ATOM     20  C   UNL     1      -0.123  -0.414  -3.650  0.00  0.00    +0.007 A 
ATOM     21  C   UNL     1      -0.157   0.478  -2.597  0.00  0.00    +0.023 A 
ATOM     22  C   UNL     1      -0.282   0.010  -1.296  0.00  0.00    +0.029 A 
ATOM     23  C   UNL     1      -0.369  -1.356  -1.058  0.00  0.00    +0.023 A 
ATOM     24  C   UNL     1      -0.340  -2.243  -2.116  0.00  0.00    +0.007 A 
BRANCH  22  25
ATOM     25  N   UNL     1      -0.316   0.910  -0.228  0.00  0.00    -0.336 N 
ATOM     26  C   UNL     1      -0.219   2.350  -0.480  0.00  0.00    +0.129 C 
ATOM     27  C   UNL     1      -0.449   0.414   1.144  0.00  0.00    +0.129 C 
ENDBRANCH  22  25
ENDBRANCH   2  19
BRANCH   4  28
ATOM     28  O   UNL     1      -2.524  -1.096  -5.319  0.00  0.00    -0.506 OA
ATOM     29  H   UNL     1      -3.386  -0.692  -5.628  0.00  0.00    +0.292 HD
ENDBRANCH   4  28
BRANCH   1  30
ATOM     30  C   UNL     1       2.006  -3.945  -3.800  0.00  0.00    +0.090 C 
BRANCH  30  31
ATOM     31  C   UNL     1       2.117  -3.765  -2.284  0.00  0.00    -0.060 C 
BRANCH  31  32
ATOM     32  N   UNL     1       3.545  -3.799  -1.903  0.00  0.00    +0.380 N 
ATOM     33  H   UNL     1       3.976  -4.642  -2.301  0.00  0.00    -0.082 HD
BRANCH  32  35
ATOM     34  C   UNL     1       3.658  -1.331  -1.823  0.00  0.00    -0.017 C 
ATOM     35  C   UNL     1       4.239  -2.607  -2.435  0.00  0.00    -0.082 C 
ENDBRANCH  32  35
BRANCH  32  36
ATOM     36  C   UNL     1       3.674  -3.844  -0.431  0.00  0.00    -0.082 C 
ATOM     37  C   UNL     1       5.110  -4.234  -0.075  0.00  0.00    -0.017 C 
ENDBRANCH  32  36
ENDBRANCH  31  32
ENDBRANCH  30  31
ENDBRANCH   1  30
TORSDOF 9
