REMARK  Name = ZINC36013991
REMARK  13 active torsions:
REMARK  status: ('A' for Active; 'I' for Inactive)
REMARK    1  A    between atoms: C_1  and  C_2
REMARK    2  A    between atoms: C_2  and  C_3
REMARK    3  A    between atoms: C_3  and  N_4
REMARK    4  A    between atoms: N_11  and  C_14
REMARK    5  A    between atoms: C_14  and  C_15
REMARK    6  A    between atoms: C_16  and  C_32
REMARK    7  A    between atoms: C_17  and  C_25
REMARK    8  A    between atoms: N_22  and  C_23
REMARK    9  A    between atoms: C_23  and  C_24
REMARK   10  A    between atoms: C_28  and  C_31
REMARK   11  A    between atoms: C_32  and  O_34
REMARK   12  A    between atoms: O_34  and  C_35
REMARK   13  A    between atoms: C_35  and  C_36
REMARK                            x       y       z     vdW  Elec       q    Type
REMARK                         _______ _______ _______ _____ _____    ______ ____
ROOT
ATOM      1  C   UNL     1       0.060  -6.955  -6.255  0.00  0.00    +0.010 C 
ATOM      2  C   UNL     1      -0.055  -8.175  -6.823  0.00  0.00    +0.076 C 
ATOM      3  C   UNL     1       0.815  -8.477  -8.026  0.00  0.00    +0.143 C 
ATOM      4  N   UNL     1       1.720  -7.409  -8.481  0.00  0.00    -0.288 N 
ATOM      5  C   UNL     1       1.722  -6.240  -7.810  0.00  0.00    +0.307 C 
ATOM      6  O   UNL     1       2.465  -5.352  -8.178  0.00  0.00    -0.252 OA
ATOM      7  N   UNL     1       0.927  -6.024  -6.754  0.00  0.00    -0.261 N 
ATOM      8  H   UNL     1       2.301  -7.543  -9.246  0.00  0.00    +0.151 HD
ENDROOT
BRANCH   3   9
ATOM      9  C   UNL     1      -0.091  -8.838  -9.175  0.00  0.00    -0.022 A 
ATOM     10  C   UNL     1      -0.715  -7.842  -9.902  0.00  0.00    +0.006 A 
ATOM     11  C   UNL     1      -1.547  -8.173 -10.956  0.00  0.00    +0.004 A 
ATOM     12  C   UNL     1      -1.754  -9.500 -11.283  0.00  0.00    -0.050 A 
ATOM     13  C   UNL     1      -1.129 -10.496 -10.556  0.00  0.00    +0.004 A 
ATOM     14  C   UNL     1      -0.294 -10.165  -9.505  0.00  0.00    +0.006 A 
ATOM     15  C   UNL     1      -2.661  -9.860 -12.431  0.00  0.00    +0.044 C 
ENDBRANCH   3   9
BRANCH   7  16
ATOM     16  C   UNL     1       0.996  -4.719  -6.092  0.00  0.00    +0.111 C 
ATOM     17  C   UNL     1       2.136  -4.724  -5.072  0.00  0.00    +0.025 C 
ENDBRANCH   7  16
BRANCH   2  18
ATOM     18  C   UNL     1      -0.956  -9.137  -6.311  0.00  0.00    +0.339 C 
ATOM     19  O   UNL     1      -1.735  -8.832  -5.427  0.00  0.00    -0.245 OA
BRANCH  18  20
ATOM     20  O   UNL     1      -0.951 -10.394  -6.802  0.00  0.00    -0.462 OA
BRANCH  20  21
ATOM     21  C   UNL     1      -1.888 -11.314  -6.238  0.00  0.00    +0.229 C 
ATOM     22  C   UNL     1      -1.735 -12.677  -6.916  0.00  0.00    +0.048 C 
ENDBRANCH  20  21
ENDBRANCH  18  20
ENDBRANCH   2  18
BRANCH   1  23
ATOM     23  C   UNL     1      -0.786  -6.612  -5.056  0.00  0.00    -0.026 C 
BRANCH  23  31
ATOM     24  N   UNL     1      -5.877  -7.565  -6.537  0.00  0.00    -0.299 N 
ATOM     25  C   UNL     1      -5.871  -6.429  -5.811  0.00  0.00    +0.302 C 
ATOM     26  O   UNL     1      -6.773  -6.204  -5.028  0.00  0.00    -0.253 OA
ATOM     27  N   UNL     1      -4.866  -5.543  -5.954  0.00  0.00    -0.287 N 
ATOM     28  C   UNL     1      -4.819  -4.369  -5.060  0.00  0.00    +0.107 C 
ATOM     29  C   UNL     1      -3.380  -4.086  -4.592  0.00  0.00    +0.000 C 
ATOM     30  C   UNL     1      -2.680  -5.394  -4.298  0.00  0.00    -0.077 C 
ATOM     31  N   UNL     1      -1.952  -5.829  -5.487  0.00  0.00    +0.384 N 
ATOM     32  C   UNL     1      -2.703  -6.610  -6.394  0.00  0.00    -0.059 C 
ATOM     33  C   UNL     1      -3.865  -5.781  -6.974  0.00  0.00    +0.091 C 
ATOM     34  H   UNL     1      -5.198  -7.712  -7.213  0.00  0.00    +0.150 HD
ATOM     35  H   UNL     1      -1.618  -5.010  -5.973  0.00  0.00    -0.081 HD
BRANCH  24  36
ATOM     36  C   UNL     1      -6.910  -8.577  -6.304  0.00  0.00    +0.105 C 
BRANCH  36  38
ATOM     37  C   UNL     1      -7.769 -10.815  -7.010  0.00  0.00    +0.005 C 
ATOM     38  C   UNL     1      -6.690  -9.758  -7.253  0.00  0.00    +0.015 C 
ENDBRANCH  36  38
ENDBRANCH  24  36
ENDBRANCH  23  31
ENDBRANCH   1  23
TORSDOF 9
