REMARK  Name = ZINC41020222
REMARK  8 active torsions:
REMARK  status: ('A' for Active; 'I' for Inactive)
REMARK    1  A    between atoms: C_4  and  C_7
REMARK    2  A    between atoms: C_10  and  C_12
REMARK    3  A    between atoms: C_12  and  C_13
REMARK    4  A    between atoms: C_13  and  C_14
REMARK    5  A    between atoms: N_16  and  C_17
REMARK    6  A    between atoms: C_17  and  C_18
REMARK    7  A    between atoms: C_18  and  C_20
REMARK    8  A    between atoms: C_18  and  N_27
REMARK                            x       y       z     vdW  Elec       q    Type
REMARK                         _______ _______ _______ _____ _____    ______ ____
ROOT
ATOM      1  C   UNL     1       8.386  -6.127   0.701  0.00  0.00    +0.213 C 
ATOM      2  O   UNL     1       7.297  -6.122   0.167  0.00  0.00    -0.276 OA
ATOM      3  N   UNL     1       8.541  -6.702   1.910  0.00  0.00    -0.317 N 
ATOM      4  H   UNL     1       9.412  -6.706   2.337  0.00  0.00    +0.149 HD
ENDROOT
BRANCH   1   5
ATOM      5  C   UNL     1       9.566  -5.491   0.012  0.00  0.00    +0.105 C 
BRANCH   5   6
ATOM      6  C   UNL     1       9.121  -4.917  -1.335  0.00  0.00    +0.105 C 
BRANCH   6  10
ATOM      7  C   UNL     1      11.773  -2.818  -2.668  0.00  0.00    +0.155 A 
ATOM      8  C   UNL     1      12.044  -4.011  -3.258  0.00  0.00    +0.161 A 
ATOM      9  N   UNL     1      11.118  -4.887  -2.839  0.00  0.00    -0.221 NA
ATOM     10  C   UNL     1      10.301  -4.281  -2.024  0.00  0.00    +0.197 A 
ATOM     11  O   UNL     1      10.682  -3.003  -1.893  0.00  0.00    -0.440 OA
BRANCH   7  15
ATOM     12  C   UNL     1      13.950   0.797  -3.152  0.00  0.00    +0.000 A 
ATOM     13  C   UNL     1      14.348  -0.343  -3.829  0.00  0.00    +0.001 A 
ATOM     14  C   UNL     1      13.646  -1.520  -3.676  0.00  0.00    +0.011 A 
ATOM     15  C   UNL     1      12.531  -1.560  -2.836  0.00  0.00    +0.019 A 
ATOM     16  C   UNL     1      12.136  -0.407  -2.157  0.00  0.00    +0.011 A 
ATOM     17  C   UNL     1      12.847   0.764  -2.319  0.00  0.00    +0.001 A 
ENDBRANCH   7  15
ENDBRANCH   6  10
ENDBRANCH   5   6
ENDBRANCH   1   5
BRANCH   3  18
ATOM     18  C   UNL     1       7.394  -7.320   2.580  0.00  0.00    +0.093 C 
BRANCH  18  19
ATOM     19  C   UNL     1       7.861  -8.000   3.868  0.00  0.00    -0.019 C 
BRANCH  19  20
ATOM     20  N   UNL     1       8.590  -7.031   4.697  0.00  0.00    +0.385 N 
ATOM     21  C   UNL     1       8.993  -7.691   5.954  0.00  0.00    -0.078 C 
ATOM     22  C   UNL     1      10.194  -6.966   6.506  0.00  0.00    -0.019 C 
ATOM     23  C   UNL     1       9.786  -5.920   7.560  0.00  0.00    -0.002 C 
ATOM     24  C   UNL     1       8.512  -5.157   7.145  0.00  0.00    -0.002 C 
ATOM     25  C   UNL     1       8.507  -4.801   5.680  0.00  0.00    -0.019 C 
ATOM     26  C   UNL     1       7.779  -5.912   4.895  0.00  0.00    -0.078 C 
ATOM     27  H   UNL     1       9.422  -6.744   4.203  0.00  0.00    -0.081 HD
ENDBRANCH  19  20
BRANCH  19  28
ATOM     28  C   UNL     1       8.771  -9.152   3.526  0.00  0.00    -0.041 A 
ATOM     29  C   UNL     1      10.142  -9.003   3.621  0.00  0.00    +0.003 A 
ATOM     30  C   UNL     1      10.976 -10.059   3.307  0.00  0.00    +0.000 A 
ATOM     31  C   UNL     1      10.440 -11.267   2.899  0.00  0.00    +0.001 A 
ATOM     32  C   UNL     1       9.069 -11.418   2.805  0.00  0.00    +0.020 A 
ATOM     33  C   UNL     1       8.234 -10.362   3.124  0.00  0.00    +0.043 A 
ATOM     34 CL   UNL     1       6.512 -10.553   3.011  0.00  0.00    -0.083 Cl
ENDBRANCH  19  28
ENDBRANCH  18  19
ENDBRANCH   3  18
TORSDOF 8
