REMARK  Name = ZINC08846174
REMARK  11 active torsions:
REMARK  status: ('A' for Active; 'I' for Inactive)
REMARK    1  A    between atoms: C_1  and  C_2
REMARK    2  A    between atoms: C_2  and  C_3
REMARK    3  A    between atoms: C_3  and  C_4
REMARK    4  A    between atoms: C_4  and  S_5
REMARK    5  A    between atoms: S_5  and  C_6
REMARK    6  A    between atoms: C_9  and  C_12
REMARK    7  A    between atoms: C_13  and  C_23
REMARK    8  A    between atoms: N_15  and  C_17
REMARK    9  A    between atoms: C_28  and  N_37
REMARK   10  A    between atoms: C_32  and  N_36
REMARK   11  A    between atoms: C_33  and  C_34
REMARK                            x       y       z     vdW  Elec       q    Type
REMARK                         _______ _______ _______ _____ _____    ______ ____
ROOT
ATOM      1  C   UNL     1       0.611   3.219   0.013  0.00  0.00    +0.097 A 
ATOM      2  C   UNL     1       1.068   1.886   0.002  0.00  0.00    +0.011 A 
ATOM      3  C   UNL     1      -0.013   1.076   0.008  0.00  0.00    +0.119 A 
ATOM      4  N   UNL     1      -1.121   1.861   0.017  0.00  0.00    -0.239 N 
ATOM      5  N   UNL     1      -0.706   3.198   0.026  0.00  0.00    -0.166 NA
ENDROOT
BRANCH   2   6
ATOM      6  C   UNL     1       2.509   1.443  -0.014  0.00  0.00    +0.101 C 
ATOM      7  C   UNL     1       2.790   0.616   1.213  0.00  0.00    +0.008 A 
ATOM      8  C   UNL     1       2.956   1.246   2.434  0.00  0.00    +0.010 A 
ATOM      9  C   UNL     1       3.214   0.506   3.570  0.00  0.00    +0.023 A 
ATOM     10  C   UNL     1       3.309  -0.879   3.489  0.00  0.00    +0.028 A 
ATOM     11  C   UNL     1       3.143  -1.512   2.267  0.00  0.00    +0.069 A 
ATOM     12  C   UNL     1       2.883  -0.764   1.126  0.00  0.00    +0.136 A 
ATOM     13  O   UNL     1       2.723  -1.399  -0.062  0.00  0.00    -0.441 OA
ATOM     14  C   UNL     1       2.858  -0.715  -1.210  0.00  0.00    +0.199 C 
ATOM     15  C   UNL     1       2.766   0.632  -1.253  0.00  0.00    +0.098 C 
BRANCH  14  16
ATOM     16  N   UNL     1       3.095  -1.405  -2.372  0.00  0.00    -0.328 N 
ATOM     17  H   UNL     1       3.163  -2.373  -2.357  0.00  0.00    +0.145 HD
ATOM     18  H   UNL     1       3.195  -0.926  -3.210  0.00  0.00    +0.145 HD
ENDBRANCH  14  16
BRANCH  10  19
ATOM     19  N   UNL     1       3.570  -1.630   4.637  0.00  0.00    -0.358 N 
ATOM     20  H   UNL     1       3.686  -1.186   5.492  0.00  0.00    +0.142 HD
ATOM     21  H   UNL     1       3.636  -2.596   4.580  0.00  0.00    +0.142 HD
ENDBRANCH  10  19
BRANCH  15  22
ATOM     22  C   UNL     1       2.918   1.301  -2.510  0.00  0.00    +0.101 C 
ATOM     23  N   UNL     1       3.039   1.832  -3.507  0.00  0.00    -0.191 NA
ENDBRANCH  15  22
ENDBRANCH   2   6
BRANCH   1  27
ATOM     24  C   UNL     1       3.056   6.700   0.010  0.00  0.00    +0.008 A 
ATOM     25  C   UNL     1       1.843   6.703  -0.670  0.00  0.00    +0.015 A 
ATOM     26  C   UNL     1       1.049   5.576  -0.670  0.00  0.00    +0.011 A 
ATOM     27  C   UNL     1       1.464   4.432   0.012  0.00  0.00    +0.002 A 
ATOM     28  C   UNL     1       2.677   4.433   0.698  0.00  0.00    +0.011 A 
ATOM     29  C   UNL     1       3.471   5.560   0.691  0.00  0.00    +0.015 A 
BRANCH  24  30
ATOM     30  S   UNL     1       4.069   8.142   0.009  0.00  0.00    -0.125 S 
BRANCH  30  31
ATOM     31  C   UNL     1       5.510   7.667   1.004  0.00  0.00    +0.074 C 
BRANCH  31  32
ATOM     32  C   UNL     1       6.484   8.844   1.085  0.00  0.00    +0.011 C 
BRANCH  32  34
ATOM     33  C   UNL     1       8.673   9.621   2.005  0.00  0.00    +0.004 C 
ATOM     34  C   UNL     1       7.699   8.443   1.924  0.00  0.00    -0.003 C 
ENDBRANCH  32  34
ENDBRANCH  31  32
ENDBRANCH  30  31
ENDBRANCH  24  30
ENDBRANCH   1  27
BRANCH   4  35
ATOM     35  C   UNL     1      -2.448   1.411   0.020  0.00  0.00    +0.065 A 
ATOM     36  C   UNL     1      -2.722   0.050   0.008  0.00  0.00    +0.028 A 
ATOM     37  C   UNL     1      -4.031  -0.391   0.017  0.00  0.00    +0.002 A 
ATOM     38  C   UNL     1      -5.069   0.523   0.026  0.00  0.00    +0.000 A 
ATOM     39  C   UNL     1      -4.800   1.879   0.032  0.00  0.00    +0.002 A 
ATOM     40  C   UNL     1      -3.493   2.326   0.029  0.00  0.00    +0.028 A 
ENDBRANCH   4  35
TORSDOF 10
