REMARK  Name = ZINC14008581
REMARK  10 active torsions:
REMARK  status: ('A' for Active; 'I' for Inactive)
REMARK    1  A    between atoms: C_1  and  C_2
REMARK    2  A    between atoms: C_5  and  C_28
REMARK    3  A    between atoms: C_6  and  O_8
REMARK    4  A    between atoms: O_8  and  C_9
REMARK    5  A    between atoms: C_9  and  C_11
REMARK    6  A    between atoms: C_9  and  C_12
REMARK    7  A    between atoms: N_14  and  N_15
REMARK    8  A    between atoms: C_16  and  C_18
REMARK    9  A    between atoms: C_18  and  O_19
REMARK   10  A    between atoms: O_19  and  C_20
REMARK                            x       y       z     vdW  Elec       q    Type
REMARK                         _______ _______ _______ _____ _____    ______ ____
ROOT
ATOM      1  C   UNL     1       3.109   6.502   0.161  0.00  0.00    +0.270 C 
ATOM      2  O   UNL     1       4.246   6.133  -0.047  0.00  0.00    -0.270 OA
ATOM      3  N   UNL     1       2.128   5.594   0.335  0.00  0.00    -0.231 N 
ATOM      4  H   UNL     1       1.219   5.889   0.501  0.00  0.00    +0.173 HD
ENDROOT
BRANCH   3   5
ATOM      5  N   UNL     1       2.421   4.226   0.276  0.00  0.00    -0.231 N 
ATOM      6  C   UNL     1       1.440   3.318   0.450  0.00  0.00    +0.267 C 
ATOM      7  O   UNL     1       0.303   3.686   0.658  0.00  0.00    -0.271 OA
ATOM      8  H   UNL     1       3.330   3.931   0.110  0.00  0.00    +0.173 HD
BRANCH   6   9
ATOM      9  C   UNL     1       1.755   1.846   0.386  0.00  0.00    +0.326 C 
BRANCH   9  10
ATOM     10  O   UNL     1       0.559   1.093   0.600  0.00  0.00    -0.482 OA
BRANCH  10  11
ATOM     11  C   UNL     1       0.670  -0.262   0.574  0.00  0.00    +0.135 A 
ATOM     12  C   UNL     1       1.904  -0.854   0.347  0.00  0.00    +0.048 A 
ATOM     13  C   UNL     1       2.014  -2.230   0.321  0.00  0.00    +0.019 A 
ATOM     14  C   UNL     1       0.895  -3.019   0.521  0.00  0.00    +0.019 A 
ATOM     15  C   UNL     1      -0.337  -2.432   0.747  0.00  0.00    +0.034 A 
ATOM     16  C   UNL     1      -0.451  -1.054   0.779  0.00  0.00    +0.061 A 
ATOM     17 BR   UNL     1      -2.133  -0.251   1.097  0.00  0.00    -0.046 Br
ATOM     18 BR   UNL     1       1.050  -4.904   0.485  0.00  0.00    -0.050 Br
ENDBRANCH  10  11
ENDBRANCH   9  10
ENDBRANCH   6   9
ENDBRANCH   3   5
BRANCH   1  19
ATOM     19  C   UNL     1       2.794   7.974   0.225  0.00  0.00    +0.257 C 
ATOM     20  C   UNL     1       1.771   8.324  -0.858  0.00  0.00    +0.062 C 
BRANCH  19  21
ATOM     21  O   UNL     1       3.990   8.727   0.011  0.00  0.00    -0.480 OA
BRANCH  21  27
ATOM     22  C   UNL     1       1.720  12.382   2.316  0.00  0.00    +0.044 C 
ATOM     23  C   UNL     1       2.944  11.797   1.659  0.00  0.00    -0.047 A 
ATOM     24  C   UNL     1       4.109  12.539   1.584  0.00  0.00    +0.004 A 
ATOM     25  C   UNL     1       5.233  12.005   0.982  0.00  0.00    +0.007 A 
ATOM     26  C   UNL     1       5.196  10.729   0.454  0.00  0.00    -0.009 A 
ATOM     27  C   UNL     1       4.029   9.982   0.529  0.00  0.00    +0.125 A 
ATOM     28  C   UNL     1       2.900  10.522   1.129  0.00  0.00    +0.049 A 
ATOM     29  C   UNL     1       6.421  10.148  -0.203  0.00  0.00    +0.047 C 
ENDBRANCH  21  27
ENDBRANCH  19  21
ENDBRANCH   1  19
TORSDOF 7
