REMARK  Name = ZINC21239732
REMARK  5 active torsions:
REMARK  status: ('A' for Active; 'I' for Inactive)
REMARK    1  A    between atoms: C_1  and  C_2
REMARK    2  A    between atoms: C_2  and  O_3
REMARK    3  A    between atoms: O_3  and  C_4
REMARK    4  A    between atoms: C_7  and  C_10
REMARK    5  A    between atoms: C_15  and  C_25
REMARK                            x       y       z     vdW  Elec       q    Type
REMARK                         _______ _______ _______ _____ _____    ______ ____
ROOT
ATOM      1  C   UNL     1       1.038  -0.495   0.818  0.00  0.00    +0.032 C 
ATOM      2  C   UNL     1      -0.160   0.055   0.047  0.00  0.00    +0.059 C 
ATOM      3  C   UNL     1      -0.114   1.573   0.029  0.00  0.00    +0.017 C 
ATOM      4  C   UNL     1       1.064   2.220   0.027  0.00  0.00    +0.037 C 
ATOM      5  C   UNL     1       1.253   3.718   0.009  0.00  0.00    +0.139 C 
ATOM      6  N   UNL     1       0.050   4.472  -0.272  0.00  0.00    -0.331 N 
ATOM      7  C   UNL     1      -1.032   4.452   0.607  0.00  0.00    +0.049 A 
ATOM      8  C   UNL     1      -1.439   5.593   1.280  0.00  0.00    +0.025 A 
ATOM      9  C   UNL     1      -2.489   5.513   2.179  0.00  0.00    +0.002 A 
ATOM     10  C   UNL     1      -3.126   4.307   2.407  0.00  0.00    +0.002 A 
ATOM     11  C   UNL     1      -2.732   3.169   1.722  0.00  0.00    +0.025 A 
ATOM     12  C   UNL     1      -1.698   3.252   0.807  0.00  0.00    +0.052 A 
ATOM     13  N   UNL     1      -1.328   2.179   0.006  0.00  0.00    -0.316 N 
ATOM     14  C   UNL     1       2.277   1.490   0.052  0.00  0.00    +0.163 C 
ATOM     15  O   UNL     1       3.328   2.100   0.022  0.00  0.00    -0.292 OA
ATOM     16  C   UNL     1       2.310  -0.007   0.113  0.00  0.00    +0.088 C 
ATOM     17  H   UNL     1      -0.021   5.072  -1.191  0.00  0.00    +0.147 HD
ATOM     18  H   UNL     1      -2.107   1.824  -0.686  0.00  0.00    +0.152 HD
ENDROOT
BRANCH   5  19
ATOM     19  C   UNL     1       1.784   4.149   1.351  0.00  0.00    +0.015 A 
ATOM     20  C   UNL     1       1.681   3.302   2.439  0.00  0.00    +0.047 A 
ATOM     21  C   UNL     1       2.172   3.696   3.672  0.00  0.00    +0.124 A 
ATOM     22  C   UNL     1       2.759   4.942   3.817  0.00  0.00    +0.041 A 
ATOM     23  C   UNL     1       2.857   5.790   2.731  0.00  0.00    +0.041 A 
ATOM     24  C   UNL     1       2.370   5.394   1.497  0.00  0.00    +0.129 A 
ATOM     25  F   UNL     1       2.467   6.223   0.434  0.00  0.00    -0.205 F 
ATOM     26  F   UNL     1       2.076   2.867   4.734  0.00  0.00    -0.205 F 
ENDBRANCH   5  19
BRANCH   1  30
ATOM     27  C   UNL     1       0.929  -4.767   0.815  0.00  0.00    +0.121 A 
ATOM     28  C   UNL     1       0.895  -4.072   2.015  0.00  0.00    +0.046 A 
ATOM     29  C   UNL     1       0.930  -2.691   2.013  0.00  0.00    +0.007 A 
ATOM     30  C   UNL     1       1.000  -2.001   0.817  0.00  0.00    -0.043 A 
ATOM     31  C   UNL     1       1.028  -2.691  -0.381  0.00  0.00    +0.007 A 
ATOM     32  C   UNL     1       0.998  -4.073  -0.385  0.00  0.00    +0.046 A 
BRANCH  27  33
ATOM     33  O   UNL     1       0.894  -6.125   0.813  0.00  0.00    -0.492 OA
BRANCH  33  35
ATOM     34  C   UNL     1       0.884  -8.290  -0.261  0.00  0.00    +0.048 C 
ATOM     35  C   UNL     1       0.932  -6.774  -0.459  0.00  0.00    +0.225 C 
ENDBRANCH  33  35
ENDBRANCH  27  33
ENDBRANCH   1  30
TORSDOF 4
