REMARK  Name = ZINC04539337
REMARK  2 active torsions:
REMARK  status: ('A' for Active; 'I' for Inactive)
REMARK    1  A    between atoms: C_8  and  C_12
REMARK    2  A    between atoms: C_18  and  C_20
REMARK                            x       y       z     vdW  Elec       q    Type
REMARK                         _______ _______ _______ _____ _____    ______ ____
ROOT
ATOM      1  C   UNL     1      -5.045   3.786   0.129  0.00  0.00    +0.255 C 
ATOM      2  O   UNL     1      -4.008   3.171   0.293  0.00  0.00    -0.270 OA
ATOM      3  N   UNL     1      -5.019   5.127  -0.007  0.00  0.00    -0.280 N 
ATOM      4  C   UNL     1      -3.766   5.868  -0.124  0.00  0.00    +0.120 C 
ATOM      5  C   UNL     1      -3.898   7.286   0.498  0.00  0.00    +0.090 C 
ATOM      6  S   UNL     1      -5.623   7.664  -0.049  0.00  0.00    -0.132 S 
ATOM      7  C   UNL     1      -6.254   5.933  -0.039  0.00  0.00    +0.166 C 
ENDROOT
BRANCH   1  15
ATOM      8  C   UNL     1     -11.133   2.971   0.163  0.00  0.00    +0.001 A 
ATOM      9  C   UNL     1     -11.106   1.590   0.021  0.00  0.00    +0.004 A 
ATOM     10  C   UNL     1      -9.907   0.917  -0.076  0.00  0.00    +0.047 A 
ATOM     11  C   UNL     1      -8.709   1.621  -0.025  0.00  0.00    +0.139 A 
ATOM     12  C   UNL     1      -8.738   3.020   0.113  0.00  0.00    +0.018 A 
ATOM     13  C   UNL     1      -9.970   3.684   0.209  0.00  0.00    +0.011 A 
ATOM     14  C   UNL     1      -7.526   3.754   0.160  0.00  0.00    +0.031 A 
ATOM     15  C   UNL     1      -6.328   3.066   0.079  0.00  0.00    +0.122 A 
ATOM     16  C   UNL     1      -6.360   1.606  -0.069  0.00  0.00    +0.350 A 
ATOM     17  O   UNL     1      -5.319   0.982  -0.151  0.00  0.00    -0.244 OA
ATOM     18  O   UNL     1      -7.536   0.958  -0.114  0.00  0.00    -0.422 OA
ENDBRANCH   1  15
BRANCH   7  19
ATOM     19  C   UNL     1      -7.043   5.647  -1.290  0.00  0.00    +0.001 A 
ATOM     20  C   UNL     1      -6.457   4.956  -2.335  0.00  0.00    +0.009 A 
ATOM     21  C   UNL     1      -7.181   4.693  -3.482  0.00  0.00    +0.020 A 
ATOM     22  C   UNL     1      -8.493   5.121  -3.587  0.00  0.00    +0.042 A 
ATOM     23  C   UNL     1      -9.079   5.812  -2.543  0.00  0.00    +0.040 A 
ATOM     24  C   UNL     1      -8.356   6.071  -1.392  0.00  0.00    +0.048 A 
ATOM     25 CL   UNL     1      -9.094   6.932  -0.078  0.00  0.00    -0.083 Cl
ATOM     26 CL   UNL     1      -9.401   4.791  -5.029  0.00  0.00    -0.083 Cl
ENDBRANCH   7  19
TORSDOF 2
