REMARK  Name = ZINC63139073
REMARK  4 active torsions:
REMARK  status: ('A' for Active; 'I' for Inactive)
REMARK    1  A    between atoms: C_4  and  C_7
REMARK    2  A    between atoms: N_20  and  C_23
REMARK    3  A    between atoms: C_23  and  C_24
REMARK    4  A    between atoms: C_24  and  C_25
REMARK                            x       y       z     vdW  Elec       q    Type
REMARK                         _______ _______ _______ _____ _____    ______ ____
ROOT
ATOM      1  C   UNL     1       3.711  -0.707  -0.038  0.00  0.00    +0.132 C 
ATOM      2  C   UNL     1       3.952  -1.326  -1.404  0.00  0.00    +0.134 C 
ATOM      3  C   UNL     1       4.983  -2.478  -1.221  0.00  0.00    +0.030 C 
ATOM      4  C   UNL     1       4.252  -3.670  -0.631  0.00  0.00    +0.038 C 
ATOM      5  C   UNL     1       3.235  -3.131   0.390  0.00  0.00    +0.163 C 
ATOM      6  N   UNL     1       3.673  -1.856   0.903  0.00  0.00    -0.279 N 
ATOM      7  C   UNL     1       4.050  -1.682   2.171  0.00  0.00    +0.234 C 
ATOM      8  O   UNL     1       4.315  -0.559   2.543  0.00  0.00    -0.274 OA
ATOM      9  C   UNL     1       4.161  -2.803   3.158  0.00  0.00    +0.203 C 
ATOM     10  N   UNL     1       3.423  -3.978   2.717  0.00  0.00    -0.291 N 
ATOM     11  C   UNL     1       3.028  -4.118   1.491  0.00  0.00    +0.237 C 
ATOM     12  O   UNL     1       2.430  -5.143   1.238  0.00  0.00    -0.274 OA
ATOM     13  C   UNL     1       5.426  -2.608  -2.677  0.00  0.00    +0.065 C 
ATOM     14  C   UNL     1       6.816  -3.144  -2.822  0.00  0.00    -0.017 C 
ATOM     15  C   UNL     1       7.701  -2.567  -3.627  0.00  0.00    -0.004 C 
ATOM     16  C   UNL     1       7.394  -1.374  -4.412  0.00  0.00    +0.001 C 
ATOM     17  C   UNL     1       6.262  -0.667  -4.166  0.00  0.00    +0.023 C 
ATOM     18  C   UNL     1       5.380  -1.161  -3.152  0.00  0.00    +0.043 C 
ATOM     19  N   UNL     1       4.567  -0.482  -2.415  0.00  0.00    -0.282 NA
ENDROOT
BRANCH   1  23
ATOM     20  C   UNL     1      -0.017   1.378   0.014  0.00  0.00    +0.000 A 
ATOM     21  C   UNL     1       0.010   0.005   0.172  0.00  0.00    +0.000 A 
ATOM     22  C   UNL     1       1.216  -0.669   0.155  0.00  0.00    +0.005 A 
ATOM     23  C   UNL     1       2.396   0.029  -0.020  0.00  0.00    -0.025 A 
ATOM     24  C   UNL     1       2.370   1.401  -0.179  0.00  0.00    +0.005 A 
ATOM     25  C   UNL     1       1.164   2.076  -0.161  0.00  0.00    +0.000 A 
ENDBRANCH   1  23
BRANCH  10  26
ATOM     26  C   UNL     1       3.131  -5.027   3.698  0.00  0.00    +0.113 C 
BRANCH  26  27
ATOM     27  C   UNL     1       1.788  -4.736   4.371  0.00  0.00    +0.052 C 
BRANCH  27  28
ATOM     28  C   UNL     1       1.488  -5.814   5.380  0.00  0.00    -0.040 C 
ATOM     29  C   UNL     1       1.745  -5.781   6.707  0.00  0.00    -0.001 A 
ATOM     30  C   UNL     1       2.359  -4.769   7.576  0.00  0.00    +0.010 A 
ATOM     31  C   UNL     1       2.484  -5.028   8.898  0.00  0.00    +0.001 A 
ATOM     32  C   UNL     1       2.044  -6.236   9.457  0.00  0.00    +0.002 A 
ATOM     33  C   UNL     1       1.471  -7.213   8.723  0.00  0.00    +0.026 A 
ATOM     34  C   UNL     1       1.288  -7.047   7.323  0.00  0.00    +0.043 A 
ATOM     35  N   UNL     1       0.769  -7.833   6.411  0.00  0.00    -0.380 N 
ATOM     36  C   UNL     1       0.832  -7.151   5.114  0.00  0.00    +0.144 C 
ATOM     37  H   UNL     1       0.401  -8.717   6.569  0.00  0.00    +0.160 HD
ENDBRANCH  27  28
ENDBRANCH  26  27
ENDBRANCH  10  26
TORSDOF 4
