REMARK  Name = ZINC08552762
REMARK  7 active torsions:
REMARK  status: ('A' for Active; 'I' for Inactive)
REMARK    1  A    between atoms: C_4  and  O_13
REMARK    2  A    between atoms: C_5  and  C_7
REMARK    3  A    between atoms: N_8  and  N_9
REMARK    4  A    between atoms: N_9  and  C_10
REMARK    5  A    between atoms: C_10  and  N_12
REMARK    6  A    between atoms: O_13  and  C_14
REMARK    7  A    between atoms: C_14  and  C_15
REMARK                            x       y       z     vdW  Elec       q    Type
REMARK                         _______ _______ _______ _____ _____    ______ ____
ROOT
ATOM      1  C   UNL     1      -0.017   1.375   0.010  0.00  0.00    +0.001 A 
ATOM      2  C   UNL     1       1.169   2.089   0.002  0.00  0.00    +0.004 A 
ATOM      3  C   UNL     1       2.383   1.428  -0.013  0.00  0.00    +0.046 A 
ATOM      4  C   UNL     1       2.420   0.043  -0.022  0.00  0.00    +0.130 A 
ATOM      5  C   UNL     1       1.222  -0.684  -0.014  0.00  0.00    +0.036 A 
ATOM      6  C   UNL     1       0.002  -0.004   0.002  0.00  0.00    +0.013 A 
ENDROOT
BRANCH   5   7
ATOM      7  C   UNL     1       1.250  -2.157  -0.023  0.00  0.00    +0.141 C 
ATOM      8  N   UNL     1       2.385  -2.785  -0.038  0.00  0.00    -0.188 NA
BRANCH   8   9
ATOM      9  N   UNL     1       2.412  -4.186  -0.047  0.00  0.00    -0.219 N 
ATOM     10  H   UNL     1       1.581  -4.686  -0.041  0.00  0.00    +0.176 HD
BRANCH   9  11
ATOM     11  C   UNL     1       3.591  -4.838  -0.063  0.00  0.00    +0.147 C 
ATOM     12  S   UNL     1       3.623  -6.549  -0.073  0.00  0.00    -0.017 S 
BRANCH  11  13
ATOM     13  N   UNL     1       4.745  -4.142  -0.071  0.00  0.00    -0.339 N 
ATOM     14  H   UNL     1       4.727  -3.172  -0.065  0.00  0.00    +0.144 HD
ATOM     15  H   UNL     1       5.594  -4.611  -0.082  0.00  0.00    +0.144 HD
ENDBRANCH  11  13
ENDBRANCH   9  11
ENDBRANCH   8   9
ENDBRANCH   5   7
BRANCH   4  16
ATOM     16  O   UNL     1       3.612  -0.607  -0.038  0.00  0.00    -0.487 OA
BRANCH  16  17
ATOM     17  C   UNL     1       4.792   0.201  -0.046  0.00  0.00    +0.264 C 
BRANCH  17  18
ATOM     18  C   UNL     1       6.009  -0.688  -0.063  0.00  0.00    -0.010 A 
ATOM     19  C   UNL     1       6.576  -1.107   1.126  0.00  0.00    +0.008 A 
ATOM     20  C   UNL     1       7.692  -1.922   1.110  0.00  0.00    +0.020 A 
ATOM     21  C   UNL     1       8.242  -2.318  -0.096  0.00  0.00    +0.041 A 
ATOM     22  C   UNL     1       7.674  -1.899  -1.286  0.00  0.00    +0.020 A 
ATOM     23  C   UNL     1       6.554  -1.089  -1.269  0.00  0.00    +0.008 A 
ATOM     24 CL   UNL     1       9.644  -3.342  -0.117  0.00  0.00    -0.084 Cl
ENDBRANCH  17  18
ENDBRANCH  16  17
ENDBRANCH   4  16
TORSDOF 7
