REMARK  Name = ZINC14086828
REMARK  6 active torsions:
REMARK  status: ('A' for Active; 'I' for Inactive)
REMARK    1  A    between atoms: C_1  and  C_2
REMARK    2  A    between atoms: C_5  and  S_11
REMARK    3  A    between atoms: C_7  and  N_8
REMARK    4  A    between atoms: S_11  and  N_14
REMARK    5  A    between atoms: N_14  and  C_15
REMARK    6  A    between atoms: C_20  and  N_21
REMARK                            x       y       z     vdW  Elec       q    Type
REMARK                         _______ _______ _______ _____ _____    ______ ____
ROOT
ATOM      1  N   UNL     1      -2.736   3.557   0.013  0.00  0.00    -0.214 N 
ATOM      2  H   UNL     1      -3.614   3.464   0.415  0.00  0.00    +0.174 HD
ENDROOT
BRANCH   1   3
ATOM      3  C   UNL     1      -1.783   2.543   0.170  0.00  0.00    +0.070 A 
ATOM      4  C   UNL     1      -0.438   2.863   0.277  0.00  0.00    +0.046 A 
ATOM      5  C   UNL     1       0.501   1.859   0.432  0.00  0.00    +0.043 A 
ATOM      6  C   UNL     1       0.102   0.535   0.481  0.00  0.00    +0.022 A 
ATOM      7  C   UNL     1      -1.237   0.208   0.374  0.00  0.00    +0.026 A 
ATOM      8  C   UNL     1      -2.184   1.208   0.212  0.00  0.00    +0.052 A 
ATOM      9 CL   UNL     1       2.184   2.262   0.566  0.00  0.00    -0.083 Cl
BRANCH   8  10
ATOM     10  N   UNL     1      -3.541   0.878   0.099  0.00  0.00    -0.328 N 
ATOM     11  C   UNL     1      -3.731  -0.595   0.084  0.00  0.00    +0.105 C 
ATOM     12  C   UNL     1      -5.218  -0.765   0.483  0.00  0.00    +0.020 C 
ATOM     13  C   UNL     1      -5.421   0.346   1.539  0.00  0.00    +0.020 C 
ATOM     14  C   UNL     1      -4.306   1.372   1.264  0.00  0.00    +0.105 C 
ENDBRANCH   8  10
ENDBRANCH   1   3
BRANCH   1  15
ATOM     15  S   UNL     1      -2.364   4.915  -0.859  0.00  0.00    +0.072 S 
ATOM     16  O   UNL     1      -3.561   5.675  -0.958  0.00  0.00    -0.150 OA
ATOM     17  O   UNL     1      -1.171   5.444  -0.297  0.00  0.00    -0.150 OA
BRANCH  15  22
ATOM     18  C   UNL     1      -0.989   3.123  -6.454  0.00  0.00    +0.046 C 
ATOM     19  C   UNL     1      -1.333   3.571  -5.056  0.00  0.00    -0.020 A 
ATOM     20  C   UNL     1      -0.341   3.666  -4.098  0.00  0.00    +0.007 A 
ATOM     21  C   UNL     1      -0.655   4.081  -2.817  0.00  0.00    +0.029 A 
ATOM     22  C   UNL     1      -1.963   4.392  -2.493  0.00  0.00    +0.111 A 
ATOM     23  C   UNL     1      -2.954   4.297  -3.451  0.00  0.00    +0.061 A 
ATOM     24  C   UNL     1      -2.639   3.887  -4.733  0.00  0.00    +0.131 A 
BRANCH  24  25
ATOM     25  N   UNL     1      -3.700   3.786  -5.760  0.00  0.00    +0.057 N 
ATOM     26  O   UNL     1      -4.864   3.976  -5.453  0.00  0.00    -0.126 OA
ATOM     27  O   UNL     1      -3.410   3.512  -6.911  0.00  0.00    -0.126 OA
ENDBRANCH  24  25
ENDBRANCH  15  22
ENDBRANCH   1  15
TORSDOF 5
