REMARK  Name = ZINC40161580
REMARK  10 active torsions:
REMARK  status: ('A' for Active; 'I' for Inactive)
REMARK    1  A    between atoms: C_1  and  C_2
REMARK    2  A    between atoms: C_2  and  O_3
REMARK    3  A    between atoms: O_3  and  C_4
REMARK    4  A    between atoms: C_4  and  C_6
REMARK    5  A    between atoms: C_7  and  C_29
REMARK    6  A    between atoms: C_8  and  C_28
REMARK    7  A    between atoms: C_10  and  N_11
REMARK    8  A    between atoms: C_12  and  C_14
REMARK    9  A    between atoms: C_15  and  C_27
REMARK   10  A    between atoms: C_20  and  C_22
REMARK                            x       y       z     vdW  Elec       q    Type
REMARK                         _______ _______ _______ _____ _____    ______ ____
ROOT
ATOM      1  N   UNL     1      -2.987  -2.400   2.773  0.00  0.00    -0.275 N 
ATOM      2  C   UNL     1      -3.705  -2.878   3.809  0.00  0.00    +0.248 C 
ATOM      3  O   UNL     1      -4.705  -3.541   3.602  0.00  0.00    -0.270 OA
ATOM      4  H   UNL     1      -2.147  -1.943   2.935  0.00  0.00    +0.156 HD
ENDROOT
BRANCH   2   5
ATOM      5  C   UNL     1      -3.296  -2.609   5.137  0.00  0.00    +0.056 C 
ATOM      6  C   UNL     1      -3.602  -1.440   5.739  0.00  0.00    +0.017 C 
ATOM      7  N   UNL     1      -3.208  -1.181   7.020  0.00  0.00    -0.300 N 
ATOM      8  C   UNL     1      -2.504  -2.041   7.768  0.00  0.00    +0.135 C 
ATOM      9  S   UNL     1      -2.073  -1.591   9.363  0.00  0.00    -0.019 S 
ATOM     10  N   UNL     1      -2.124  -3.249   7.306  0.00  0.00    -0.315 N 
ATOM     11  C   UNL     1      -2.506  -3.626   5.935  0.00  0.00    +0.146 C 
ATOM     12  C   UNL     1      -4.392  -0.402   4.983  0.00  0.00    +0.061 C 
ATOM     13  H   UNL     1      -3.450  -0.327   7.410  0.00  0.00    +0.154 HD
ATOM     14  H   UNL     1      -1.615  -3.856   7.865  0.00  0.00    +0.149 HD
BRANCH  11  15
ATOM     15  C   UNL     1      -1.242  -3.933   5.173  0.00  0.00    +0.015 A 
ATOM     16  C   UNL     1      -0.985  -4.957   4.323  0.00  0.00    +0.013 A 
ATOM     17  C   UNL     1       0.262  -5.039   3.731  0.00  0.00    +0.008 A 
ATOM     18  C   UNL     1       1.190  -4.093   4.018  0.00  0.00    +0.045 A 
ATOM     19  S   UNL     1       0.303  -3.038   5.151  0.00  0.00    -0.099 S 
ENDBRANCH  11  15
ENDBRANCH   2   5
BRANCH   1  24
ATOM     20  C   UNL     1      -2.801  -2.236   0.293  0.00  0.00    +0.091 A 
ATOM     21  C   UNL     1      -3.515  -2.519  -0.932  0.00  0.00    -0.025 A 
ATOM     22  C   UNL     1      -4.736  -3.064  -0.787  0.00  0.00    -0.008 A 
ATOM     23  S   UNL     1      -4.921  -3.194   0.978  0.00  0.00    -0.078 S 
ATOM     24  C   UNL     1      -3.449  -2.562   1.478  0.00  0.00    +0.087 A 
ATOM     25  C   UNL     1      -5.713  -3.467  -1.861  0.00  0.00    +0.052 C 
ATOM     26  C   UNL     1      -2.927  -2.221  -2.287  0.00  0.00    +0.045 C 
BRANCH  20  27
ATOM     27  C   UNL     1      -1.463  -1.643   0.285  0.00  0.00    +0.342 C 
ATOM     28  O   UNL     1      -0.480  -2.358   0.341  0.00  0.00    -0.245 OA
BRANCH  27  29
ATOM     29  O   UNL     1      -1.319  -0.303   0.217  0.00  0.00    -0.461 OA
BRANCH  29  31
ATOM     30  C   UNL     1      -0.014   1.730   0.159  0.00  0.00    +0.048 C 
ATOM     31  C   UNL     1       0.013   0.201   0.100  0.00  0.00    +0.229 C 
ENDBRANCH  29  31
ENDBRANCH  27  29
ENDBRANCH  20  27
ENDBRANCH   1  24
TORSDOF 6
