REMARK  Name = ZINC63097156
REMARK  8 active torsions:
REMARK  status: ('A' for Active; 'I' for Inactive)
REMARK    1  A    between atoms: C_1  and  C_2
REMARK    2  A    between atoms: C_4  and  C_12
REMARK    3  A    between atoms: C_12  and  C_13
REMARK    4  A    between atoms: C_13  and  N_14
REMARK    5  A    between atoms: N_14  and  C_15
REMARK    6  A    between atoms: C_15  and  C_33
REMARK    7  A    between atoms: C_17  and  C_32
REMARK    8  A    between atoms: N_19  and  C_22
REMARK                            x       y       z     vdW  Elec       q    Type
REMARK                         _______ _______ _______ _____ _____    ______ ____
ROOT
ATOM      1  C   UNL     1       1.450  -1.613  -5.697  0.00  0.00    +0.015 C 
ATOM      2  C   UNL     1       1.246  -1.189  -6.999  0.00  0.00    +0.077 C 
ATOM      3  C   UNL     1       2.115  -1.419  -8.163  0.00  0.00    +0.070 C 
ATOM      4  N   UNL     1       1.554  -0.854  -9.188  0.00  0.00    -0.179 NA
ATOM      5  N   UNL     1       0.352  -0.241  -8.835  0.00  0.00    -0.158 N 
ATOM      6  C   UNL     1       0.111  -0.417  -7.520  0.00  0.00    +0.271 C 
ATOM      7  O   UNL     1      -0.854  -0.015  -6.891  0.00  0.00    -0.268 OA
ATOM      8  C   UNL     1       3.420  -2.172  -8.165  0.00  0.00    +0.068 C 
ATOM      9  C   UNL     1       2.623  -2.501  -5.369  0.00  0.00    +0.061 C 
ENDROOT
BRANCH   5  10
ATOM     10  C   UNL     1      -0.523   0.483  -9.759  0.00  0.00    +0.249 C 
ATOM     11  N   UNL     1      -0.923  -0.370 -10.887  0.00  0.00    -0.315 N 
ATOM     12  C   UNL     1      -0.537   0.028 -12.165  0.00  0.00    +0.043 A 
ATOM     13  C   UNL     1      -0.826  -0.658 -13.359  0.00  0.00    +0.024 A 
ATOM     14  C   UNL     1      -0.397  -0.181 -14.576  0.00  0.00    +0.002 A 
ATOM     15  C   UNL     1       0.333   0.990 -14.668  0.00  0.00    +0.001 A 
ATOM     16  C   UNL     1       0.632   1.686 -13.509  0.00  0.00    +0.016 A 
ATOM     17  C   UNL     1       0.203   1.208 -12.291  0.00  0.00    +0.032 A 
ATOM     18  S   UNL     1       0.393   1.817 -10.630  0.00  0.00    -0.080 S 
ATOM     19  H   UNL     1      -1.437  -1.181 -10.746  0.00  0.00    +0.149 HD
ENDBRANCH   5  10
BRANCH   1  20
ATOM     20  N   UNL     1       0.601  -1.230  -4.722  0.00  0.00    -0.346 N 
ATOM     21  H   UNL     1      -0.153  -0.658  -4.933  0.00  0.00    +0.146 HD
BRANCH  20  22
ATOM     22  C   UNL     1       0.818  -1.679  -3.344  0.00  0.00    +0.105 C 
BRANCH  22  23
ATOM     23  C   UNL     1      -0.279  -1.107  -2.443  0.00  0.00    +0.052 C 
BRANCH  23  26
ATOM     24  C   UNL     1      -0.917   0.274   0.419  0.00  0.00    +0.035 C 
ATOM     25  C   UNL     1      -0.904  -1.238   0.182  0.00  0.00    +0.103 C 
ATOM     26  C   UNL     1      -0.057  -1.569  -1.026  0.00  0.00    -0.037 C 
ATOM     27  C   UNL     1       0.942  -2.363  -0.577  0.00  0.00    -0.001 A 
ATOM     28  C   UNL     1       2.076  -3.010  -1.248  0.00  0.00    +0.010 A 
ATOM     29  C   UNL     1       2.928  -3.763  -0.516  0.00  0.00    +0.001 A 
ATOM     30  C   UNL     1       2.756  -3.940   0.864  0.00  0.00    +0.002 A 
ATOM     31  C   UNL     1       1.739  -3.378   1.550  0.00  0.00    +0.026 A 
ATOM     32  C   UNL     1       0.783  -2.566   0.881  0.00  0.00    +0.043 A 
ATOM     33  N   UNL     1      -0.275  -1.923   1.317  0.00  0.00    -0.378 N 
ATOM     34  H   UNL     1      -0.589  -1.903   2.234  0.00  0.00    +0.160 HD
ENDBRANCH  23  26
ENDBRANCH  22  23
ENDBRANCH  20  22
ENDBRANCH   1  20
TORSDOF 5
