REMARK  Name = ZINC16956913
REMARK  3 active torsions:
REMARK  status: ('A' for Active; 'I' for Inactive)
REMARK    1  A    between atoms: C_3  and  C_6
REMARK    2  A    between atoms: C_11  and  O_13
REMARK    3  A    between atoms: N_30  and  C_33
REMARK                            x       y       z     vdW  Elec       q    Type
REMARK                         _______ _______ _______ _____ _____    ______ ____
ROOT
ATOM      1  C   UNL     1       1.195   5.327  -1.366  0.00  0.00    +0.099 C 
ATOM      2  C   UNL     1       0.716   4.877  -2.673  0.00  0.00    +0.037 A 
ATOM      3  C   UNL     1       0.948   3.698  -3.312  0.00  0.00    +0.112 A 
ATOM      4  N   UNL     1       0.447   3.584  -4.544  0.00  0.00    -0.199 NA
ATOM      5  C   UNL     1      -0.293   4.526  -5.086  0.00  0.00    +0.255 A 
ATOM      6  S   UNL     1      -0.307   5.742  -3.846  0.00  0.00    -0.033 S 
ATOM      7  S   UNL     1       1.825   2.414  -2.470  0.00  0.00    -0.101 S 
ATOM      8  C   UNL     1       2.749   3.216  -1.175  0.00  0.00    +0.061 C 
ATOM      9  C   UNL     1       2.201   4.523  -0.590  0.00  0.00    +0.022 C 
ATOM     10  C   UNL     1       1.705   4.213   0.836  0.00  0.00    +0.007 C 
ATOM     11  C   UNL     1       2.877   3.213   1.231  0.00  0.00    +0.010 C 
ATOM     12  C   UNL     1       2.591   2.198   0.064  0.00  0.00    +0.016 C 
ATOM     13  C   UNL     1       1.096   2.123   0.003  0.00  0.00    +0.092 C 
ATOM     14  C   UNL     1       0.572   3.224   1.020  0.00  0.00    +0.091 C 
ATOM     15  C   UNL     1      -0.752   3.360   0.300  0.00  0.00    +0.230 C 
ATOM     16  O   UNL     1      -1.359   4.375   0.032  0.00  0.00    -0.274 OA
ATOM     17  N   UNL     1      -1.104   2.058   0.018  0.00  0.00    -0.210 N 
ATOM     18  C   UNL     1      -0.014   1.208   0.009  0.00  0.00    +0.230 C 
ATOM     19  O   UNL     1       0.002  -0.004   0.002  0.00  0.00    -0.274 OA
ENDROOT
BRANCH  17  20
ATOM     20  C   UNL     1      -2.420   1.641  -0.231  0.00  0.00    +0.044 A 
ATOM     21  C   UNL     1      -3.459   2.561  -0.197  0.00  0.00    +0.025 A 
ATOM     22  C   UNL     1      -4.753   2.149  -0.446  0.00  0.00    +0.022 A 
ATOM     23  C   UNL     1      -5.016   0.818  -0.719  0.00  0.00    +0.041 A 
ATOM     24  C   UNL     1      -3.983  -0.102  -0.748  0.00  0.00    +0.022 A 
ATOM     25  C   UNL     1      -2.686   0.306  -0.504  0.00  0.00    +0.025 A 
ATOM     26 CL   UNL     1      -6.645   0.301  -1.026  0.00  0.00    -0.084 Cl
ENDBRANCH  17  20
BRANCH   1  29
ATOM     27  C   UNL     1       2.116   8.892  -1.520  0.00  0.00    +0.041 A 
ATOM     28  C   UNL     1       1.238   7.855  -1.128  0.00  0.00    +0.045 A 
ATOM     29  C   UNL     1       1.780   6.702  -1.558  0.00  0.00    +0.113 A 
ATOM     30  O   UNL     1       2.929   6.984  -2.195  0.00  0.00    -0.467 OA
ATOM     31  C   UNL     1       3.137   8.311  -2.175  0.00  0.00    +0.195 A 
ENDBRANCH   1  29
BRANCH   5  32
ATOM     32  O   UNL     1      -0.891   4.544  -6.303  0.00  0.00    -0.487 OA
ATOM     33  H   UNL     1      -1.788   4.183  -6.305  0.00  0.00    +0.294 HD
ENDBRANCH   5  32
TORSDOF 3
