REMARK  Name = ZINC02622097
REMARK  8 active torsions:
REMARK  status: ('A' for Active; 'I' for Inactive)
REMARK    1  A    between atoms: C_1  and  C_2
REMARK    2  A    between atoms: C_2  and  C_21
REMARK    3  A    between atoms: N_5  and  C_9
REMARK    4  A    between atoms: C_9  and  C_10
REMARK    5  A    between atoms: C_24  and  C_27
REMARK    6  A    between atoms: C_27  and  C_28
REMARK    7  A    between atoms: C_27  and  C_29
REMARK    8  A    between atoms: C_27  and  C_30
REMARK                            x       y       z     vdW  Elec       q    Type
REMARK                         _______ _______ _______ _____ _____    ______ ____
ROOT
ATOM      1  C   UNL     1      -0.791   2.022   1.224  0.00  0.00    +0.047 C 
ATOM      2  C   UNL     1      -0.018   1.503   0.010  0.00  0.00    +0.135 C 
ATOM      3  C   UNL     1      -0.619   2.035  -1.276  0.00  0.00    +0.251 C 
ATOM      4  O   UNL     1      -1.742   1.847  -1.692  0.00  0.00    -0.272 OA
ATOM      5  N   UNL     1       0.355   2.760  -1.860  0.00  0.00    -0.215 N 
ATOM      6  C   UNL     1       1.476   2.759  -1.130  0.00  0.00    +0.310 C 
ATOM      7  O   UNL     1       2.492   3.344  -1.451  0.00  0.00    -0.252 OA
ATOM      8  N   UNL     1       1.353   2.040   0.000  0.00  0.00    -0.281 N 
ATOM      9  H   UNL     1       2.035   1.901   0.676  0.00  0.00    +0.152 HD
ENDROOT
BRANCH   2  10
ATOM     10  C   UNL     1       0.002  -0.004   0.002  0.00  0.00    -0.015 A 
ATOM     11  C   UNL     1      -1.018  -0.706  -0.612  0.00  0.00    +0.006 A 
ATOM     12  C   UNL     1      -0.998  -2.088  -0.623  0.00  0.00    +0.004 A 
ATOM     13  C   UNL     1       0.039  -2.768  -0.013  0.00  0.00    -0.042 A 
ATOM     14  C   UNL     1       1.057  -2.067   0.606  0.00  0.00    +0.004 A 
ATOM     15  C   UNL     1       1.038  -0.685   0.613  0.00  0.00    +0.006 A 
BRANCH  13  16
ATOM     16  C   UNL     1       0.059  -4.275  -0.020  0.00  0.00    -0.013 C 
ATOM     17  C   UNL     1       0.044  -4.793   1.419  0.00  0.00    +0.015 C 
ATOM     18  C   UNL     1      -1.172  -4.798  -0.763  0.00  0.00    +0.015 C 
ATOM     19  C   UNL     1       1.326  -4.765  -0.725  0.00  0.00    +0.015 C 
ENDBRANCH  13  16
ENDBRANCH   2  10
BRANCH   5  20
ATOM     20  C   UNL     1       0.206   3.461  -3.138  0.00  0.00    +0.214 C 
BRANCH  20  21
ATOM     21  C   UNL     1       0.603   2.542  -4.264  0.00  0.00    +0.238 C 
ATOM     22  O   UNL     1       0.975   1.413  -4.024  0.00  0.00    -0.274 OA
ATOM     23  N   UNL     1       0.546   2.975  -5.539  0.00  0.00    -0.270 N 
ATOM     24  C   UNL     1       0.905   2.177  -6.715  0.00  0.00    +0.118 C 
ATOM     25  C   UNL     1       0.672   3.104  -7.918  0.00  0.00    +0.056 C 
ATOM     26  C   UNL     1       0.182   4.400  -7.312  0.00  0.00    -0.024 A 
ATOM     27  C   UNL     1       0.129   4.250  -5.935  0.00  0.00    +0.040 A 
ATOM     28  C   UNL     1      -0.293   5.326  -5.152  0.00  0.00    +0.024 A 
ATOM     29  C   UNL     1      -0.661   6.515  -5.744  0.00  0.00    +0.002 A 
ATOM     30  C   UNL     1      -0.610   6.653  -7.119  0.00  0.00    +0.000 A 
ATOM     31  C   UNL     1      -0.188   5.593  -7.901  0.00  0.00    +0.005 A 
ENDBRANCH  20  21
ENDBRANCH   5  20
TORSDOF 4
