REMARK  Name = ZINC08767196
REMARK  6 active torsions:
REMARK  status: ('A' for Active; 'I' for Inactive)
REMARK    1  A    between atoms: C_1  and  C_2
REMARK    2  A    between atoms: C_2  and  C_3
REMARK    3  A    between atoms: N_10  and  C_13
REMARK    4  A    between atoms: C_19  and  C_36
REMARK    5  A    between atoms: C_22  and  C_30
REMARK    6  A    between atoms: C_23  and  C_24
REMARK                            x       y       z     vdW  Elec       q    Type
REMARK                         _______ _______ _______ _____ _____    ______ ____
ROOT
ATOM      1  C   UNL     1       1.783   0.901  -1.450  0.00  0.00    +0.067 C 
ATOM      2  C   UNL     1       1.547   1.345  -0.005  0.00  0.00    +0.106 C 
ATOM      3  C   UNL     1      -0.013   1.086   0.008  0.00  0.00    +0.106 C 
ATOM      4  C   UNL     1      -0.325   1.263   1.397  0.00  0.00    +0.227 C 
ATOM      5  O   UNL     1      -1.279   1.818   1.898  0.00  0.00    -0.275 OA
ATOM      6  N   UNL     1       0.743   0.638   2.017  0.00  0.00    -0.239 N 
ATOM      7  C   UNL     1       1.802   0.434   1.167  0.00  0.00    +0.227 C 
ATOM      8  O   UNL     1       2.740  -0.317   1.326  0.00  0.00    -0.275 OA
ATOM      9  C   UNL     1      -0.476   1.291  -1.395  0.00  0.00    +0.065 C 
ATOM     10  C   UNL     1       0.775   1.909  -2.104  0.00  0.00    +0.155 C 
ATOM     11  O   UNL     1       0.915   2.825  -2.878  0.00  0.00    -0.295 OA
ATOM     12  C   UNL     1      -0.269  -0.178  -1.887  0.00  0.00    -0.022 C 
ATOM     13  C   UNL     1       1.084  -0.385  -1.826  0.00  0.00    -0.021 C 
ATOM     14  C   UNL     1      -1.831   1.968  -1.614  0.00  0.00    +0.025 C 
ENDROOT
BRANCH   6  15
ATOM     15  C   UNL     1       0.744   0.238   3.426  0.00  0.00    +0.084 C 
ATOM     16  C   UNL     1      -0.392  -0.756   3.675  0.00  0.00    +0.023 C 
ATOM     17  C   UNL     1      -0.391  -1.174   5.147  0.00  0.00    +0.002 C 
ATOM     18  C   UNL     1      -0.592   0.061   6.028  0.00  0.00    +0.000 C 
ATOM     19  C   UNL     1       0.544   1.055   5.779  0.00  0.00    +0.002 C 
ATOM     20  C   UNL     1       0.543   1.472   4.307  0.00  0.00    +0.023 C 
ENDBRANCH   6  15
BRANCH  13  21
ATOM     21  C   UNL     1       1.765  -1.664  -2.095  0.00  0.00    -0.021 A 
ATOM     22  C   UNL     1       2.465  -2.315  -1.076  0.00  0.00    +0.008 A 
ATOM     23  C   UNL     1       3.096  -3.514  -1.334  0.00  0.00    +0.001 A 
ATOM     24  C   UNL     1       3.046  -4.067  -2.601  0.00  0.00    +0.000 A 
ATOM     25  C   UNL     1       2.359  -3.426  -3.617  0.00  0.00    +0.001 A 
ATOM     26  C   UNL     1       1.719  -2.229  -3.373  0.00  0.00    +0.008 A 
ENDBRANCH  13  21
BRANCH  12  27
ATOM     27  C   UNL     1      -1.303  -1.133  -2.322  0.00  0.00    -0.021 A 
ATOM     28  C   UNL     1      -2.059  -0.876  -3.469  0.00  0.00    +0.008 A 
ATOM     29  C   UNL     1      -3.021  -1.777  -3.874  0.00  0.00    +0.001 A 
ATOM     30  C   UNL     1      -3.248  -2.928  -3.140  0.00  0.00    +0.000 A 
ATOM     31  C   UNL     1      -2.508  -3.187  -2.000  0.00  0.00    +0.001 A 
ATOM     32  C   UNL     1      -1.538  -2.298  -1.587  0.00  0.00    +0.008 A 
ENDBRANCH  12  27
BRANCH   1  34
ATOM     33  C   UNL     1       3.333   0.530  -3.374  0.00  0.00    +0.005 C 
ATOM     34  C   UNL     1       3.235   1.001  -1.922  0.00  0.00    +0.016 C 
ENDBRANCH   1  34
TORSDOF 4
