REMARK  Name = ZINC40780763
REMARK  4 active torsions:
REMARK  status: ('A' for Active; 'I' for Inactive)
REMARK    1  A    between atoms: C_1  and  C_2
REMARK    2  A    between atoms: C_11  and  N_12
REMARK    3  A    between atoms: C_14  and  N_29
REMARK    4  A    between atoms: C_15  and  N_19
REMARK                            x       y       z     vdW  Elec       q    Type
REMARK                         _______ _______ _______ _____ _____    ______ ____
ROOT
ATOM      1  N   UNL     1       0.063  -4.885  -1.143  0.00  0.00    -0.297 N 
ATOM      2  C   UNL     1       0.189  -6.269  -1.087  0.00  0.00    +0.149 A 
ATOM      3  C   UNL     1       0.305  -7.018  -2.260  0.00  0.00    +0.106 A 
ATOM      4  C   UNL     1       0.430  -8.404  -2.146  0.00  0.00    +0.148 A 
ATOM      5  N   UNL     1       0.432  -8.954  -0.935  0.00  0.00    -0.219 NA
ATOM      6  C   UNL     1       0.320  -8.210   0.147  0.00  0.00    +0.225 A 
ATOM      7  N   UNL     1       0.206  -6.899   0.085  0.00  0.00    -0.219 NA
ATOM      8  H   UNL     1      -0.031  -4.441  -2.000  0.00  0.00    +0.154 HD
ENDROOT
BRANCH   1  19
ATOM      9  C   UNL     1      -2.363   0.940   0.382  0.00  0.00    +0.063 C 
ATOM     10  C   UNL     1      -1.717  -0.417   0.275  0.00  0.00    +0.013 A 
ATOM     11  C   UNL     1      -1.771  -1.101  -0.938  0.00  0.00    +0.021 A 
ATOM     12  C   UNL     1      -1.190  -2.332  -1.053  0.00  0.00    +0.013 A 
ATOM     13  C   UNL     1      -0.549  -2.872   0.075  0.00  0.00    +0.020 A 
ATOM     14  C   UNL     1      -0.529  -2.124   1.279  0.00  0.00    +0.048 A 
ATOM     15  N   UNL     1      -1.113  -0.922   1.324  0.00  0.00    -0.358 N 
ATOM     16  C   UNL     1       0.111  -2.660   2.409  0.00  0.00    +0.026 A 
ATOM     17  C   UNL     1       0.704  -3.885   2.341  0.00  0.00    +0.004 A 
ATOM     18  C   UNL     1       0.691  -4.626   1.164  0.00  0.00    +0.024 A 
ATOM     19  C   UNL     1       0.073  -4.137   0.032  0.00  0.00    +0.042 A 
ATOM     20  H   UNL     1      -1.093  -0.414   2.150  0.00  0.00    +0.166 HD
ENDBRANCH   1  19
BRANCH   4  21
ATOM     21  N   UNL     1       0.548  -9.197  -3.282  0.00  0.00    -0.309 N 
ATOM     22  C   UNL     1       1.855  -9.434  -3.917  0.00  0.00    +0.111 C 
ATOM     23  C   UNL     1       2.169 -10.925  -3.803  0.00  0.00    +0.054 C 
ATOM     24  C   UNL     1       0.984 -11.756  -4.217  0.00  0.00    -0.041 A 
ATOM     25  C   UNL     1       1.218 -13.077  -4.580  0.00  0.00    +0.004 A 
ATOM     26  C   UNL     1       0.175 -13.895  -4.961  0.00  0.00    +0.000 A 
ATOM     27  C   UNL     1      -1.116 -13.400  -4.981  0.00  0.00    +0.000 A 
ATOM     28  C   UNL     1      -1.351 -12.088  -4.625  0.00  0.00    +0.005 A 
ATOM     29  C   UNL     1      -0.301 -11.262  -4.247  0.00  0.00    -0.027 A 
ATOM     30  C   UNL     1      -0.623  -9.836  -3.891  0.00  0.00    +0.142 C 
ENDBRANCH   4  21
BRANCH   3  31
ATOM     31  N   UNL     1       0.298  -6.395  -3.518  0.00  0.00    -0.353 N 
ATOM     32  H   UNL     1       0.284  -5.427  -3.579  0.00  0.00    +0.143 HD
ATOM     33  H   UNL     1       0.306  -6.932  -4.325  0.00  0.00    +0.143 HD
ENDBRANCH   3  31
TORSDOF 3
