REMARK  Name = ZINC20512212
REMARK  3 active torsions:
REMARK  status: ('A' for Active; 'I' for Inactive)
REMARK    1  A    between atoms: N_9  and  C_17
REMARK    2  A    between atoms: C_17  and  C_18
REMARK    3  A    between atoms: C_18  and  C_19
REMARK                            x       y       z     vdW  Elec       q    Type
REMARK                         _______ _______ _______ _____ _____    ______ ____
ROOT
ATOM      1  C   UNL     1      -1.444  -3.256  -3.804  0.00  0.00    +0.001 A 
ATOM      2  C   UNL     1      -2.442  -2.318  -3.591  0.00  0.00    +0.001 A 
ATOM      3  C   UNL     1      -2.458  -1.577  -2.426  0.00  0.00    +0.016 A 
ATOM      4  C   UNL     1      -1.475  -1.769  -1.465  0.00  0.00    +0.026 A 
ATOM      5  C   UNL     1      -0.460  -2.712  -1.674  0.00  0.00    +0.051 A 
ATOM      6  C   UNL     1      -0.461  -3.457  -2.862  0.00  0.00    +0.014 A 
ATOM      7  C   UNL     1       0.598  -2.937  -0.691  0.00  0.00    +0.252 C 
ATOM      8  O   UNL     1       0.881  -4.100  -0.481  0.00  0.00    -0.270 OA
ATOM      9  N   UNL     1       1.281  -2.058  -0.006  0.00  0.00    -0.265 N 
ATOM     10  C   UNL     1       1.231  -0.673  -0.018  0.00  0.00    +0.069 A 
ATOM     11  C   UNL     1       2.427   0.042  -0.043  0.00  0.00    +0.028 A 
ATOM     12  C   UNL     1       2.377   1.428  -0.047  0.00  0.00    +0.022 A 
ATOM     13  C   UNL     1       1.151   2.061  -0.027  0.00  0.00    +0.112 A 
ATOM     14  N   UNL     1       0.033   1.362  -0.006  0.00  0.00    -0.247 NA
ATOM     15  C   UNL     1       0.033   0.037  -0.001  0.00  0.00    +0.123 A 
ATOM     16  S   UNL     1      -1.505  -0.825   0.022  0.00  0.00    -0.067 S 
ENDROOT
BRANCH   9  17
ATOM     17  C   UNL     1       2.257  -2.629   0.926  0.00  0.00    +0.123 C 
BRANCH  17  18
ATOM     18  C   UNL     1       1.621  -2.765   2.311  0.00  0.00    +0.115 C 
BRANCH  18  19
ATOM     19  C   UNL     1       2.659  -3.239   3.295  0.00  0.00    +0.220 C 
ATOM     20  O   UNL     1       3.795  -3.448   2.926  0.00  0.00    -0.275 OA
ATOM     21  N   UNL     1       2.324  -3.432   4.587  0.00  0.00    -0.270 N 
ATOM     22  C   UNL     1       3.307  -3.762   5.519  0.00  0.00    +0.125 A 
ATOM     23  C   UNL     1       2.975  -3.851   6.867  0.00  0.00    +0.045 A 
ATOM     24  C   UNL     1       3.957  -4.185   7.782  0.00  0.00    +0.020 A 
ATOM     25  C   UNL     1       5.247  -4.409   7.316  0.00  0.00    +0.036 A 
ATOM     26  C   UNL     1       5.506  -4.298   5.964  0.00  0.00    +0.128 A 
ATOM     27  N   UNL     1       4.547  -3.984   5.115  0.00  0.00    -0.239 NA
ATOM     28 BR   UNL     1       6.632  -4.862   8.521  0.00  0.00    -0.049 Br
ATOM     29  H   UNL     1       1.276  -3.328   4.905  0.00  0.00    +0.156 HD
ENDBRANCH  18  19
ENDBRANCH  17  18
ENDBRANCH   9  17
TORSDOF 3
