REMARK  Name = ZINC00658344
REMARK  10 active torsions:
REMARK  status: ('A' for Active; 'I' for Inactive)
REMARK    1  A    between atoms: C_1  and  C_2
REMARK    2  A    between atoms: C_5  and  S_8
REMARK    3  A    between atoms: S_8  and  N_11
REMARK    4  A    between atoms: N_11  and  C_12
REMARK    5  A    between atoms: N_11  and  C_20
REMARK    6  A    between atoms: C_12  and  C_13
REMARK    7  A    between atoms: C_20  and  C_21
REMARK    8  A    between atoms: N_23  and  C_24
REMARK    9  A    between atoms: C_27  and  S_30
REMARK   10  A    between atoms: S_30  and  N_33
REMARK                            x       y       z     vdW  Elec       q    Type
REMARK                         _______ _______ _______ _____ _____    ______ ____
ROOT
ATOM      1  N   UNL     1       3.418   2.291  -0.316  0.00  0.00    -0.163 NA
ENDROOT
BRANCH   1   2
ATOM      2  S   UNL     1       4.042   2.522  -1.832  0.00  0.00    +0.062 S 
ATOM      3  O   UNL     1       5.288   3.183  -1.663  0.00  0.00    -0.153 OA
ATOM      4  O   UNL     1       3.925   1.280  -2.513  0.00  0.00    -0.153 OA
BRANCH   2   9
ATOM      5  C   UNL     1       0.405   6.401  -4.685  0.00  0.00    +0.044 C 
ATOM      6  C   UNL     1       1.314   5.432  -3.973  0.00  0.00    -0.050 A 
ATOM      7  C   UNL     1       2.385   5.902  -3.237  0.00  0.00    +0.005 A 
ATOM      8  C   UNL     1       3.218   5.014  -2.583  0.00  0.00    +0.029 A 
ATOM      9  C   UNL     1       2.980   3.655  -2.665  0.00  0.00    +0.106 A 
ATOM     10  C   UNL     1       1.911   3.184  -3.405  0.00  0.00    +0.029 A 
ATOM     11  C   UNL     1       1.075   4.072  -4.055  0.00  0.00    +0.005 A 
ENDBRANCH   2   9
ENDBRANCH   1   2
BRANCH   1  12
ATOM     12  C   UNL     1       3.837   3.158   0.788  0.00  0.00    +0.145 C 
BRANCH  12  13
ATOM     13  C   UNL     1       4.964   2.502   1.543  0.00  0.00    -0.032 A 
ATOM     14  C   UNL     1       4.688   1.671   2.613  0.00  0.00    +0.006 A 
ATOM     15  C   UNL     1       5.721   1.065   3.302  0.00  0.00    +0.020 A 
ATOM     16  C   UNL     1       7.032   1.298   2.928  0.00  0.00    +0.041 A 
ATOM     17  C   UNL     1       7.308   2.134   1.861  0.00  0.00    +0.020 A 
ATOM     18  C   UNL     1       6.274   2.735   1.169  0.00  0.00    +0.006 A 
ATOM     19 CL   UNL     1       8.331   0.542   3.797  0.00  0.00    -0.084 Cl
ENDBRANCH  12  13
ENDBRANCH   1  12
BRANCH   1  20
ATOM     20  C   UNL     1       2.448   1.219  -0.078  0.00  0.00    +0.205 C 
BRANCH  20  21
ATOM     21  C   UNL     1       1.051   1.775  -0.176  0.00  0.00    +0.233 C 
ATOM     22  O   UNL     1       0.882   2.951  -0.421  0.00  0.00    -0.274 OA
ATOM     23  N   UNL     1      -0.011   0.966   0.007  0.00  0.00    -0.284 N 
ATOM     24  H   UNL     1       0.121   0.012   0.125  0.00  0.00    +0.155 HD
BRANCH  23  25
ATOM     25  C   UNL     1      -1.304   1.501   0.022  0.00  0.00    +0.034 A 
ATOM     26  C   UNL     1      -2.368   0.762  -0.477  0.00  0.00    +0.025 A 
ATOM     27  C   UNL     1      -3.644   1.290  -0.456  0.00  0.00    +0.030 A 
ATOM     28  C   UNL     1      -3.861   2.558   0.052  0.00  0.00    +0.105 A 
ATOM     29  C   UNL     1      -2.802   3.299   0.544  0.00  0.00    +0.030 A 
ATOM     30  C   UNL     1      -1.525   2.774   0.531  0.00  0.00    +0.025 A 
BRANCH  28  31
ATOM     31  S   UNL     1      -5.489   3.231   0.071  0.00  0.00    +0.056 S 
ATOM     32  O   UNL     1      -6.385   2.128   0.056  0.00  0.00    -0.153 OA
ATOM     33  O   UNL     1      -5.510   4.215   1.095  0.00  0.00    -0.153 OA
BRANCH  31  34
ATOM     34  N   UNL     1      -5.704   4.034  -1.362  0.00  0.00    -0.204 NA
ATOM     35  H   UNL     1      -4.988   4.059  -2.015  0.00  0.00    +0.144 HD
ATOM     36  H   UNL     1      -6.545   4.479  -1.547  0.00  0.00    +0.144 HD
ENDBRANCH  31  34
ENDBRANCH  28  31
ENDBRANCH  23  25
ENDBRANCH  20  21
ENDBRANCH   1  20
TORSDOF 9
