REMARK  Name = ZINC21047290
REMARK  5 active torsions:
REMARK  status: ('A' for Active; 'I' for Inactive)
REMARK    1  A    between atoms: C_1  and  O_2
REMARK    2  A    between atoms: O_2  and  C_3
REMARK    3  A    between atoms: C_8  and  C_9
REMARK    4  A    between atoms: N_22  and  S_23
REMARK    5  A    between atoms: S_23  and  C_26
REMARK                            x       y       z     vdW  Elec       q    Type
REMARK                         _______ _______ _______ _____ _____    ______ ____
ROOT
ATOM      1  C   UNL     1      -1.617   6.298  -3.063  0.00  0.00    +0.150 C 
ATOM      2  C   UNL     1      -1.280   5.323  -1.980  0.00  0.00    +0.017 A 
ATOM      3  C   UNL     1      -1.140   3.977  -2.094  0.00  0.00    -0.031 A 
ATOM      4  C   UNL     1      -0.824   3.256  -0.926  0.00  0.00    -0.034 A 
ATOM      5  C   UNL     1      -0.679   3.959   0.227  0.00  0.00    -0.006 A 
ATOM      6  S   UNL     1      -0.977   5.638  -0.262  0.00  0.00    -0.096 S 
ATOM      7  C   UNL     1      -0.348   3.429   1.584  0.00  0.00    +0.043 C 
ATOM      8  C   UNL     1      -0.553   1.906   1.568  0.00  0.00    +0.005 C 
ATOM      9  C   UNL     1       0.130   1.333   0.323  0.00  0.00    +0.005 C 
ATOM     10  C   UNL     1      -0.644   1.740  -0.931  0.00  0.00    +0.036 C 
ATOM     11  C   UNL     1      -1.315   3.291  -3.446  0.00  0.00    +0.053 C 
ATOM     12  C   UNL     1      -2.113   4.206  -4.376  0.00  0.00    +0.115 C 
ATOM     13  N   UNL     1      -1.547   5.563  -4.343  0.00  0.00    -0.163 NA
ENDROOT
BRANCH   1  19
ATOM     14  C   UNL     1      -3.359   8.074  -3.377  0.00  0.00    +0.125 A 
ATOM     15  C   UNL     1      -4.642   8.566  -3.188  0.00  0.00    +0.046 A 
ATOM     16  C   UNL     1      -5.565   7.827  -2.473  0.00  0.00    +0.004 A 
ATOM     17  C   UNL     1      -5.212   6.597  -1.949  0.00  0.00    +0.001 A 
ATOM     18  C   UNL     1      -3.935   6.103  -2.140  0.00  0.00    +0.009 A 
ATOM     19  C   UNL     1      -3.008   6.837  -2.855  0.00  0.00    +0.018 A 
BRANCH  14  21
ATOM     20  C   UNL     1      -2.878  10.065  -4.585  0.00  0.00    +0.277 C 
ATOM     21  O   UNL     1      -2.448   8.800  -4.076  0.00  0.00    -0.495 OA
ENDBRANCH  14  21
ENDBRANCH   1  19
BRANCH  13  22
ATOM     22  S   UNL     1      -0.859   6.242  -5.688  0.00  0.00    +0.068 S 
ATOM     23  O   UNL     1      -1.425   5.580  -6.811  0.00  0.00    -0.152 OA
ATOM     24  O   UNL     1      -0.933   7.650  -5.516  0.00  0.00    -0.152 OA
BRANCH  22  25
ATOM     25  C   UNL     1       0.852   5.821  -5.666  0.00  0.00    +0.143 A 
ATOM     26  C   UNL     1       1.472   4.740  -6.198  0.00  0.00    +0.036 A 
ATOM     27  C   UNL     1       2.842   4.617  -6.060  0.00  0.00    +0.010 A 
ATOM     28  C   UNL     1       3.524   5.577  -5.388  0.00  0.00    +0.047 A 
ATOM     29  S   UNL     1       2.218   6.705  -4.930  0.00  0.00    -0.077 S 
ENDBRANCH  22  25
ENDBRANCH  13  22
TORSDOF 4
