REMARK  Name = ZINC38965739
REMARK  8 active torsions:
REMARK  status: ('A' for Active; 'I' for Inactive)
REMARK    1  A    between atoms: C_1  and  C_2
REMARK    2  A    between atoms: C_5  and  S_9
REMARK    3  A    between atoms: C_7  and  C_8
REMARK    4  A    between atoms: S_9  and  N_12
REMARK    5  A    between atoms: C_14  and  N_24
REMARK    6  A    between atoms: N_24  and  C_25
REMARK    7  A    between atoms: C_28  and  C_31
REMARK    8  A    between atoms: C_31  and  C_33
REMARK                            x       y       z     vdW  Elec       q    Type
REMARK                         _______ _______ _______ _____ _____    ______ ____
ROOT
ATOM      1  N   UNL     1       1.690  -4.786   0.209  0.00  0.00    -0.110 NA
ATOM      2  C   UNL     1       1.925  -6.053   0.040  0.00  0.00    +0.192 C 
ATOM      3  C   UNL     1       3.345  -6.562  -0.076  0.00  0.00    +0.237 C 
ATOM      4  N   UNL     1       3.543  -8.008  -0.266  0.00  0.00    -0.359 N 
ATOM      5  C   UNL     1       2.493  -8.777  -0.325  0.00  0.00    +0.063 A 
ATOM      6  C   UNL     1       2.637 -10.228  -0.514  0.00  0.00    +0.027 A 
ATOM      7  C   UNL     1       1.525 -10.994  -0.570  0.00  0.00    +0.002 A 
ATOM      8  C   UNL     1       0.239 -10.439  -0.453  0.00  0.00    +0.002 A 
ATOM      9  C   UNL     1       0.028  -9.116  -0.278  0.00  0.00    +0.030 A 
ATOM     10  C   UNL     1       1.123  -8.218  -0.205  0.00  0.00    +0.089 A 
ATOM     11  N   UNL     1       0.912  -6.931  -0.030  0.00  0.00    -0.226 NA
ATOM     12  H   UNL     1       4.436  -8.379  -0.345  0.00  0.00    +0.162 HD
ENDROOT
BRANCH   1  13
ATOM     13  S   UNL     1       0.132  -4.243   0.340  0.00  0.00    +0.100 S 
ATOM     14  O   UNL     1      -0.385  -4.781   1.550  0.00  0.00    -0.146 OA
ATOM     15  O   UNL     1      -0.485  -4.470  -0.919  0.00  0.00    -0.146 OA
BRANCH  13  20
ATOM     16  C   UNL     1       0.379   1.740   1.083  0.00  0.00    +0.044 C 
ATOM     17  C   UNL     1       0.318   0.245   0.898  0.00  0.00    -0.047 A 
ATOM     18  C   UNL     1       0.242  -0.290  -0.374  0.00  0.00    +0.005 A 
ATOM     19  C   UNL     1       0.185  -1.661  -0.544  0.00  0.00    +0.029 A 
ATOM     20  C   UNL     1       0.205  -2.496   0.557  0.00  0.00    +0.113 A 
ATOM     21  C   UNL     1       0.281  -1.960   1.829  0.00  0.00    +0.032 A 
ATOM     22  C   UNL     1       0.342  -0.589   1.999  0.00  0.00    -0.046 A 
ATOM     23  C   UNL     1       0.431  -0.005   3.386  0.00  0.00    +0.044 C 
ENDBRANCH  13  20
ENDBRANCH   1  13
BRANCH   3  24
ATOM     24  N   UNL     1       4.061  -6.169   1.141  0.00  0.00    -0.318 N 
ATOM     25  H   UNL     1       3.635  -6.266   2.007  0.00  0.00    +0.148 HD
BRANCH  24  26
ATOM     26  C   UNL     1       5.349  -5.657   1.053  0.00  0.00    +0.029 A 
ATOM     27  C   UNL     1       6.007  -5.638  -0.174  0.00  0.00    +0.023 A 
ATOM     28  C   UNL     1       7.274  -5.137  -0.265  0.00  0.00    +0.013 A 
ATOM     29  C   UNL     1       7.912  -4.640   0.880  0.00  0.00    +0.017 A 
ATOM     30  C   UNL     1       7.246  -4.661   2.113  0.00  0.00    +0.013 A 
ATOM     31  C   UNL     1       5.977  -5.160   2.193  0.00  0.00    +0.023 A 
BRANCH  29  32
ATOM     32  C   UNL     1       9.273  -4.101   0.788  0.00  0.00    +0.160 C 
ATOM     33  O   UNL     1       9.796  -3.955  -0.297  0.00  0.00    -0.292 OA
ATOM     34  C   UNL     1      10.022  -3.728   2.042  0.00  0.00    +0.091 C 
ENDBRANCH  29  32
ENDBRANCH  24  26
ENDBRANCH   3  24
TORSDOF 5
