REMARK  Name = ZINC59199441
REMARK  13 active torsions:
REMARK  status: ('A' for Active; 'I' for Inactive)
REMARK    1  A    between atoms: C_1  and  C_2
REMARK    2  A    between atoms: C_2  and  C_30
REMARK    3  A    between atoms: C_4  and  N_10
REMARK    4  A    between atoms: C_6  and  C_8
REMARK    5  A    between atoms: C_6  and  C_9
REMARK    6  A    between atoms: N_10  and  C_11
REMARK    7  A    between atoms: N_10  and  C_17
REMARK    8  A    between atoms: C_11  and  C_12
REMARK    9  A    between atoms: C_17  and  N_19
REMARK   10  A    between atoms: N_19  and  C_20
REMARK   11  A    between atoms: C_25  and  C_26
REMARK   12  A    between atoms: C_26  and  O_28
REMARK   13  A    between atoms: O_28  and  C_29
REMARK                            x       y       z     vdW  Elec       q    Type
REMARK                         _______ _______ _______ _____ _____    ______ ____
ROOT
ATOM      1  N   UNL     1       2.460  -0.754  -2.793  0.00  0.00    -0.305 N 
ENDROOT
BRANCH   1   5
ATOM      2  C   UNL     1       1.323  -0.082   1.408  0.00  0.00    -0.010 C 
ATOM      3  C   UNL     1       1.948   1.007   0.529  0.00  0.00    -0.072 C 
ATOM      4  C   UNL     1       2.698   0.364  -0.633  0.00  0.00    +0.009 C 
ATOM      5  C   UNL     1       1.712  -0.169  -1.674  0.00  0.00    +0.073 C 
ATOM      6  C   UNL     1       0.877   1.006  -2.184  0.00  0.00    +0.009 C 
ATOM      7  C   UNL     1       0.114   1.655  -1.034  0.00  0.00    -0.072 C 
ATOM      8  N   UNL     1       0.955   1.978   0.105  0.00  0.00    +0.386 N 
ATOM      9  C   UNL     1      -1.061   0.761  -0.623  0.00  0.00    -0.010 C 
ATOM     10  C   UNL     1      -0.487   2.977  -1.566  0.00  0.00    -0.010 C 
ATOM     11  C   UNL     1       2.990   1.748   1.398  0.00  0.00    -0.010 C 
ATOM     12  H   UNL     1       0.347   2.186   0.904  0.00  0.00    -0.084 HD
ATOM     13  H   UNL     1       1.435   2.862  -0.093  0.00  0.00    -0.084 HD
ENDBRANCH   1   5
BRANCH   1  14
ATOM     14  C   UNL     1       2.363  -2.073  -3.053  0.00  0.00    +0.138 C 
ATOM     15  S   UNL     1       1.274  -3.043  -2.157  0.00  0.00    -0.018 S 
BRANCH  14  16
ATOM     16  N   UNL     1       3.123  -2.628  -4.017  0.00  0.00    -0.296 N 
ATOM     17  H   UNL     1       3.790  -2.094  -4.477  0.00  0.00    +0.154 HD
BRANCH  16  18
ATOM     18  C   UNL     1       2.953  -3.967  -4.353  0.00  0.00    +0.047 A 
ATOM     19  C   UNL     1       2.884  -4.934  -3.357  0.00  0.00    +0.024 A 
ATOM     20  C   UNL     1       2.715  -6.261  -3.693  0.00  0.00    +0.002 A 
ATOM     21  C   UNL     1       2.611  -6.642  -5.022  0.00  0.00    +0.001 A 
ATOM     22  C   UNL     1       2.677  -5.698  -6.023  0.00  0.00    +0.017 A 
ATOM     23  C   UNL     1       2.843  -4.349  -5.699  0.00  0.00    +0.080 A 
BRANCH  23  24
ATOM     24  C   UNL     1       2.909  -3.333  -6.765  0.00  0.00    +0.341 C 
ATOM     25  O   UNL     1       3.144  -2.174  -6.486  0.00  0.00    -0.245 OA
BRANCH  24  26
ATOM     26  O   UNL     1       2.708  -3.690  -8.049  0.00  0.00    -0.464 OA
ATOM     27  C   UNL     1       2.786  -2.654  -9.030  0.00  0.00    +0.280 C 
ENDBRANCH  24  26
ENDBRANCH  23  24
ENDBRANCH  16  18
ENDBRANCH  14  16
ENDBRANCH   1  14
BRANCH   1  28
ATOM     28  C   UNL     1       3.311   0.096  -3.630  0.00  0.00    +0.149 C 
BRANCH  28  29
ATOM     29  C   UNL     1       4.702   0.137  -3.051  0.00  0.00    +0.007 A 
ATOM     30  C   UNL     1       5.758  -0.673  -3.309  0.00  0.00    +0.013 A 
ATOM     31  C   UNL     1       6.953  -0.446  -2.654  0.00  0.00    +0.008 A 
ATOM     32  C   UNL     1       7.035   0.582  -1.773  0.00  0.00    +0.045 A 
ATOM     33  S   UNL     1       5.390   1.271  -1.856  0.00  0.00    -0.100 S 
ENDBRANCH  28  29
ENDBRANCH   1  28
TORSDOF 8
