REMARK  Name = ZINC34927401
REMARK  5 active torsions:
REMARK  status: ('A' for Active; 'I' for Inactive)
REMARK    1  A    between atoms: C_1  and  O_2
REMARK    2  A    between atoms: O_2  and  C_3
REMARK    3  A    between atoms: C_3  and  C_4
REMARK    4  A    between atoms: C_4  and  N_5
REMARK    5  A    between atoms: N_18  and  C_19
REMARK                            x       y       z     vdW  Elec       q    Type
REMARK                         _______ _______ _______ _____ _____    ______ ____
ROOT
ATOM      1  N   UNL     1      -0.410  -2.555   1.189  0.00  0.00    -0.284 N 
ATOM      2  C   UNL     1       0.920  -2.558   1.187  0.00  0.00    +0.227 C 
ATOM      3  O   UNL     1       1.548  -2.203   0.212  0.00  0.00    -0.275 OA
ATOM      4  C   UNL     1       1.624  -3.023   2.454  0.00  0.00    +0.167 C 
ATOM      5  S   UNL     1       0.222  -2.974   3.654  0.00  0.00    -0.126 S 
ATOM      6  C   UNL     1      -1.120  -2.984   2.398  0.00  0.00    +0.087 C 
ATOM      7  C   UNL     1      -2.201  -1.990   2.792  0.00  0.00    +0.056 C 
ATOM      8  C   UNL     1      -3.303  -1.986   1.726  0.00  0.00    +0.112 C 
ATOM      9  N   UNL     1      -3.762  -3.366   1.518  0.00  0.00    -0.285 N 
ATOM     10  C   UNL     1      -2.773  -4.400   1.183  0.00  0.00    +0.112 C 
ATOM     11  C   UNL     1      -1.673  -4.392   2.252  0.00  0.00    +0.056 C 
ATOM     12  C   UNL     1      -5.068  -3.679   1.632  0.00  0.00    +0.303 C 
ATOM     13  O   UNL     1      -5.889  -2.802   1.818  0.00  0.00    -0.253 OA
ATOM     14  N   UNL     1      -5.463  -4.964   1.540  0.00  0.00    -0.294 N 
ATOM     15  H   UNL     1      -4.820  -5.655   1.319  0.00  0.00    +0.151 HD
ENDROOT
BRANCH  14  16
ATOM     16  C   UNL     1      -6.866  -5.317   1.773  0.00  0.00    +0.037 C 
ATOM     17  C   UNL     1      -7.266  -4.908   3.192  0.00  0.00    +0.029 C 
ATOM     18  C   UNL     1      -8.731  -5.276   3.435  0.00  0.00    -0.008 C 
ATOM     19  C   UNL     1      -8.911  -6.787   3.270  0.00  0.00    +0.007 C 
ATOM     20  C   UNL     1      -8.511  -7.196   1.851  0.00  0.00    -0.008 C 
ATOM     21  C   UNL     1      -7.046  -6.827   1.607  0.00  0.00    +0.029 C 
ATOM     22  C   UNL     1      -9.396  -6.463   0.840  0.00  0.00    +0.007 C 
ATOM     23  C   UNL     1      -9.216  -4.953   1.005  0.00  0.00    -0.008 C 
ATOM     24  C   UNL     1      -9.616  -4.544   2.424  0.00  0.00    +0.007 C 
ATOM     25  C   UNL     1      -7.751  -4.584   0.762  0.00  0.00    +0.029 C 
ENDBRANCH  14  16
BRANCH   1  26
ATOM     26  C   UNL     1      -1.154  -2.125   0.003  0.00  0.00    +0.137 C 
BRANCH  26  27
ATOM     27  C   UNL     1      -1.296  -0.601   0.015  0.00  0.00    +0.178 C 
BRANCH  27  29
ATOM     28  C   UNL     1      -0.029   1.427  -0.140  0.00  0.00    +0.194 C 
ATOM     29  O   UNL     1      -0.008  -0.002  -0.138  0.00  0.00    -0.381 OA
ENDBRANCH  27  29
ENDBRANCH  26  27
ENDBRANCH   1  26
TORSDOF 4
