REMARK  Name = ZINC39663999
REMARK  10 active torsions:
REMARK  status: ('A' for Active; 'I' for Inactive)
REMARK    1  A    between atoms: C_1  and  C_2
REMARK    2  A    between atoms: C_2  and  C_3
REMARK    3  A    between atoms: C_2  and  C_4
REMARK    4  A    between atoms: C_8  and  C_17
REMARK    5  A    between atoms: N_19  and  C_20
REMARK    6  A    between atoms: C_20  and  C_21
REMARK    7  A    between atoms: C_21  and  C_23
REMARK    8  A    between atoms: C_21  and  N_31
REMARK    9  A    between atoms: C_26  and  O_29
REMARK   10  A    between atoms: O_29  and  C_30
REMARK                            x       y       z     vdW  Elec       q    Type
REMARK                         _______ _______ _______ _____ _____    ______ ____
ROOT
ATOM      1  C   UNL     1      -0.497  -5.019   0.484  0.00  0.00    +0.218 C 
ATOM      2  O   UNL     1      -1.305  -5.773  -0.014  0.00  0.00    -0.275 OA
ATOM      3  N   UNL     1       0.817  -5.316   0.443  0.00  0.00    -0.316 N 
ATOM      4  H   UNL     1       1.464  -4.712   0.842  0.00  0.00    +0.149 HD
ENDROOT
BRANCH   1   9
ATOM      5  C   UNL     1      -3.814  -1.558   1.571  0.00  0.00    +0.218 C 
ATOM      6  O   UNL     1      -4.349  -1.187   2.595  0.00  0.00    -0.275 OA
ATOM      7  N   UNL     1      -3.062  -2.677   1.572  0.00  0.00    -0.300 N 
ATOM      8  C   UNL     1      -2.241  -3.220   0.464  0.00  0.00    +0.121 C 
ATOM      9  C   UNL     1      -0.962  -3.749   1.150  0.00  0.00    +0.100 C 
ATOM     10  C   UNL     1      -1.381  -4.026   2.603  0.00  0.00    -0.004 C 
ATOM     11  C   UNL     1      -2.865  -3.639   2.683  0.00  0.00    +0.115 C 
ATOM     12  C   UNL     1      -0.565  -3.164   3.562  0.00  0.00    -0.010 C 
ATOM     13  C   UNL     1      -0.960  -3.499   5.003  0.00  0.00    -0.082 C 
ATOM     14  N   UNL     1      -0.714  -4.923   5.262  0.00  0.00    +0.379 N 
ATOM     15  C   UNL     1      -1.571  -5.744   4.400  0.00  0.00    -0.082 C 
ATOM     16  C   UNL     1      -1.202  -5.505   2.933  0.00  0.00    -0.010 C 
ATOM     17  H   UNL     1       0.254  -5.135   5.073  0.00  0.00    -0.086 HD
ATOM     18  H   UNL     1      -0.917  -5.127   6.229  0.00  0.00    -0.086 HD
BRANCH   5  20
ATOM     19  C   UNL     1      -5.343  -0.056   0.325  0.00  0.00    +0.017 C 
ATOM     20  C   UNL     1      -3.990  -0.769   0.300  0.00  0.00    +0.069 C 
ATOM     21  C   UNL     1      -2.870   0.267   0.183  0.00  0.00    +0.017 C 
ENDBRANCH   5  20
ENDBRANCH   1   9
BRANCH   3  22
ATOM     22  C   UNL     1       1.269  -6.550  -0.204  0.00  0.00    +0.093 C 
BRANCH  22  23
ATOM     23  C   UNL     1       2.776  -6.713   0.005  0.00  0.00    -0.020 C 
BRANCH  23  24
ATOM     24  C   UNL     1       3.062  -6.914   1.471  0.00  0.00    -0.059 A 
ATOM     25  C   UNL     1       2.888  -8.160   2.043  0.00  0.00    +0.005 A 
ATOM     26  C   UNL     1       3.149  -8.347   3.387  0.00  0.00    +0.046 A 
ATOM     27  C   UNL     1       3.586  -7.283   4.162  0.00  0.00    +0.120 A 
ATOM     28  C   UNL     1       3.760  -6.033   3.585  0.00  0.00    +0.046 A 
ATOM     29  C   UNL     1       3.503  -5.853   2.240  0.00  0.00    +0.005 A 
BRANCH  27  30
ATOM     30  O   UNL     1       3.843  -7.464   5.484  0.00  0.00    -0.495 OA
ATOM     31  C   UNL     1       4.290  -6.323   6.220  0.00  0.00    +0.277 C 
ENDBRANCH  27  30
ENDBRANCH  23  24
BRANCH  23  32
ATOM     32  N   UNL     1       3.252  -7.879  -0.751  0.00  0.00    +0.385 N 
ATOM     33  C   UNL     1       3.049  -7.664  -2.207  0.00  0.00    -0.078 C 
ATOM     34  C   UNL     1       4.061  -8.641  -2.855  0.00  0.00    -0.020 C 
ATOM     35  C   UNL     1       5.277  -8.559  -1.905  0.00  0.00    -0.020 C 
ATOM     36  C   UNL     1       4.710  -8.045  -0.568  0.00  0.00    -0.078 C 
ATOM     37  H   UNL     1       2.767  -8.711  -0.451  0.00  0.00    -0.081 HD
ENDBRANCH  23  32
ENDBRANCH  22  23
ENDBRANCH   3  22
TORSDOF 7
