REMARK  Name = ZINC39672264
REMARK  10 active torsions:
REMARK  status: ('A' for Active; 'I' for Inactive)
REMARK    1  A    between atoms: C_1  and  C_2
REMARK    2  A    between atoms: C_2  and  C_3
REMARK    3  A    between atoms: C_3  and  C_4
REMARK    4  A    between atoms: C_4  and  C_5
REMARK    5  A    between atoms: C_5  and  C_7
REMARK    6  A    between atoms: C_5  and  C_8
REMARK    7  A    between atoms: C_12  and  C_21
REMARK    8  A    between atoms: N_23  and  C_24
REMARK    9  A    between atoms: C_24  and  C_25
REMARK   10  A    between atoms: N_34  and  C_35
REMARK                            x       y       z     vdW  Elec       q    Type
REMARK                         _______ _______ _______ _____ _____    ______ ____
ROOT
ATOM      1  C   UNL     1       1.893  -4.295   2.478  0.00  0.00    +0.218 C 
ATOM      2  O   UNL     1       1.605  -4.965   1.509  0.00  0.00    -0.275 OA
ATOM      3  N   UNL     1       2.345  -4.890   3.599  0.00  0.00    -0.300 N 
ATOM      4  C   UNL     1       2.639  -4.259   4.907  0.00  0.00    +0.121 C 
ATOM      5  C   UNL     1       2.138  -5.278   5.954  0.00  0.00    +0.100 C 
ATOM      6  C   UNL     1       2.155  -6.631   5.225  0.00  0.00    -0.004 C 
ATOM      7  C   UNL     1       2.653  -6.326   3.805  0.00  0.00    +0.115 C 
ATOM      8  C   UNL     1       0.748  -7.219   5.168  0.00  0.00    -0.010 C 
ATOM      9  C   UNL     1       0.799  -8.590   4.488  0.00  0.00    -0.082 C 
ATOM     10  N   UNL     1       1.692  -9.478   5.242  0.00  0.00    +0.379 N 
ATOM     11  C   UNL     1       3.063  -8.953   5.214  0.00  0.00    -0.082 C 
ATOM     12  C   UNL     1       3.107  -7.597   5.923  0.00  0.00    -0.010 C 
ATOM     13  H   UNL     1       1.376  -9.538   6.199  0.00  0.00    -0.086 HD
ATOM     14  H   UNL     1       1.677 -10.399   4.828  0.00  0.00    -0.086 HD
ENDROOT
BRANCH   5  15
ATOM     15  C   UNL     1       3.064  -5.308   7.143  0.00  0.00    +0.218 C 
ATOM     16  O   UNL     1       4.241  -5.051   7.001  0.00  0.00    -0.275 OA
ATOM     17  N   UNL     1       2.584  -5.621   8.363  0.00  0.00    -0.311 N 
ATOM     18  H   UNL     1       1.643  -5.826   8.476  0.00  0.00    +0.149 HD
BRANCH  17  19
ATOM     19  C   UNL     1       3.485  -5.650   9.518  0.00  0.00    +0.139 C 
BRANCH  19  20
ATOM     20  C   UNL     1       2.706  -6.024  10.753  0.00  0.00    -0.030 A 
ATOM     21  C   UNL     1       2.116  -5.038  11.522  0.00  0.00    +0.007 A 
ATOM     22  C   UNL     1       1.404  -5.381  12.653  0.00  0.00    +0.024 A 
ATOM     23  C   UNL     1       1.279  -6.717  13.019  0.00  0.00    +0.033 A 
ATOM     24  C   UNL     1       1.867  -7.705  12.246  0.00  0.00    -0.026 A 
ATOM     25  C   UNL     1       2.577  -7.353  11.110  0.00  0.00    +0.010 A 
ATOM     26  C   UNL     1       1.744  -9.162  12.604  0.00  0.00    +0.038 C 
ATOM     27  C   UNL     1       1.387  -9.322  14.082  0.00  0.00    +0.024 C 
ATOM     28  C   UNL     1       0.169  -8.442  14.396  0.00  0.00    +0.105 C 
ATOM     29  N   UNL     1       0.557  -7.043  14.172  0.00  0.00    -0.333 N 
ATOM     30  C   UNL     1       0.194  -6.005  15.141  0.00  0.00    +0.129 C 
ENDBRANCH  19  20
ENDBRANCH  17  19
ENDBRANCH   5  15
BRANCH   1  31
ATOM     31  C   UNL     1       1.744  -2.796   2.427  0.00  0.00    +0.072 C 
ATOM     32  C   UNL     1       0.335  -2.408   2.877  0.00  0.00    +0.017 C 
BRANCH  31  33
ATOM     33  C   UNL     1       1.975  -2.308   0.996  0.00  0.00    +0.012 C 
BRANCH  33  34
ATOM     34  C   UNL     1       1.948  -0.779   0.967  0.00  0.00    +0.000 C 
BRANCH  34  36
ATOM     35  C   UNL     1       2.152   1.238  -0.493  0.00  0.00    +0.004 C 
ATOM     36  C   UNL     1       2.179  -0.291  -0.464  0.00  0.00    -0.003 C 
ENDBRANCH  34  36
ENDBRANCH  33  34
ENDBRANCH  31  33
ENDBRANCH   1  31
TORSDOF 7
