REMARK  Name = ZINC41952442
REMARK  12 active torsions:
REMARK  status: ('A' for Active; 'I' for Inactive)
REMARK    1  A    between atoms: C_1  and  C_2
REMARK    2  A    between atoms: C_2  and  C_3
REMARK    3  A    between atoms: C_6  and  C_9
REMARK    4  A    between atoms: C_9  and  C_11
REMARK    5  A    between atoms: C_9  and  N_27
REMARK    6  A    between atoms: C_11  and  N_12
REMARK    7  A    between atoms: C_13  and  C_15
REMARK    8  A    between atoms: C_15  and  C_16
REMARK    9  A    between atoms: C_16  and  C_18
REMARK   10  A    between atoms: C_16  and  N_23
REMARK   11  A    between atoms: N_27  and  C_28
REMARK   12  A    between atoms: N_27  and  C_29
REMARK                            x       y       z     vdW  Elec       q    Type
REMARK                         _______ _______ _______ _____ _____    ______ ____
ROOT
ATOM      1  N   UNL     1       1.477  -3.957  -4.697  0.00  0.00    -0.316 N 
ATOM      2  C   UNL     1       1.339  -5.294  -4.608  0.00  0.00    +0.215 C 
ATOM      3  O   UNL     1       2.320  -6.007  -4.616  0.00  0.00    -0.276 OA
ATOM      4  H   UNL     1       0.692  -3.387  -4.691  0.00  0.00    +0.149 HD
ENDROOT
BRANCH   1   5
ATOM      5  C   UNL     1       2.812  -3.364  -4.805  0.00  0.00    +0.093 C 
BRANCH   5   6
ATOM      6  C   UNL     1       2.698  -1.839  -4.759  0.00  0.00    -0.021 C 
BRANCH   6  10
ATOM      7  C   UNL     1       1.235  -0.636  -0.930  0.00  0.00    -0.048 A 
ATOM      8  C   UNL     1       0.374  -0.702  -2.010  0.00  0.00    +0.004 A 
ATOM      9  C   UNL     1       0.848  -1.091  -3.249  0.00  0.00    +0.002 A 
ATOM     10  C   UNL     1       2.182  -1.414  -3.409  0.00  0.00    -0.059 A 
ATOM     11  C   UNL     1       3.043  -1.348  -2.329  0.00  0.00    +0.002 A 
ATOM     12  C   UNL     1       2.571  -0.955  -1.091  0.00  0.00    +0.004 A 
BRANCH   7  14
ATOM     13  C   UNL     1       0.833   1.307   0.556  0.00  0.00    +0.009 C 
ATOM     14  C   UNL     1       0.719  -0.213   0.420  0.00  0.00    +0.032 C 
ENDBRANCH   7  14
ENDBRANCH   6  10
BRANCH   6  15
ATOM     15  N   UNL     1       4.021  -1.242  -4.988  0.00  0.00    +0.382 N 
ATOM     16  C   UNL     1       4.516  -1.641  -6.312  0.00  0.00    -0.096 C 
ATOM     17  C   UNL     1       3.915   0.222  -4.927  0.00  0.00    -0.096 C 
ATOM     18  H   UNL     1       4.662  -1.562  -4.278  0.00  0.00    -0.082 HD
ENDBRANCH   6  15
ENDBRANCH   5   6
ENDBRANCH   1   5
BRANCH   2  19
ATOM     19  C   UNL     1      -0.035  -5.904  -4.497  0.00  0.00    +0.123 C 
BRANCH  19  20
ATOM     20  C   UNL     1       0.089  -7.427  -4.410  0.00  0.00    +0.120 C 
BRANCH  20  21
ATOM     21  N   UNL     1       0.776  -7.791  -3.168  0.00  0.00    -0.292 N 
ATOM     22  C   UNL     1       1.441  -8.960  -3.084  0.00  0.00    +0.298 C 
ATOM     23  O   UNL     1       1.471  -9.713  -4.038  0.00  0.00    -0.253 OA
ATOM     24  N   UNL     1       2.073  -9.295  -1.941  0.00  0.00    -0.313 N 
ATOM     25  H   UNL     1       0.752  -7.190  -2.407  0.00  0.00    +0.151 HD
ATOM     26  H   UNL     1       2.049  -8.694  -1.180  0.00  0.00    +0.146 HD
ATOM     27  H   UNL     1       2.551 -10.136  -1.881  0.00  0.00    +0.146 HD
ENDBRANCH  20  21
BRANCH  20  28
ATOM     28  C   UNL     1      -1.286  -8.044  -4.423  0.00  0.00    +0.010 A 
ATOM     29  C   UNL     1      -1.952  -8.621  -5.452  0.00  0.00    +0.013 A 
ATOM     30  C   UNL     1      -3.220  -9.127  -5.231  0.00  0.00    +0.008 A 
ATOM     31  C   UNL     1      -3.758  -9.031  -3.990  0.00  0.00    +0.045 A 
ATOM     32  S   UNL     1      -2.456  -8.211  -3.085  0.00  0.00    -0.100 S 
ENDBRANCH  20  28
ENDBRANCH  19  20
ENDBRANCH   2  19
TORSDOF 9
