REMARK  Name = ZINC15840437
REMARK  6 active torsions:
REMARK  status: ('A' for Active; 'I' for Inactive)
REMARK    1  A    between atoms: C_1  and  C_2
REMARK    2  A    between atoms: C_5  and  N_8
REMARK    3  A    between atoms: C_11  and  S_15
REMARK    4  A    between atoms: S_15  and  C_16
REMARK    5  A    between atoms: C_16  and  C_17
REMARK    6  A    between atoms: C_22  and  C_23
REMARK                            x       y       z     vdW  Elec       q    Type
REMARK                         _______ _______ _______ _____ _____    ______ ____
ROOT
ATOM      1  N   UNL     1       2.313   1.396  -0.013  0.00  0.00    -0.265 N 
ATOM      2  C   UNL     1       2.321   0.123  -0.510  0.00  0.00    +0.034 A 
ATOM      3  C   UNL     1       1.177  -0.597  -0.497  0.00  0.00    +0.004 A 
ATOM      4  C   UNL     1       0.006  -0.010   0.031  0.00  0.00    +0.107 A 
ATOM      5  N   UNL     1       0.047   1.230   0.504  0.00  0.00    -0.186 NA
ATOM      6  C   UNL     1       1.181   1.927   0.484  0.00  0.00    +0.354 A 
ATOM      7  O   UNL     1       1.194   3.064   0.924  0.00  0.00    -0.244 OA
ATOM      8  C   UNL     1       1.412  -1.967  -1.092  0.00  0.00    +0.040 C 
ATOM      9  C   UNL     1       2.744  -1.845  -1.865  0.00  0.00    +0.011 C 
ATOM     10  C   UNL     1       3.444  -0.690  -1.115  0.00  0.00    +0.054 C 
ENDROOT
BRANCH   1  15
ATOM     11  C   UNL     1       7.086   4.465  -0.040  0.00  0.00    +0.044 C 
ATOM     12  C   UNL     1       5.818   3.650  -0.033  0.00  0.00    -0.050 A 
ATOM     13  C   UNL     1       4.954   3.708  -1.111  0.00  0.00    +0.005 A 
ATOM     14  C   UNL     1       3.792   2.963  -1.107  0.00  0.00    +0.026 A 
ATOM     15  C   UNL     1       3.491   2.154  -0.019  0.00  0.00    +0.051 A 
ATOM     16  C   UNL     1       4.358   2.101   1.064  0.00  0.00    +0.026 A 
ATOM     17  C   UNL     1       5.521   2.845   1.052  0.00  0.00    +0.005 A 
ENDBRANCH   1  15
BRANCH   4  18
ATOM     18  S   UNL     1      -1.503  -0.920   0.063  0.00  0.00    -0.101 S 
BRANCH  18  19
ATOM     19  C   UNL     1      -2.595   0.309   0.821  0.00  0.00    +0.111 C 
BRANCH  19  20
ATOM     20  C   UNL     1      -3.982  -0.265   0.953  0.00  0.00    -0.034 A 
ATOM     21  C   UNL     1      -4.898  -0.101  -0.069  0.00  0.00    +0.005 A 
ATOM     22  C   UNL     1      -6.168  -0.632   0.049  0.00  0.00    +0.000 A 
ATOM     23  C   UNL     1      -6.527  -1.317   1.195  0.00  0.00    +0.000 A 
ATOM     24  C   UNL     1      -5.613  -1.477   2.219  0.00  0.00    +0.003 A 
ATOM     25  C   UNL     1      -4.340  -0.951   2.098  0.00  0.00    -0.046 A 
ATOM     26  C   UNL     1      -3.344  -1.125   3.216  0.00  0.00    +0.044 C 
ENDBRANCH  19  20
ENDBRANCH  18  19
ENDBRANCH   4  18
TORSDOF 4
