REMARK  Name = ZINC48331568
REMARK  10 active torsions:
REMARK  status: ('A' for Active; 'I' for Inactive)
REMARK    1  A    between atoms: C_1  and  N_2
REMARK    2  A    between atoms: N_2  and  C_3
REMARK    3  A    between atoms: N_2  and  C_4
REMARK    4  A    between atoms: C_4  and  C_5
REMARK    5  A    between atoms: C_8  and  C_11
REMARK    6  A    between atoms: C_16  and  C_17
REMARK    7  A    between atoms: C_17  and  N_18
REMARK    8  A    between atoms: C_19  and  C_21
REMARK    9  A    between atoms: C_21  and  C_22
REMARK   10  A    between atoms: C_22  and  C_23
REMARK                            x       y       z     vdW  Elec       q    Type
REMARK                         _______ _______ _______ _____ _____    ______ ____
ROOT
ATOM      1  C   UNL     1       0.796  -6.296   0.877  0.00  0.00    +0.140 C 
ENDROOT
BRANCH   1   7
ATOM      2  C   UNL     1      -1.431  -6.294  -0.286  0.00  0.00    -0.013 A 
ATOM      3  C   UNL     1      -2.430  -6.944  -1.008  0.00  0.00    +0.009 A 
ATOM      4  C   UNL     1      -2.287  -8.279  -1.330  0.00  0.00    +0.001 A 
ATOM      5  C   UNL     1      -1.155  -8.971  -0.938  0.00  0.00    +0.000 A 
ATOM      6  C   UNL     1      -0.161  -8.330  -0.221  0.00  0.00    +0.006 A 
ATOM      7  C   UNL     1      -0.291  -6.994   0.102  0.00  0.00    -0.023 A 
BRANCH   2  11
ATOM      8  C   UNL     1      -1.853  -2.182   0.713  0.00  0.00    -0.064 A 
ATOM      9  C   UNL     1      -2.819  -3.090   1.108  0.00  0.00    +0.002 A 
ATOM     10  C   UNL     1      -2.687  -4.426   0.786  0.00  0.00    +0.009 A 
ATOM     11  C   UNL     1      -1.578  -4.859   0.062  0.00  0.00    -0.018 A 
ATOM     12  C   UNL     1      -0.608  -3.940  -0.333  0.00  0.00    +0.009 A 
ATOM     13  C   UNL     1      -0.753  -2.606  -0.011  0.00  0.00    +0.002 A 
BRANCH   8  14
ATOM     14  C   UNL     1      -2.002  -0.725   1.067  0.00  0.00    -0.044 C 
BRANCH  14  16
ATOM     15  C   UNL     1      -2.994   1.355   0.402  0.00  0.00    -0.096 C 
ATOM     16  N   UNL     1      -2.744  -0.036   0.003  0.00  0.00    +0.379 N 
ATOM     17  C   UNL     1      -1.955  -0.056  -1.236  0.00  0.00    -0.096 C 
ATOM     18  H   UNL     1      -3.624  -0.505  -0.152  0.00  0.00    -0.082 HD
ENDBRANCH  14  16
ENDBRANCH   8  14
ENDBRANCH   2  11
ENDBRANCH   1   7
BRANCH   1  19
ATOM     19  N   UNL     1       0.348  -6.074   2.254  0.00  0.00    -0.311 N 
ATOM     20  C   UNL     1       1.120  -5.374   3.110  0.00  0.00    +0.213 C 
ATOM     21  O   UNL     1       2.185  -4.928   2.739  0.00  0.00    -0.276 OA
ATOM     22  H   UNL     1      -0.504  -6.430   2.550  0.00  0.00    +0.149 HD
BRANCH  20  23
ATOM     23  C   UNL     1       0.659  -5.146   4.526  0.00  0.00    +0.096 C 
BRANCH  23  24
ATOM     24  C   UNL     1       1.711  -4.330   5.279  0.00  0.00    +0.022 C 
BRANCH  24  25
ATOM     25  C   UNL     1       1.243  -4.098   6.718  0.00  0.00    +0.080 C 
ATOM     26  C   UNL     1       2.232  -3.176   7.431  0.00  0.00    +0.049 C 
ATOM     27  C   UNL     1       3.513  -3.922   7.706  0.00  0.00    -0.025 A 
ATOM     28  C   UNL     1       4.720  -3.251   7.681  0.00  0.00    +0.005 A 
ATOM     29  C   UNL     1       5.895  -3.931   7.945  0.00  0.00    +0.000 A 
ATOM     30  C   UNL     1       5.865  -5.282   8.237  0.00  0.00    +0.002 A 
ATOM     31  C   UNL     1       4.661  -5.958   8.259  0.00  0.00    +0.023 A 
ATOM     32  C   UNL     1       3.479  -5.280   7.987  0.00  0.00    +0.037 A 
ATOM     33  N   UNL     1       2.265  -5.971   7.976  0.00  0.00    -0.285 N 
ATOM     34  C   UNL     1       1.166  -5.418   7.438  0.00  0.00    +0.221 C 
ATOM     35  O   UNL     1       0.100  -5.989   7.533  0.00  0.00    -0.275 OA
ATOM     36  H   UNL     1       2.215  -6.860   8.361  0.00  0.00    +0.155 HD
ENDBRANCH  24  25
ENDBRANCH  23  24
ENDBRANCH  20  23
ENDBRANCH   1  19
TORSDOF 8
