REMARK  Name = ZINC14270396
REMARK  9 active torsions:
REMARK  status: ('A' for Active; 'I' for Inactive)
REMARK    1  A    between atoms: C_4  and  C_7
REMARK    2  A    between atoms: C_7  and  C_8
REMARK    3  A    between atoms: C_7  and  C_14
REMARK    4  A    between atoms: N_16  and  C_17
REMARK    5  A    between atoms: C_17  and  N_19
REMARK    6  A    between atoms: N_19  and  C_20
REMARK    7  A    between atoms: C_23  and  C_26
REMARK    8  A    between atoms: C_29  and  C_31
REMARK    9  A    between atoms: C_31  and  O_32
REMARK                            x       y       z     vdW  Elec       q    Type
REMARK                         _______ _______ _______ _____ _____    ______ ____
ROOT
ATOM      1  C   UNL     1       0.973   0.541  -0.233  0.00  0.00    +0.141 C 
ATOM      2  S   UNL     1       0.477   2.174  -0.372  0.00  0.00    -0.018 S 
ENDROOT
BRANCH   1   5
ATOM      3  C   UNL     1       3.128   1.244   0.326  0.00  0.00    +0.230 C 
ATOM      4  O   UNL     1       2.776   2.400   0.228  0.00  0.00    -0.274 OA
ATOM      5  N   UNL     1       2.246   0.250   0.102  0.00  0.00    -0.267 N 
ATOM      6  H   UNL     1       2.527  -0.675   0.181  0.00  0.00    +0.157 HD
BRANCH   3   7
ATOM      7  C   UNL     1       4.551   0.918   0.701  0.00  0.00    +0.135 C 
BRANCH   7  11
ATOM      8  C   UNL     1       6.354  -1.376  -2.420  0.00  0.00    +0.000 A 
ATOM      9  C   UNL     1       6.428  -1.812  -1.110  0.00  0.00    +0.000 A 
ATOM     10  C   UNL     1       5.845  -1.069  -0.100  0.00  0.00    +0.005 A 
ATOM     11  C   UNL     1       5.187   0.109  -0.400  0.00  0.00    -0.031 A 
ATOM     12  C   UNL     1       5.108   0.542  -1.711  0.00  0.00    +0.005 A 
ATOM     13  C   UNL     1       5.696  -0.198  -2.720  0.00  0.00    +0.000 A 
ENDBRANCH   7  11
BRANCH   7  14
ATOM     14  C   UNL     1       5.324   2.197   0.895  0.00  0.00    -0.031 A 
ATOM     15  C   UNL     1       5.337   3.155  -0.101  0.00  0.00    +0.005 A 
ATOM     16  C   UNL     1       6.043   4.330   0.080  0.00  0.00    +0.000 A 
ATOM     17  C   UNL     1       6.744   4.543   1.252  0.00  0.00    +0.000 A 
ATOM     18  C   UNL     1       6.736   3.581   2.246  0.00  0.00    +0.000 A 
ATOM     19  C   UNL     1       6.026   2.409   2.067  0.00  0.00    +0.005 A 
ENDBRANCH   7  14
ENDBRANCH   3   7
ENDBRANCH   1   5
BRANCH   1  20
ATOM     20  N   UNL     1       0.091  -0.453  -0.458  0.00  0.00    -0.297 N 
ATOM     21  H   UNL     1       0.391  -1.375  -0.462  0.00  0.00    +0.154 HD
BRANCH  20  22
ATOM     22  C   UNL     1      -1.254  -0.154  -0.692  0.00  0.00    +0.033 A 
ATOM     23  C   UNL     1      -1.888   0.826   0.065  0.00  0.00    +0.024 A 
ATOM     24  C   UNL     1      -3.213   1.127  -0.167  0.00  0.00    +0.013 A 
ATOM     25  C   UNL     1      -3.921   0.439  -1.155  0.00  0.00    +0.017 A 
ATOM     26  C   UNL     1      -3.283  -0.548  -1.908  0.00  0.00    +0.013 A 
ATOM     27  C   UNL     1      -1.957  -0.840  -1.675  0.00  0.00    +0.024 A 
BRANCH  25  28
ATOM     28  C   UNL     1      -5.343   0.756  -1.402  0.00  0.00    +0.135 A 
ATOM     29  C   UNL     1      -6.080   1.690  -0.743  0.00  0.00    +0.050 A 
ATOM     30  C   UNL     1      -7.374   1.654  -1.300  0.00  0.00    +0.047 A 
ATOM     31  C   UNL     1      -7.364   0.711  -2.261  0.00  0.00    +0.131 A 
ATOM     32  O   UNL     1      -6.134   0.174  -2.325  0.00  0.00    -0.457 OA
BRANCH  31  33
ATOM     33  C   UNL     1      -8.536   0.326  -3.127  0.00  0.00    +0.230 C 
BRANCH  33  34
ATOM     34  O   UNL     1      -8.541   1.132  -4.307  0.00  0.00    -0.387 OA
ATOM     35  H   UNL     1      -9.270   0.939  -4.912  0.00  0.00    +0.210 HD
ENDBRANCH  33  34
ENDBRANCH  31  33
ENDBRANCH  25  28
ENDBRANCH  20  22
ENDBRANCH   1  20
TORSDOF 9
