REMARK  Name = ZINC67294710
REMARK  6 active torsions:
REMARK  status: ('A' for Active; 'I' for Inactive)
REMARK    1  A    between atoms: C_1  and  C_2
REMARK    2  A    between atoms: C_6  and  N_8
REMARK    3  A    between atoms: C_9  and  C_11
REMARK    4  A    between atoms: N_21  and  C_22
REMARK    5  A    between atoms: C_26  and  S_28
REMARK    6  A    between atoms: S_28  and  C_29
REMARK                            x       y       z     vdW  Elec       q    Type
REMARK                         _______ _______ _______ _____ _____    ______ ____
ROOT
ATOM      1  C   UNL     1      -0.170  -4.648   3.755  0.00  0.00    +0.098 A 
ATOM      2  C   UNL     1      -0.142  -6.035   3.831  0.00  0.00    +0.030 A 
ATOM      3  C   UNL     1      -0.198  -6.637   5.165  0.00  0.00    +0.019 A 
ATOM      4  C   UNL     1       0.092  -7.994   5.350  0.00  0.00    +0.026 A 
ATOM      5  C   UNL     1       0.035  -8.535   6.616  0.00  0.00    +0.019 A 
ATOM      6  C   UNL     1      -0.305  -7.742   7.703  0.00  0.00    +0.019 A 
ATOM      7  C   UNL     1      -0.594  -6.403   7.535  0.00  0.00    +0.048 A 
ATOM      8  C   UNL     1      -0.546  -5.838   6.270  0.00  0.00    +0.137 A 
ATOM      9  O   UNL     1      -0.834  -4.526   6.089  0.00  0.00    -0.439 OA
ATOM     10  C   UNL     1      -0.248  -3.907   5.029  0.00  0.00    +0.212 A 
ATOM     11  N   UNL     1       0.232  -2.686   5.134  0.00  0.00    -0.325 N 
ATOM     12 BR   UNL     1       0.424 -10.368   6.873  0.00  0.00    -0.050 Br
ATOM     13  H   UNL     1       0.733  -2.298   4.400  0.00  0.00    +0.169 HD
ENDROOT
BRANCH  11  14
ATOM     14  C   UNL     1       0.023  -1.965   6.277  0.00  0.00    +0.043 A 
ATOM     15  C   UNL     1      -1.242  -1.943   6.871  0.00  0.00    +0.026 A 
ATOM     16  C   UNL     1      -1.450  -1.215   8.024  0.00  0.00    +0.003 A 
ATOM     17  C   UNL     1      -0.411  -0.505   8.597  0.00  0.00    +0.015 A 
ATOM     18  C   UNL     1       0.852  -0.520   8.014  0.00  0.00    +0.010 A 
ATOM     19  C   UNL     1       1.073  -1.253   6.858  0.00  0.00    +0.040 A 
BRANCH  18  20
ATOM     20  S   UNL     1       2.172   0.387   8.748  0.00  0.00    -0.129 S 
ATOM     21  C   UNL     1       1.416   1.158  10.206  0.00  0.00    +0.090 C 
ENDBRANCH  18  20
ENDBRANCH  11  14
BRANCH   1  23
ATOM     22  N   UNL     1      -0.288  -2.612   2.410  0.00  0.00    -0.266 N 
ATOM     23  C   UNL     1      -0.119  -3.948   2.461  0.00  0.00    +0.254 C 
ATOM     24  O   UNL     1       0.076  -4.575   1.437  0.00  0.00    -0.270 OA
ATOM     25  H   UNL     1      -0.396  -2.105   3.230  0.00  0.00    +0.157 HD
BRANCH  22  31
ATOM     26  C   UNL     1      -1.554   1.251  -0.122  0.00  0.00    +0.065 C 
ATOM     27  C   UNL     1      -0.907  -0.109  -0.063  0.00  0.00    +0.040 A 
ATOM     28  C   UNL     1      -0.365  -0.656  -1.210  0.00  0.00    +0.023 A 
ATOM     29  C   UNL     1       0.229  -1.909  -1.150  0.00  0.00    +0.005 A 
ATOM     30  C   UNL     1       0.256  -2.569   0.066  0.00  0.00    +0.044 A 
ATOM     31  C   UNL     1      -0.309  -1.958   1.180  0.00  0.00    +0.125 A 
ATOM     32  N   UNL     1      -0.862  -0.759   1.083  0.00  0.00    -0.237 NA
ENDBRANCH  22  31
ENDBRANCH   1  23
TORSDOF 4
