REMARK  Name = ZINC04029347
REMARK  6 active torsions:
REMARK  status: ('A' for Active; 'I' for Inactive)
REMARK    1  A    between atoms: C_1  and  C_2
REMARK    2  A    between atoms: C_2  and  C_3
REMARK    3  A    between atoms: C_3  and  C_4
REMARK    4  A    between atoms: C_4  and  N_5
REMARK    5  A    between atoms: C_25  and  C_26
REMARK    6  A    between atoms: C_25  and  C_27
REMARK                            x       y       z     vdW  Elec       q    Type
REMARK                         _______ _______ _______ _____ _____    ______ ____
ROOT
ATOM      1  N   UNL     1       1.063   1.794  -0.383  0.00  0.00    -0.291 N 
ATOM      2  C   UNL     1       1.220   3.239  -0.358  0.00  0.00    +0.203 C 
ATOM      3  C   UNL     1      -0.079   3.941  -0.124  0.00  0.00    +0.234 C 
ATOM      4  O   UNL     1      -0.063   5.152  -0.059  0.00  0.00    -0.274 OA
ATOM      5  N   UNL     1      -1.254   3.325   0.018  0.00  0.00    -0.278 N 
ATOM      6  C   UNL     1      -1.421   1.878  -0.125  0.00  0.00    +0.167 C 
ATOM      7  C   UNL     1      -0.111   1.175  -0.275  0.00  0.00    +0.237 C 
ATOM      8  O   UNL     1      -0.117  -0.038  -0.304  0.00  0.00    -0.274 OA
ATOM      9  C   UNL     1      -2.310   1.586  -1.336  0.00  0.00    +0.069 C 
ATOM     10  C   UNL     1      -3.497   2.514  -1.304  0.00  0.00    -0.015 A 
ATOM     11  C   UNL     1      -4.750   2.393  -2.022  0.00  0.00    +0.003 A 
ATOM     12  C   UNL     1      -5.242   1.438  -2.916  0.00  0.00    +0.010 A 
ATOM     13  C   UNL     1      -6.502   1.649  -3.418  0.00  0.00    +0.001 A 
ATOM     14  C   UNL     1      -7.262   2.751  -3.062  0.00  0.00    +0.002 A 
ATOM     15  C   UNL     1      -6.800   3.711  -2.178  0.00  0.00    +0.026 A 
ATOM     16  C   UNL     1      -5.523   3.524  -1.653  0.00  0.00    +0.047 A 
ATOM     17  N   UNL     1      -4.777   4.258  -0.777  0.00  0.00    -0.356 N 
ATOM     18  H   UNL     1      -5.060   5.088  -0.362  0.00  0.00    +0.166 HD
ATOM     19  C   UNL     1      -3.568   3.647  -0.573  0.00  0.00    +0.044 A 
ATOM     20  C   UNL     1      -2.454   4.131   0.327  0.00  0.00    +0.073 C 
ATOM     21  C   UNL     1      -2.848   3.938   1.793  0.00  0.00    +0.038 C 
ATOM     22  C   UNL     1      -2.171   5.610   0.054  0.00  0.00    +0.038 C 
ENDROOT
BRANCH   1  23
ATOM     23  C   UNL     1       2.266   0.972  -0.536  0.00  0.00    +0.108 C 
BRANCH  23  24
ATOM     24  C   UNL     1       2.530   0.728  -2.023  0.00  0.00    +0.019 C 
BRANCH  24  26
ATOM     25  C   UNL     1       4.051  -0.375  -3.671  0.00  0.00    +0.004 C 
ATOM     26  C   UNL     1       3.787  -0.131  -2.184  0.00  0.00    -0.002 C 
ENDBRANCH  24  26
ENDBRANCH  23  24
ENDBRANCH   1  23
TORSDOF 3
