REMARK  Name = ZINC05489276
REMARK  7 active torsions:
REMARK  status: ('A' for Active; 'I' for Inactive)
REMARK    1  A    between atoms: C_1  and  C_2
REMARK    2  A    between atoms: C_2  and  O_3
REMARK    3  A    between atoms: O_3  and  C_4
REMARK    4  A    between atoms: C_7  and  C_11
REMARK    5  A    between atoms: C_14  and  C_25
REMARK    6  A    between atoms: C_20  and  N_24
REMARK    7  A    between atoms: C_21  and  C_22
REMARK                            x       y       z     vdW  Elec       q    Type
REMARK                         _______ _______ _______ _____ _____    ______ ____
ROOT
ATOM      1  C   UNL     1       0.061  -4.278  -0.021  0.00  0.00    +0.101 C 
ATOM      2  C   UNL     1       0.802  -4.782   1.190  0.00  0.00    +0.049 A 
ATOM      3  C   UNL     1       0.410  -4.786   2.522  0.00  0.00    +0.068 A 
ATOM      4  N   UNL     1       1.376  -5.324   3.229  0.00  0.00    -0.176 NA
ATOM      5  N   UNL     1       2.418  -5.679   2.358  0.00  0.00    -0.246 N 
ATOM      6  H   UNL     1       3.330  -6.149   2.755  0.00  0.00    +0.192 HD
ATOM      7  C   UNL     1       2.047  -5.341   1.113  0.00  0.00    +0.222 A 
ATOM      8  O   UNL     1       2.713  -5.487  -0.059  0.00  0.00    -0.423 OA
ATOM      9  C   UNL     1       2.013  -5.320  -1.200  0.00  0.00    +0.200 C 
ATOM     10  C   UNL     1       0.779  -4.770  -1.253  0.00  0.00    +0.098 C 
ATOM     11  C   UNL     1      -0.897  -4.264   3.061  0.00  0.00    +0.068 C 
ENDROOT
BRANCH   1  15
ATOM     12  C   UNL     1       0.002  -0.004   0.002  0.00  0.00    +0.134 A 
ATOM     13  C   UNL     1       1.212  -0.682  -0.019  0.00  0.00    +0.047 A 
ATOM     14  C   UNL     1       1.228  -2.064  -0.020  0.00  0.00    +0.008 A 
ATOM     15  C   UNL     1       0.040  -2.771  -0.013  0.00  0.00    -0.033 A 
ATOM     16  C   UNL     1      -1.168  -2.098   0.002  0.00  0.00    +0.023 A 
ATOM     17  C   UNL     1      -1.190  -0.716   0.010  0.00  0.00    +0.060 A 
ATOM     18 BR   UNL     1      -2.841   0.205   0.030  0.00  0.00    -0.047 Br
BRANCH  12  19
ATOM     19  O   UNL     1      -0.016   1.355   0.009  0.00  0.00    -0.491 OA
BRANCH  19  21
ATOM     20  C   UNL     1       1.027   3.535   0.011  0.00  0.00    +0.048 C 
ATOM     21  C   UNL     1       1.248   2.021   0.001  0.00  0.00    +0.226 C 
ENDBRANCH  19  21
ENDBRANCH  12  19
ENDBRANCH   1  15
BRANCH   9  22
ATOM     22  N   UNL     1       2.587  -5.734  -2.377  0.00  0.00    -0.328 N 
ATOM     23  H   UNL     1       2.044  -5.613  -3.325  0.00  0.00    +0.145 HD
ATOM     24  H   UNL     1       3.590  -6.187  -2.370  0.00  0.00    +0.145 HD
ENDBRANCH   9  22
BRANCH  10  25
ATOM     25  C   UNL     1       0.131  -4.649  -2.524  0.00  0.00    +0.101 C 
ATOM     26  N   UNL     1      -0.384  -4.553  -3.532  0.00  0.00    -0.191 NA
ENDBRANCH  10  25
TORSDOF 5
