REMARK  Name = ZINC01015010
REMARK  3 active torsions:
REMARK  status: ('A' for Active; 'I' for Inactive)
REMARK    1  A    between atoms: C_1  and  C_2
REMARK    2  A    between atoms: C_5  and  C_9
REMARK    3  A    between atoms: C_12  and  C_14
REMARK                            x       y       z     vdW  Elec       q    Type
REMARK                         _______ _______ _______ _____ _____    ______ ____
ROOT
ATOM      1  C   UNL     1       4.741   4.129  -0.253  0.00  0.00    +0.137 A 
ATOM      2  C   UNL     1       5.964   3.494  -0.333  0.00  0.00    +0.050 A 
ATOM      3  C   UNL     1       5.719   2.125  -0.253  0.00  0.00    +0.050 A 
ATOM      4  C   UNL     1       4.345   1.969  -0.135  0.00  0.00    +0.129 A 
ATOM      5  O   UNL     1       3.781   3.197  -0.135  0.00  0.00    -0.455 OA
ENDROOT
BRANCH   4   6
ATOM      6  C   UNL     1       3.660   0.748  -0.030  0.00  0.00    +0.061 C 
ATOM      7  C   UNL     1       2.296   0.738   0.224  0.00  0.00    +0.073 C 
ATOM      8  C   UNL     1       1.468   1.890   0.613  0.00  0.00    +0.198 C 
ATOM      9  O   UNL     1       1.857   3.031   0.772  0.00  0.00    -0.287 OA
ATOM     10  C   UNL     1       0.074   1.409   0.776  0.00  0.00    +0.033 A 
ATOM     11  C   UNL     1      -1.094   2.074   1.135  0.00  0.00    +0.012 A 
ATOM     12  C   UNL     1      -2.290   1.379   1.214  0.00  0.00    +0.001 A 
ATOM     13  C   UNL     1      -2.329   0.025   0.945  0.00  0.00    +0.001 A 
ATOM     14  C   UNL     1      -1.174  -0.652   0.591  0.00  0.00    +0.012 A 
ATOM     15  C   UNL     1       0.034   0.032   0.504  0.00  0.00    +0.033 A 
ATOM     16  C   UNL     1       1.401  -0.428   0.155  0.00  0.00    +0.198 C 
ATOM     17  O   UNL     1       1.724  -1.564  -0.136  0.00  0.00    -0.287 OA
ENDBRANCH   4   6
BRANCH   1  22
ATOM     18  C   UNL     1       3.897   9.817  -0.396  0.00  0.00    +0.044 C 
ATOM     19  C   UNL     1       4.118   8.327  -0.359  0.00  0.00    -0.049 A 
ATOM     20  C   UNL     1       5.058   7.792   0.504  0.00  0.00    +0.004 A 
ATOM     21  C   UNL     1       5.262   6.429   0.548  0.00  0.00    +0.013 A 
ATOM     22  C   UNL     1       4.525   5.588  -0.290  0.00  0.00    +0.031 A 
ATOM     23  C   UNL     1       3.578   6.135  -1.160  0.00  0.00    +0.029 A 
ATOM     24  C   UNL     1       3.381   7.501  -1.189  0.00  0.00    +0.019 A 
ATOM     25 BR   UNL     1       2.568   5.008  -2.294  0.00  0.00    -0.050 Br
ENDBRANCH   1  22
TORSDOF 2
