REMARK  Name = ZINC18044973
REMARK  11 active torsions:
REMARK  status: ('A' for Active; 'I' for Inactive)
REMARK    1  A    between atoms: C_1  and  C_2
REMARK    2  A    between atoms: C_5  and  C_23
REMARK    3  A    between atoms: C_6  and  O_8
REMARK    4  A    between atoms: O_8  and  C_9
REMARK    5  A    between atoms: C_9  and  C_10
REMARK    6  A    between atoms: N_12  and  N_13
REMARK    7  A    between atoms: C_14  and  C_15
REMARK    8  A    between atoms: C_14  and  C_16
REMARK    9  A    between atoms: C_21  and  O_22
REMARK   10  A    between atoms: C_23  and  C_24
REMARK   11  A    between atoms: C_23  and  C_25
REMARK                            x       y       z     vdW  Elec       q    Type
REMARK                         _______ _______ _______ _____ _____    ______ ____
ROOT
ATOM      1  C   UNL     1       0.063  -2.932   4.751  0.00  0.00    +0.270 C 
ATOM      2  O   UNL     1       0.078  -4.133   4.584  0.00  0.00    -0.270 OA
ATOM      3  N   UNL     1       0.062  -2.425   6.000  0.00  0.00    -0.204 N 
ATOM      4  H   UNL     1       0.050  -1.465   6.134  0.00  0.00    +0.177 HD
ENDROOT
BRANCH   3   5
ATOM      5  N   UNL     1       0.078  -3.286   7.105  0.00  0.00    -0.184 NA
ATOM      6  C   UNL     1       0.077  -2.799   8.308  0.00  0.00    +0.067 C 
ATOM      7  C   UNL     1       0.058  -1.306   8.516  0.00  0.00    +0.068 C 
BRANCH   6   8
ATOM      8  C   UNL     1       0.095  -3.704   9.470  0.00  0.00    +0.039 A 
ATOM      9  C   UNL     1       0.088  -3.184  10.767  0.00  0.00    +0.013 A 
ATOM     10  C   UNL     1       0.104  -4.037  11.850  0.00  0.00    +0.001 A 
ATOM     11  C   UNL     1       0.126  -5.408  11.659  0.00  0.00    +0.004 A 
ATOM     12  C   UNL     1       0.134  -5.935  10.381  0.00  0.00    +0.046 A 
ATOM     13  C   UNL     1       0.112  -5.093   9.282  0.00  0.00    +0.126 A 
BRANCH  13  14
ATOM     14  O   UNL     1       0.114  -5.610   8.026  0.00  0.00    -0.506 OA
ATOM     15  H   UNL     1       0.998  -5.748   7.659  0.00  0.00    +0.292 HD
ENDBRANCH  13  14
ENDBRANCH   6   8
ENDBRANCH   3   5
BRANCH   1  16
ATOM     16  C   UNL     1       0.045  -2.006   3.562  0.00  0.00    +0.326 C 
BRANCH  16  17
ATOM     17  O   UNL     1       0.050  -2.776   2.358  0.00  0.00    -0.482 OA
BRANCH  17  23
ATOM     18  C   UNL     1      -0.018   1.503   0.010  0.00  0.00    +0.044 C 
ATOM     19  C   UNL     1       0.002  -0.004   0.002  0.00  0.00    -0.047 A 
ATOM     20  C   UNL     1       0.006  -0.688  -1.200  0.00  0.00    +0.004 A 
ATOM     21  C   UNL     1       0.024  -2.071  -1.211  0.00  0.00    +0.008 A 
ATOM     22  C   UNL     1       0.039  -2.772  -0.020  0.00  0.00    -0.003 A 
ATOM     23  C   UNL     1       0.035  -2.088   1.186  0.00  0.00    +0.125 A 
ATOM     24  C   UNL     1       0.023  -0.700   1.195  0.00  0.00    +0.049 A 
BRANCH  22  25
ATOM     25  C   UNL     1       0.059  -4.279  -0.033  0.00  0.00    +0.016 C 
ATOM     26  C   UNL     1      -1.188  -4.799  -0.753  0.00  0.00    +0.012 C 
ATOM     27  C   UNL     1       1.311  -4.766  -0.764  0.00  0.00    +0.012 C 
ENDBRANCH  22  25
ENDBRANCH  17  23
ENDBRANCH  16  17
ENDBRANCH   1  16
TORSDOF 7
