REMARK  Name = ZINC22257368
REMARK  7 active torsions:
REMARK  status: ('A' for Active; 'I' for Inactive)
REMARK    1  A    between atoms: C_1  and  C_2
REMARK    2  A    between atoms: C_6  and  C_9
REMARK    3  A    between atoms: C_7  and  O_8
REMARK    4  A    between atoms: C_9  and  C_11
REMARK    5  A    between atoms: C_9  and  N_23
REMARK    6  A    between atoms: C_17  and  C_22
REMARK    7  A    between atoms: C_20  and  O_21
REMARK                            x       y       z     vdW  Elec       q    Type
REMARK                         _______ _______ _______ _____ _____    ______ ____
ROOT
ATOM      1  C   UNL     1       2.485   1.039  -0.016  0.00  0.00    +0.139 C 
ENDROOT
BRANCH   1   2
ATOM      2  C   UNL     1       2.894   0.942   1.431  0.00  0.00    +0.021 A 
ATOM      3  C   UNL     1       1.950   1.175   2.427  0.00  0.00    +0.010 A 
ATOM      4  C   UNL     1       2.286   1.090   3.744  0.00  0.00    +0.010 A 
ATOM      5  C   UNL     1       3.605   0.774   4.107  0.00  0.00    +0.004 A 
ATOM      6  C   UNL     1       3.992   0.682   5.458  0.00  0.00    +0.012 A 
ATOM      7  C   UNL     1       5.292   0.371   5.736  0.00  0.00    +0.023 A 
ATOM      8  C   UNL     1       6.193   0.154   4.696  0.00  0.00    +0.039 A 
ATOM      9  N   UNL     1       5.829   0.241   3.439  0.00  0.00    -0.248 NA
ATOM     10  C   UNL     1       4.572   0.541   3.099  0.00  0.00    +0.113 A 
ATOM     11  C   UNL     1       4.186   0.632   1.745  0.00  0.00    +0.148 A 
ATOM     12  C   UNL     1       7.623  -0.188   5.023  0.00  0.00    +0.065 C 
BRANCH  11  13
ATOM     13  O   UNL     1       5.095   0.413   0.760  0.00  0.00    -0.504 OA
ATOM     14  H   UNL     1       6.136   0.164   1.016  0.00  0.00    +0.292 HD
ENDBRANCH  11  13
ENDBRANCH   1   2
BRANCH   1  15
ATOM     15  N   UNL     1       2.332  -0.308  -0.572  0.00  0.00    -0.319 N 
ATOM     16  C   UNL     1       2.444  -0.511  -1.943  0.00  0.00    +0.097 A 
ATOM     17  C   UNL     1       2.697   0.570  -2.782  0.00  0.00    +0.041 A 
ATOM     18  C   UNL     1       2.812   0.352  -4.143  0.00  0.00    +0.005 A 
ATOM     19  C   UNL     1       2.659  -0.942  -4.622  0.00  0.00    +0.018 A 
ATOM     20  C   UNL     1       2.404  -1.967  -3.733  0.00  0.00    +0.084 A 
ATOM     21  N   UNL     1       2.305  -1.731  -2.439  0.00  0.00    -0.350 N 
ATOM     22  H   UNL     1       2.128  -1.158   0.095  0.00  0.00    +0.148 HD
ATOM     23  H   UNL     1       2.101  -2.578  -1.767  0.00  0.00    +0.166 HD
ENDBRANCH   1  15
BRANCH   1  29
ATOM     24  C   UNL     1      -0.066   5.347  -0.284  0.00  0.00    +0.047 C 
ATOM     25  C   UNL     1      -0.047   3.841  -0.249  0.00  0.00    -0.009 A 
ATOM     26  C   UNL     1      -1.231   3.132  -0.311  0.00  0.00    +0.007 A 
ATOM     27  C   UNL     1      -1.213   1.750  -0.284  0.00  0.00    +0.001 A 
ATOM     28  C   UNL     1      -0.011   1.073  -0.183  0.00  0.00    +0.009 A 
ATOM     29  C   UNL     1       1.175   1.777  -0.120  0.00  0.00    +0.019 A 
ATOM     30  C   UNL     1       1.161   3.164  -0.153  0.00  0.00    +0.125 A 
BRANCH  30  31
ATOM     31  O   UNL     1       2.327   3.859  -0.092  0.00  0.00    -0.506 OA
ATOM     32  H   UNL     1       3.284   3.322  -0.016  0.00  0.00    +0.292 HD
ENDBRANCH  30  31
ENDBRANCH   1  29
TORSDOF 5
