REMARK  Name = ZINC30496443
REMARK  13 active torsions:
REMARK  status: ('A' for Active; 'I' for Inactive)
REMARK    1  A    between atoms: C_1  and  C_2
REMARK    2  A    between atoms: C_2  and  N_3
REMARK    3  A    between atoms: N_3  and  C_4
REMARK    4  A    between atoms: N_3  and  C_6
REMARK    5  A    between atoms: C_4  and  C_5
REMARK    6  A    between atoms: C_6  and  C_8
REMARK    7  A    between atoms: C_6  and  C_24
REMARK    8  A    between atoms: C_8  and  N_9
REMARK    9  A    between atoms: N_9  and  S_10
REMARK   10  A    between atoms: S_10  and  C_13
REMARK   11  A    between atoms: C_15  and  N_21
REMARK   12  A    between atoms: C_18  and  O_19
REMARK   13  A    between atoms: O_19  and  C_20
REMARK                            x       y       z     vdW  Elec       q    Type
REMARK                         _______ _______ _______ _____ _____    ______ ____
ROOT
ATOM      1  N   UNL     1       1.447  -1.723  -3.477  0.00  0.00    -0.191 NA
ATOM      2  H   UNL     1       0.995  -2.328  -2.868  0.00  0.00    +0.148 HD
ENDROOT
BRANCH   1   3
ATOM      3  S   UNL     1       2.616  -2.297  -4.499  0.00  0.00    +0.062 S 
ATOM      4  O   UNL     1       2.745  -3.687  -4.230  0.00  0.00    -0.153 OA
ATOM      5  O   UNL     1       2.306  -1.798  -5.793  0.00  0.00    -0.153 OA
BRANCH   3   6
ATOM      6  C   UNL     1       4.138  -1.549  -4.022  0.00  0.00    +0.149 A 
ATOM      7  C   UNL     1       5.167  -2.328  -3.529  0.00  0.00    +0.065 A 
ATOM      8  C   UNL     1       6.362  -1.742  -3.155  0.00  0.00    +0.128 A 
ATOM      9  C   UNL     1       6.530  -0.374  -3.273  0.00  0.00    +0.036 A 
ATOM     10  C   UNL     1       5.505   0.409  -3.765  0.00  0.00    +0.050 A 
ATOM     11  C   UNL     1       4.307  -0.178  -4.147  0.00  0.00    +0.146 A 
BRANCH   8  12
ATOM     12  N   UNL     1       7.462  -2.579  -2.627  0.00  0.00    +0.056 N 
ATOM     13  O   UNL     1       7.316  -3.774  -2.523  0.00  0.00    -0.126 OA
ATOM     14  O   UNL     1       8.507  -2.067  -2.299  0.00  0.00    -0.126 OA
ENDBRANCH   8  12
BRANCH  11  15
ATOM     15  O   UNL     1       3.298   0.590  -4.637  0.00  0.00    -0.493 OA
ATOM     16  C   UNL     1       3.542   1.995  -4.737  0.00  0.00    +0.277 C 
ENDBRANCH  11  15
ENDBRANCH   3   6
ENDBRANCH   1   3
BRANCH   1  17
ATOM     17  C   UNL     1       1.095  -0.301  -3.492  0.00  0.00    +0.095 C 
BRANCH  17  18
ATOM     18  C   UNL     1      -0.322  -0.120  -2.943  0.00  0.00    -0.021 C 
BRANCH  18  19
ATOM     19  C   UNL     1      -0.631   1.350  -2.824  0.00  0.00    -0.041 A 
ATOM     20  C   UNL     1       0.025   2.120  -1.883  0.00  0.00    +0.003 A 
ATOM     21  C   UNL     1      -0.258   3.469  -1.774  0.00  0.00    +0.000 A 
ATOM     22  C   UNL     1      -1.198   4.048  -2.606  0.00  0.00    +0.001 A 
ATOM     23  C   UNL     1      -1.856   3.278  -3.547  0.00  0.00    +0.020 A 
ATOM     24  C   UNL     1      -1.568   1.929  -3.661  0.00  0.00    +0.043 A 
ATOM     25 CL   UNL     1      -2.389   0.963  -4.847  0.00  0.00    -0.083 Cl
ENDBRANCH  18  19
BRANCH  18  26
ATOM     26  N   UNL     1      -0.418  -0.750  -1.619  0.00  0.00    +0.385 N 
ATOM     27  H   UNL     1      -0.503  -1.749  -1.727  0.00  0.00    -0.081 HD
BRANCH  26  29
ATOM     28  C   UNL     1       1.145  -1.639   0.043  0.00  0.00    -0.017 C 
ATOM     29  C   UNL     1       0.790  -0.442  -0.842  0.00  0.00    -0.081 C 
ENDBRANCH  26  29
BRANCH  26  30
ATOM     30  C   UNL     1      -1.598  -0.231  -0.915  0.00  0.00    -0.081 C 
ATOM     31  C   UNL     1      -2.865  -0.657  -1.659  0.00  0.00    -0.017 C 
ENDBRANCH  26  30
ENDBRANCH  18  26
ENDBRANCH  17  18
ENDBRANCH   1  17
TORSDOF 10
