REMARK  Name = ZINC64986789
REMARK  8 active torsions:
REMARK  status: ('A' for Active; 'I' for Inactive)
REMARK    1  A    between atoms: C_1  and  C_2
REMARK    2  A    between atoms: C_2  and  N_3
REMARK    3  A    between atoms: N_3  and  C_4
REMARK    4  A    between atoms: N_3  and  S_5
REMARK    5  A    between atoms: S_5  and  C_8
REMARK    6  A    between atoms: C_13  and  O_14
REMARK    7  A    between atoms: O_14  and  C_15
REMARK    8  A    between atoms: C_26  and  C_32
REMARK                            x       y       z     vdW  Elec       q    Type
REMARK                         _______ _______ _______ _____ _____    ______ ____
ROOT
ATOM      1  C   UNL     1       0.200   0.366  -3.500  0.00  0.00    +0.148 A 
ATOM      2  C   UNL     1       1.046   0.216  -4.575  0.00  0.00    +0.049 A 
ATOM      3  C   UNL     1       0.912   1.046  -5.694  0.00  0.00    +0.081 A 
ATOM      4  C   UNL     1      -0.105   2.011  -5.721  0.00  0.00    +0.144 A 
ATOM      5  C   UNL     1      -0.938   2.165  -4.627  0.00  0.00    +0.095 A 
ATOM      6  C   UNL     1      -0.792   1.341  -3.520  0.00  0.00    +0.158 A 
ATOM      7  O   UNL     1      -0.296   2.772  -6.824  0.00  0.00    -0.453 OA
ATOM      8  C   UNL     1      -0.632   2.154  -7.984  0.00  0.00    +0.150 A 
ATOM      9  C   UNL     1      -1.867   2.426  -8.556  0.00  0.00    +0.048 A 
ATOM     10  C   UNL     1      -2.249   1.791  -9.722  0.00  0.00    +0.007 A 
ATOM     11  C   UNL     1      -1.400   0.881 -10.323  0.00  0.00    -0.048 A 
ATOM     12  C   UNL     1      -0.165   0.614  -9.766  0.00  0.00    +0.030 A 
ATOM     13  C   UNL     1       0.233   1.259  -8.600  0.00  0.00    +0.077 A 
ATOM     14  N   UNL     1       1.511   1.016  -8.098  0.00  0.00    -0.278 N 
ATOM     15  C   UNL     1       1.842   0.906  -6.819  0.00  0.00    +0.252 C 
ATOM     16  O   UNL     1       3.006   0.670  -6.559  0.00  0.00    -0.270 OA
ATOM     17  C   UNL     1      -1.823   0.178 -11.588  0.00  0.00    +0.044 C 
ATOM     18  H   UNL     1       2.225   0.918  -8.747  0.00  0.00    +0.155 HD
ENDROOT
BRANCH   1  19
ATOM     19  S   UNL     1       0.370  -0.686  -2.097  0.00  0.00    +0.064 S 
ATOM     20  O   UNL     1       1.474  -1.540  -2.361  0.00  0.00    -0.153 OA
ATOM     21  O   UNL     1      -0.928  -1.187  -1.805  0.00  0.00    -0.153 OA
BRANCH  19  22
ATOM     22  N   UNL     1       0.806   0.270  -0.818  0.00  0.00    -0.180 NA
ATOM     23  C   UNL     1      -0.216   0.773   0.104  0.00  0.00    +0.131 C 
BRANCH  22  25
ATOM     24  C   UNL     1       2.835  -0.365   0.392  0.00  0.00    +0.022 C 
ATOM     25  C   UNL     1       2.215   0.614  -0.607  0.00  0.00    +0.106 C 
ENDBRANCH  22  25
ENDBRANCH  19  22
ENDBRANCH   1  19
BRANCH   6  26
ATOM     26  O   UNL     1      -1.616   1.490  -2.452  0.00  0.00    -0.454 OA
BRANCH  26  27
ATOM     27  C   UNL     1      -2.753   0.747  -2.415  0.00  0.00    +0.129 A 
ATOM     28  C   UNL     1      -3.051  -0.120  -3.457  0.00  0.00    +0.048 A 
ATOM     29  C   UNL     1      -4.207  -0.875  -3.417  0.00  0.00    +0.023 A 
ATOM     30  C   UNL     1      -5.069  -0.767  -2.339  0.00  0.00    +0.041 A 
ATOM     31  C   UNL     1      -4.774   0.098  -1.300  0.00  0.00    +0.023 A 
ATOM     32  C   UNL     1      -3.616   0.850  -1.333  0.00  0.00    +0.048 A 
ATOM     33 CL   UNL     1      -6.521  -1.716  -2.292  0.00  0.00    -0.084 Cl
ENDBRANCH  26  27
ENDBRANCH   6  26
TORSDOF 5
