REMARK  Name = ZINC36129043
REMARK  8 active torsions:
REMARK  status: ('A' for Active; 'I' for Inactive)
REMARK    1  A    between atoms: C_1  and  C_2
REMARK    2  A    between atoms: C_2  and  N_3
REMARK    3  A    between atoms: C_4  and  C_6
REMARK    4  A    between atoms: C_6  and  C_8
REMARK    5  A    between atoms: C_6  and  N_9
REMARK    6  A    between atoms: N_9  and  S_10
REMARK    7  A    between atoms: S_10  and  C_13
REMARK    8  A    between atoms: C_14  and  N_21
REMARK                            x       y       z     vdW  Elec       q    Type
REMARK                         _______ _______ _______ _____ _____    ______ ____
ROOT
ATOM      1  S   UNL     1       3.617  -5.060   3.370  0.00  0.00    +0.062 S 
ATOM      2  O   UNL     1       3.543  -6.477   3.448  0.00  0.00    -0.153 OA
ATOM      3  O   UNL     1       4.767  -4.382   2.883  0.00  0.00    -0.153 OA
ENDROOT
BRANCH   1   4
ATOM      4  C   UNL     1       3.325  -4.450   4.997  0.00  0.00    +0.144 A 
ATOM      5  C   UNL     1       3.828  -3.212   5.377  0.00  0.00    +0.054 A 
ATOM      6  C   UNL     1       3.595  -2.734   6.660  0.00  0.00    +0.044 A 
ATOM      7  C   UNL     1       2.864  -3.491   7.556  0.00  0.00    +0.044 A 
ATOM      8  C   UNL     1       2.364  -4.724   7.175  0.00  0.00    +0.042 A 
ATOM      9  C   UNL     1       2.590  -5.200   5.896  0.00  0.00    +0.070 A 
ATOM     10 CL   UNL     1       1.954  -6.744   5.420  0.00  0.00    -0.081 Cl
ATOM     11 CL   UNL     1       2.573  -2.895   9.160  0.00  0.00    -0.083 Cl
BRANCH   5  12
ATOM     12  N   UNL     1       4.567  -2.450   4.469  0.00  0.00    -0.356 N 
ATOM     13  H   UNL     1       4.460  -2.592   3.516  0.00  0.00    +0.142 HD
ATOM     14  H   UNL     1       5.188  -1.778   4.793  0.00  0.00    +0.142 HD
ENDBRANCH   5  12
ENDBRANCH   1   4
BRANCH   1  15
ATOM     15  N   UNL     1       2.345  -4.571   2.429  0.00  0.00    -0.178 NA
ATOM     16  H   UNL     1       1.745  -5.230   2.045  0.00  0.00    +0.149 HD
BRANCH  15  17
ATOM     17  C   UNL     1       2.127  -3.145   2.175  0.00  0.00    +0.159 C 
ATOM     18  C   UNL     1       1.117  -2.596   3.184  0.00  0.00    +0.035 C 
BRANCH  17  20
ATOM     19  N   UNL     1       1.317  -1.722   0.322  0.00  0.00    -0.314 N 
ATOM     20  C   UNL     1       1.593  -2.959   0.778  0.00  0.00    +0.231 C 
ATOM     21  O   UNL     1       1.413  -3.923   0.064  0.00  0.00    -0.274 OA
ATOM     22  H   UNL     1       1.461  -0.951   0.892  0.00  0.00    +0.149 HD
BRANCH  19  24
ATOM     23  C   UNL     1       0.570  -0.051  -1.301  0.00  0.00    +0.024 C 
ATOM     24  C   UNL     1       0.798  -1.541  -1.036  0.00  0.00    +0.101 C 
ENDBRANCH  19  24
ENDBRANCH  17  20
ENDBRANCH  15  17
ENDBRANCH   1  15
TORSDOF 6
