REMARK  Name = ZINC42996677
REMARK  11 active torsions:
REMARK  status: ('A' for Active; 'I' for Inactive)
REMARK    1  A    between atoms: C_1  and  C_2
REMARK    2  A    between atoms: C_2  and  C_3
REMARK    3  A    between atoms: C_2  and  C_4
REMARK    4  A    between atoms: C_4  and  C_6
REMARK    5  A    between atoms: C_4  and  S_21
REMARK    6  A    between atoms: N_8  and  C_9
REMARK    7  A    between atoms: C_9  and  C_10
REMARK    8  A    between atoms: C_10  and  C_11
REMARK    9  A    between atoms: S_21  and  C_22
REMARK   10  A    between atoms: C_25  and  C_29
REMARK   11  A    between atoms: C_26  and  N_28
REMARK                            x       y       z     vdW  Elec       q    Type
REMARK                         _______ _______ _______ _____ _____    ______ ____
ROOT
ATOM      1  C   UNL     1      -1.384  -0.408  -0.096  0.00  0.00    +0.142 C 
ENDROOT
BRANCH   1   2
ATOM      2  C   UNL     1      -1.756  -0.015  -1.502  0.00  0.00    +0.227 C 
ATOM      3  O   UNL     1      -1.669  -0.825  -2.401  0.00  0.00    -0.275 OA
ATOM      4  N   UNL     1      -2.186   1.235  -1.761  0.00  0.00    -0.314 N 
ATOM      5  H   UNL     1      -2.256   1.883  -1.043  0.00  0.00    +0.149 HD
BRANCH   4   6
ATOM      6  C   UNL     1      -2.548   1.617  -3.129  0.00  0.00    +0.109 C 
BRANCH   6   7
ATOM      7  C   UNL     1      -2.999   3.079  -3.148  0.00  0.00    +0.056 C 
BRANCH   7   8
ATOM      8  C   UNL     1      -3.372   3.471  -4.554  0.00  0.00    -0.021 A 
ATOM      9  C   UNL     1      -2.575   4.071  -5.453  0.00  0.00    +0.087 A 
ATOM     10  N   UNL     1      -3.259   4.271  -6.622  0.00  0.00    -0.360 N 
ATOM     11  H   UNL     1      -2.892   4.687  -7.417  0.00  0.00    +0.165 HD
ATOM     12  C   UNL     1      -4.544   3.792  -6.500  0.00  0.00    +0.047 A 
ATOM     13  C   UNL     1      -4.669   3.265  -5.202  0.00  0.00    +0.003 A 
ATOM     14  C   UNL     1      -5.878   2.699  -4.794  0.00  0.00    +0.010 A 
ATOM     15  C   UNL     1      -6.934   2.657  -5.660  0.00  0.00    +0.001 A 
ATOM     16  C   UNL     1      -6.815   3.172  -6.943  0.00  0.00    +0.002 A 
ATOM     17  C   UNL     1      -5.633   3.744  -7.364  0.00  0.00    +0.026 A 
ENDBRANCH   7   8
ENDBRANCH   6   7
ENDBRANCH   4   6
ENDBRANCH   1   2
BRANCH   1  19
ATOM     18  C   UNL     1       0.062   1.623   0.072  0.00  0.00    +0.009 C 
ATOM     19  C   UNL     1       0.024   0.100   0.220  0.00  0.00    +0.005 C 
ATOM     20  C   UNL     1       0.395  -0.282   1.654  0.00  0.00    +0.009 C 
ENDBRANCH   1  19
BRANCH   1  21
ATOM     21  S   UNL     1      -1.423  -2.215   0.059  0.00  0.00    -0.073 S 
BRANCH  21  22
ATOM     22  C   UNL     1      -3.131  -2.619  -0.099  0.00  0.00    +0.191 A 
ATOM     23  N   UNL     1      -4.018  -1.636  -0.202  0.00  0.00    -0.229 NA
ATOM     24  C   UNL     1      -5.308  -1.891  -0.322  0.00  0.00    +0.136 A 
ATOM     25  C   UNL     1      -5.740  -3.222  -0.339  0.00  0.00    +0.109 A 
ATOM     26  C   UNL     1      -4.768  -4.239  -0.227  0.00  0.00    +0.138 A 
ATOM     27  N   UNL     1      -3.490  -3.895  -0.115  0.00  0.00    -0.206 NA
BRANCH  26  28
ATOM     28  N   UNL     1      -5.138  -5.569  -0.237  0.00  0.00    -0.342 N 
ATOM     29  H   UNL     1      -6.073  -5.811  -0.323  0.00  0.00    +0.144 HD
ATOM     30  H   UNL     1      -4.463  -6.261  -0.160  0.00  0.00    +0.144 HD
ENDBRANCH  26  28
BRANCH  25  31
ATOM     31  C   UNL     1      -7.130  -3.543  -0.467  0.00  0.00    +0.104 C 
ATOM     32  N   UNL     1      -8.232  -3.797  -0.568  0.00  0.00    -0.191 NA
ENDBRANCH  25  31
ENDBRANCH  21  22
ENDBRANCH   1  21
TORSDOF 9
