REMARK  Name = ZINC06121433
REMARK  7 active torsions:
REMARK  status: ('A' for Active; 'I' for Inactive)
REMARK    1  A    between atoms: C_9  and  C_12
REMARK    2  A    between atoms: C_10  and  O_11
REMARK    3  A    between atoms: C_12  and  O_14
REMARK    4  A    between atoms: O_14  and  C_15
REMARK    5  A    between atoms: C_15  and  C_16
REMARK    6  A    between atoms: N_18  and  C_19
REMARK    7  A    between atoms: C_20  and  C_27
REMARK                            x       y       z     vdW  Elec       q    Type
REMARK                         _______ _______ _______ _____ _____    ______ ____
ROOT
ATOM      1  C   UNL     1       3.564  10.136   0.017  0.00  0.00    +0.255 C 
ATOM      2  O   UNL     1       4.528   9.400   0.005  0.00  0.00    -0.272 OA
ATOM      3  N   UNL     1       3.735  11.473   0.022  0.00  0.00    -0.277 N 
ATOM      4  H   UNL     1       2.964  12.060   0.032  0.00  0.00    +0.155 HD
ENDROOT
BRANCH   3   5
ATOM      5  C   UNL     1       5.014  12.007   0.012  0.00  0.00    +0.084 A 
ATOM      6  C   UNL     1       5.390  13.340   0.009  0.00  0.00    +0.068 A 
ATOM      7  C   UNL     1       6.821  13.640   0.002  0.00  0.00    -0.023 A 
ATOM      8  C   UNL     1       7.630  12.565  -0.010  0.00  0.00    -0.004 A 
ATOM      9  S   UNL     1       6.530  11.171  -0.007  0.00  0.00    -0.077 S 
ATOM     10  C   UNL     1       9.084  12.954  -0.019  0.00  0.00    +0.043 C 
ATOM     11  C   UNL     1       9.095  14.433   0.426  0.00  0.00    +0.010 C 
ATOM     12  C   UNL     1       7.689  14.899  -0.002  0.00  0.00    +0.037 C 
BRANCH   6  13
ATOM     13  C   UNL     1       4.389  14.411   0.017  0.00  0.00    +0.244 C 
ATOM     14  O   UNL     1       3.982  14.856   1.074  0.00  0.00    -0.270 OA
ATOM     15  N   UNL     1       3.920  14.903  -1.147  0.00  0.00    -0.325 N 
ATOM     16  H   UNL     1       4.244  14.548  -1.990  0.00  0.00    +0.145 HD
ATOM     17  H   UNL     1       3.258  15.612  -1.142  0.00  0.00    +0.145 HD
ENDBRANCH   6  13
ENDBRANCH   3   5
BRANCH   1  18
ATOM     18  C   UNL     1       2.173   9.555   0.028  0.00  0.00    +0.328 C 
BRANCH  18  19
ATOM     19  O   UNL     1       2.255   8.105   0.020  0.00  0.00    -0.452 OA
BRANCH  19  20
ATOM     20  C   UNL     1       1.090   7.426   0.028  0.00  0.00    +0.343 C 
ATOM     21  O   UNL     1       0.035   8.030   0.041  0.00  0.00    -0.245 OA
BRANCH  20  30
ATOM     22  C   UNL     1      -0.013   1.076   0.008  0.00  0.00    +0.001 A 
ATOM     23  C   UNL     1      -1.234   1.745   0.017  0.00  0.00    +0.001 A 
ATOM     24  C   UNL     1      -1.286   3.106   0.030  0.00  0.00    +0.012 A 
ATOM     25  C   UNL     1      -0.093   3.848   0.023  0.00  0.00    +0.024 A 
ATOM     26  C   UNL     1       1.150   3.167   0.008  0.00  0.00    -0.014 A 
ATOM     27  C   UNL     1       1.163   1.763   0.000  0.00  0.00    +0.008 A 
ATOM     28  C   UNL     1       2.350   3.904  -0.000  0.00  0.00    +0.009 A 
ATOM     29  C   UNL     1       2.319   5.259   0.007  0.00  0.00    +0.019 A 
ATOM     30  C   UNL     1       1.095   5.955   0.021  0.00  0.00    +0.101 A 
ATOM     31  C   UNL     1      -0.112   5.257   0.029  0.00  0.00    +0.138 A 
BRANCH  31  32
ATOM     32  O   UNL     1      -1.289   5.926   0.043  0.00  0.00    -0.505 OA
ATOM     33  H   UNL     1      -1.623   6.116   0.931  0.00  0.00    +0.292 HD
ENDBRANCH  31  32
ENDBRANCH  20  30
ENDBRANCH  19  20
ENDBRANCH  18  19
ENDBRANCH   1  18
TORSDOF 7
