REMARK  Name = ZINC51356907
REMARK  2 active torsions:
REMARK  status: ('A' for Active; 'I' for Inactive)
REMARK    1  A    between atoms: C_8  and  N_13
REMARK    2  A    between atoms: C_17  and  C_19
REMARK                            x       y       z     vdW  Elec       q    Type
REMARK                         _______ _______ _______ _____ _____    ______ ____
ROOT
ATOM      1  C   UNL     1      -0.017   1.378   0.010  0.00  0.00    +0.003 A 
ATOM      2  C   UNL     1       1.164   2.092   0.002  0.00  0.00    +0.024 A 
ATOM      3  C   UNL     1       2.386   1.424  -0.013  0.00  0.00    +0.040 A 
ATOM      4  C   UNL     1       2.393   0.034  -0.021  0.00  0.00    +0.014 A 
ATOM      5  C   UNL     1       1.213  -0.676  -0.014  0.00  0.00    +0.025 A 
ATOM      6  C   UNL     1       0.002  -0.004   0.002  0.00  0.00    +0.016 A 
ATOM      7 BR   UNL     1       1.247  -2.567  -0.025  0.00  0.00    -0.050 Br
ATOM      8  C   UNL     1       3.845  -0.384  -0.037  0.00  0.00    +0.177 C 
ATOM      9  C   UNL     1       4.605   0.925  -0.037  0.00  0.00    +0.239 C 
ATOM     10  O   UNL     1       5.811   1.058  -0.047  0.00  0.00    -0.273 OA
ATOM     11  N   UNL     1       3.693   1.912  -0.023  0.00  0.00    -0.284 N 
ATOM     12  H   UNL     1       3.918   2.856  -0.020  0.00  0.00    +0.155 HD
ENDROOT
BRANCH   8  13
ATOM     13  N   UNL     1       4.145  -1.157  -1.250  0.00  0.00    -0.286 NA
ATOM     14  C   UNL     1       4.094  -0.297  -2.451  0.00  0.00    +0.086 C 
ATOM     15  C   UNL     1       5.571   0.074  -2.735  0.00  0.00    +0.017 C 
ATOM     16  C   UNL     1       6.302  -1.243  -2.365  0.00  0.00    +0.018 C 
ATOM     17  C   UNL     1       5.483  -1.770  -1.168  0.00  0.00    +0.044 C 
BRANCH  17  18
ATOM     18  C   UNL     1       5.363  -3.293  -1.250  0.00  0.00    -0.054 C 
ATOM     19  C   UNL     1       4.533  -3.820  -0.059  0.00  0.00    -0.016 C 
ATOM     20  C   UNL     1       5.260  -5.137   0.318  0.00  0.00    -0.021 C 
ATOM     21  C   UNL     1       6.740  -4.767   0.047  0.00  0.00    -0.082 C 
ATOM     22  N   UNL     1       6.700  -3.908  -1.160  0.00  0.00    +0.382 N 
ATOM     23  H   UNL     1       6.873  -4.466  -1.982  0.00  0.00    -0.085 HD
ATOM     24  H   UNL     1       7.401  -3.186  -1.087  0.00  0.00    -0.085 HD
ENDBRANCH  17  18
ENDBRANCH   8  13
TORSDOF 2
