REMARK  Name = ZINC64031789
REMARK  5 active torsions:
REMARK  status: ('A' for Active; 'I' for Inactive)
REMARK    1  A    between atoms: C_1  and  O_2
REMARK    2  A    between atoms: O_2  and  C_3
REMARK    3  A    between atoms: C_6  and  C_10
REMARK    4  A    between atoms: N_24  and  C_25
REMARK    5  A    between atoms: C_25  and  C_26
REMARK                            x       y       z     vdW  Elec       q    Type
REMARK                         _______ _______ _______ _____ _____    ______ ____
ROOT
ATOM      1  C   UNL     1       2.590  -2.546   4.313  0.00  0.00    +0.116 C 
ATOM      2  C   UNL     1       4.001  -2.963   3.893  0.00  0.00    +0.128 C 
ATOM      3  C   UNL     1       4.773  -1.671   3.652  0.00  0.00    -0.035 C 
ATOM      4  C   UNL     1       5.275  -1.757   2.428  0.00  0.00    -0.001 A 
ATOM      5  C   UNL     1       6.172  -0.870   1.670  0.00  0.00    +0.010 A 
ATOM      6  C   UNL     1       6.480  -1.266   0.407  0.00  0.00    +0.001 A 
ATOM      7  C   UNL     1       5.993  -2.442  -0.172  0.00  0.00    +0.002 A 
ATOM      8  C   UNL     1       5.168  -3.320   0.454  0.00  0.00    +0.026 A 
ATOM      9  C   UNL     1       4.778  -3.015   1.790  0.00  0.00    +0.043 A 
ATOM     10  N   UNL     1       4.019  -3.695   2.628  0.00  0.00    -0.376 N 
ATOM     11  C   UNL     1       4.786  -0.554   4.668  0.00  0.00    +0.049 C 
ATOM     12  C   UNL     1       3.320  -0.334   5.082  0.00  0.00    +0.090 C 
ATOM     13  N   UNL     1       2.699  -1.613   5.445  0.00  0.00    -0.286 NA
ATOM     14  H   UNL     1       3.551  -4.525   2.446  0.00  0.00    +0.160 HD
ENDROOT
BRANCH   1  18
ATOM     15  C   UNL     1       0.626  -0.619   1.041  0.00  0.00    +0.123 A 
ATOM     16  C   UNL     1       1.869  -0.173   1.468  0.00  0.00    +0.046 A 
ATOM     17  C   UNL     1       2.501  -0.797   2.525  0.00  0.00    +0.011 A 
ATOM     18  C   UNL     1       1.897  -1.867   3.160  0.00  0.00    +0.007 A 
ATOM     19  C   UNL     1       0.657  -2.315   2.737  0.00  0.00    +0.132 A 
ATOM     20  C   UNL     1       0.018  -1.688   1.682  0.00  0.00    +0.084 A 
ATOM     21  F   UNL     1       0.069  -3.360   3.358  0.00  0.00    -0.205 F 
BRANCH  15  23
ATOM     22  C   UNL     1       0.688   1.089  -0.612  0.00  0.00    +0.277 C 
ATOM     23  O   UNL     1       0.003  -0.006   0.001  0.00  0.00    -0.495 OA
ENDBRANCH  15  23
ENDBRANCH   1  18
BRANCH  13  24
ATOM     24  C   UNL     1       1.393  -1.403   6.083  0.00  0.00    +0.157 C 
BRANCH  24  25
ATOM     25  C   UNL     1       1.580  -0.646   7.373  0.00  0.00    +0.099 A 
ATOM     26  N   UNL     1       2.712  -0.547   8.051  0.00  0.00    -0.349 N 
ATOM     27  C   UNL     1       2.484   0.208   9.146  0.00  0.00    +0.101 A 
ATOM     28  C   UNL     1       1.185   0.567   9.123  0.00  0.00    +0.101 A 
ATOM     29  N   UNL     1       0.639   0.032   8.011  0.00  0.00    -0.349 N 
ATOM     30  H   UNL     1      -0.284   0.126   7.729  0.00  0.00    +0.166 HD
ATOM     31  H   UNL     1       3.560  -0.947   7.803  0.00  0.00    +0.166 HD
ENDBRANCH  24  25
ENDBRANCH  13  24
TORSDOF 4
