REMARK  Name = ZINC08925934
REMARK  12 active torsions:
REMARK  status: ('A' for Active; 'I' for Inactive)
REMARK    1  A    between atoms: C_1  and  C_2
REMARK    2  A    between atoms: C_2  and  O_3
REMARK    3  A    between atoms: O_3  and  C_4
REMARK    4  A    between atoms: C_7  and  C_12
REMARK    5  A    between atoms: C_9  and  O_10
REMARK    6  A    between atoms: O_10  and  C_11
REMARK    7  A    between atoms: C_19  and  N_38
REMARK    8  A    between atoms: C_20  and  C_36
REMARK    9  A    between atoms: N_28  and  C_31
REMARK   10  A    between atoms: C_31  and  C_32
REMARK   11  A    between atoms: C_32  and  O_34
REMARK   12  A    between atoms: O_34  and  C_35
REMARK                            x       y       z     vdW  Elec       q    Type
REMARK                         _______ _______ _______ _____ _____    ______ ____
ROOT
ATOM      1  C   UNL     1      -1.994  -6.077  -0.012  0.00  0.00    +0.101 A 
ATOM      2  C   UNL     1      -1.228  -6.990  -0.743  0.00  0.00    +0.066 A 
ATOM      3  C   UNL     1      -1.700  -8.245  -0.476  0.00  0.00    +0.224 A 
ATOM      4  N   UNL     1      -2.724  -8.122   0.392  0.00  0.00    -0.246 N 
ATOM      5  H   UNL     1      -3.251  -8.850   0.759  0.00  0.00    +0.192 HD
ATOM      6  N   UNL     1      -2.892  -6.758   0.675  0.00  0.00    -0.171 NA
ATOM      7  O   UNL     1      -1.165  -9.359  -1.036  0.00  0.00    -0.423 OA
ATOM      8  C   UNL     1      -0.320  -9.203  -2.075  0.00  0.00    +0.201 C 
ATOM      9  C   UNL     1       0.222  -8.014  -2.428  0.00  0.00    +0.110 C 
ATOM     10  C   UNL     1      -0.078  -6.746  -1.677  0.00  0.00    +0.145 C 
ATOM     11  C   UNL     1       1.127  -6.255  -0.940  0.00  0.00    -0.001 A 
ATOM     12  C   UNL     1       1.887  -6.828   0.056  0.00  0.00    +0.007 A 
ATOM     13  C   UNL     1       2.962  -6.088   0.535  0.00  0.00    +0.000 A 
ATOM     14  C   UNL     1       3.253  -4.835   0.033  0.00  0.00    +0.002 A 
ATOM     15  C   UNL     1       2.494  -4.252  -0.969  0.00  0.00    +0.024 A 
ATOM     16  C   UNL     1       1.412  -4.985  -1.459  0.00  0.00    +0.042 A 
ATOM     17  N   UNL     1       0.500  -4.653  -2.446  0.00  0.00    -0.259 N 
ATOM     18  C   UNL     1      -0.412  -5.629  -2.642  0.00  0.00    +0.241 C 
ATOM     19  O   UNL     1      -1.325  -5.614  -3.440  0.00  0.00    -0.274 OA
ENDROOT
BRANCH   1  23
ATOM     20  C   UNL     1      -1.498  -1.849   0.008  0.00  0.00    +0.162 A 
ATOM     21  C   UNL     1      -0.408  -2.676   0.231  0.00  0.00    +0.050 A 
ATOM     22  C   UNL     1      -0.567  -4.047   0.225  0.00  0.00    +0.014 A 
ATOM     23  C   UNL     1      -1.823  -4.603  -0.005  0.00  0.00    +0.006 A 
ATOM     24  C   UNL     1      -2.920  -3.773  -0.230  0.00  0.00    +0.059 A 
ATOM     25  C   UNL     1      -2.758  -2.399  -0.217  0.00  0.00    +0.162 A 
BRANCH  25  26
ATOM     26  O   UNL     1      -3.827  -1.586  -0.430  0.00  0.00    -0.491 OA
ATOM     27  C   UNL     1      -5.088  -2.219  -0.654  0.00  0.00    +0.277 C 
ENDBRANCH  25  26
BRANCH  20  28
ATOM     28  O   UNL     1      -1.339  -0.499   0.014  0.00  0.00    -0.489 OA
BRANCH  28  30
ATOM     29  C   UNL     1      -0.037   1.527   0.221  0.00  0.00    +0.048 C 
ATOM     30  C   UNL     1      -0.019  -0.003   0.251  0.00  0.00    +0.226 C 
ENDBRANCH  28  30
ENDBRANCH  20  28
ENDBRANCH   1  23
BRANCH   8  31
ATOM     31  N   UNL     1       0.009 -10.311  -2.815  0.00  0.00    -0.328 N 
ATOM     32  H   UNL     1      -0.365 -11.176  -2.585  0.00  0.00    +0.145 HD
ATOM     33  H   UNL     1       0.614 -10.228  -3.569  0.00  0.00    +0.145 HD
ENDBRANCH   8  31
BRANCH   9  34
ATOM     34  C   UNL     1       1.109  -7.962  -3.552  0.00  0.00    +0.102 C 
ATOM     35  N   UNL     1       1.811  -7.921  -4.443  0.00  0.00    -0.191 NA
ENDBRANCH   9  34
BRANCH  17  36
ATOM     36  C   UNL     1       0.520  -3.390  -3.188  0.00  0.00    +0.234 C 
BRANCH  36  37
ATOM     37  C   UNL     1       1.371  -3.547  -4.422  0.00  0.00    +0.325 C 
ATOM     38  O   UNL     1       1.905  -4.606  -4.657  0.00  0.00    -0.249 OA
BRANCH  37  39
ATOM     39  O   UNL     1       1.536  -2.512  -5.261  0.00  0.00    -0.467 OA
ATOM     40  C   UNL     1       2.355  -2.732  -6.410  0.00  0.00    +0.280 C 
ENDBRANCH  37  39
ENDBRANCH  36  37
ENDBRANCH  17  36
TORSDOF 9
