REMARK  Name = ZINC67467425
REMARK  8 active torsions:
REMARK  status: ('A' for Active; 'I' for Inactive)
REMARK    1  A    between atoms: C_1  and  C_2
REMARK    2  A    between atoms: C_2  and  C_3
REMARK    3  A    between atoms: C_3  and  C_5
REMARK    4  A    between atoms: C_3  and  C_6
REMARK    5  A    between atoms: C_6  and  C_8
REMARK    6  A    between atoms: C_6  and  N_24
REMARK    7  A    between atoms: N_10  and  C_11
REMARK    8  A    between atoms: C_13  and  N_18
REMARK                            x       y       z     vdW  Elec       q    Type
REMARK                         _______ _______ _______ _____ _____    ______ ____
ROOT
ATOM      1  C   UNL     1      -1.893   1.474  -1.462  0.00  0.00    +0.238 C 
ATOM      2  O   UNL     1      -2.832   2.190  -1.739  0.00  0.00    -0.273 OA
ATOM      3  N   UNL     1      -0.668   2.007  -1.281  0.00  0.00    -0.282 N 
ATOM      4  H   UNL     1       0.099   1.428  -1.152  0.00  0.00    +0.155 HD
ENDROOT
BRANCH   3   5
ATOM      5  C   UNL     1      -0.504   3.398  -1.280  0.00  0.00    +0.071 A 
ATOM      6  C   UNL     1      -1.607   4.228  -1.141  0.00  0.00    +0.049 A 
ATOM      7  C   UNL     1      -1.440   5.605  -1.141  0.00  0.00    +0.041 A 
ATOM      8  C   UNL     1      -0.170   6.150  -1.279  0.00  0.00    +0.026 A 
ATOM      9  C   UNL     1       0.928   5.323  -1.417  0.00  0.00    +0.042 A 
ATOM     10  C   UNL     1       0.766   3.949  -1.412  0.00  0.00    +0.145 A 
ATOM     11  F   UNL     1       1.842   3.142  -1.542  0.00  0.00    -0.204 F 
BRANCH   7  12
ATOM     12  N   UNL     1      -2.552   6.446  -1.002  0.00  0.00    -0.234 N 
ATOM     13  C   UNL     1      -2.531   7.922  -0.989  0.00  0.00    +0.158 C 
ATOM     14  C   UNL     1      -4.024   8.272  -1.196  0.00  0.00    +0.253 C 
ATOM     15  O   UNL     1      -4.680   7.084  -0.713  0.00  0.00    -0.448 OA
ATOM     16  C   UNL     1      -3.832   6.052  -0.861  0.00  0.00    +0.407 C 
ATOM     17  O   UNL     1      -4.181   4.889  -0.866  0.00  0.00    -0.226 OA
ENDBRANCH   7  12
ENDBRANCH   3   5
BRANCH   1  18
ATOM     18  C   UNL     1      -2.096  -0.013  -1.320  0.00  0.00    +0.163 C 
BRANCH  18  19
ATOM     19  N   UNL     1      -3.330  -0.405  -2.005  0.00  0.00    -0.288 N 
ATOM     20  C   UNL     1      -3.479  -1.666  -2.456  0.00  0.00    +0.298 C 
ATOM     21  O   UNL     1      -2.589  -2.479  -2.293  0.00  0.00    -0.253 OA
ATOM     22  N   UNL     1      -4.614  -2.027  -3.086  0.00  0.00    -0.313 N 
ATOM     23  H   UNL     1      -4.040   0.244  -2.135  0.00  0.00    +0.151 HD
ATOM     24  H   UNL     1      -5.324  -1.379  -3.215  0.00  0.00    +0.146 HD
ATOM     25  H   UNL     1      -4.721  -2.935  -3.410  0.00  0.00    +0.146 HD
ENDBRANCH  18  19
BRANCH  18  26
ATOM     26  C   UNL     1      -2.199  -0.374   0.163  0.00  0.00    +0.015 C 
ATOM     27  C   UNL     1      -3.474   0.235   0.749  0.00  0.00    +0.010 C 
BRANCH  26  29
ATOM     28  C   UNL     1      -0.897  -2.490  -0.100  0.00  0.00    +0.004 C 
ATOM     29  C   UNL     1      -2.244  -1.895   0.315  0.00  0.00    +0.002 C 
ENDBRANCH  26  29
ENDBRANCH  18  26
ENDBRANCH   1  18
TORSDOF 6
