REMARK  Name = ZINC02067781
REMARK  5 active torsions:
REMARK  status: ('A' for Active; 'I' for Inactive)
REMARK    1  A    between atoms: C_1  and  O_2
REMARK    2  A    between atoms: O_2  and  C_3
REMARK    3  A    between atoms: C_5  and  N_22
REMARK    4  A    between atoms: C_8  and  C_9
REMARK    5  A    between atoms: C_12  and  C_14
REMARK                            x       y       z     vdW  Elec       q    Type
REMARK                         _______ _______ _______ _____ _____    ______ ____
ROOT
ATOM      1  C   UNL     1       0.093  -2.812  -0.108  0.00  0.00    +0.139 A 
ATOM      2  C   UNL     1      -0.794  -3.892  -0.315  0.00  0.00    +0.050 A 
ATOM      3  C   UNL     1      -1.115  -4.398   0.906  0.00  0.00    +0.050 A 
ATOM      4  C   UNL     1      -0.390  -3.589   1.891  0.00  0.00    +0.130 A 
ATOM      5  O   UNL     1       0.317  -2.662   1.208  0.00  0.00    -0.455 OA
ENDROOT
BRANCH   4   6
ATOM      6  C   UNL     1      -0.420  -3.750   3.267  0.00  0.00    +0.066 C 
ATOM      7  C   UNL     1       0.330  -2.895   4.090  0.00  0.00    +0.081 C 
ATOM      8  C   UNL     1       0.440  -2.882   5.578  0.00  0.00    +0.257 C 
ATOM      9  O   UNL     1      -0.161  -3.679   6.270  0.00  0.00    -0.269 OA
ATOM     10  N   UNL     1       1.231  -1.960   6.104  0.00  0.00    -0.261 N 
ATOM     11  C   UNL     1       1.885  -1.075   5.270  0.00  0.00    +0.158 C 
ATOM     12  N   UNL     1       2.691  -0.106   5.596  0.00  0.00    -0.279 NA
ATOM     13  S   UNL     1       1.363  -1.575   3.640  0.00  0.00    -0.049 S 
ATOM     14  H   UNL     1       1.347  -1.904   7.065  0.00  0.00    +0.157 HD
ATOM     15  H   UNL     1       3.088   0.448   4.906  0.00  0.00    +0.189 HD
ENDBRANCH   4   6
BRANCH   1  21
ATOM     16  C   UNL     1       0.604  -0.605  -1.052  0.00  0.00    +0.133 A 
ATOM     17  C   UNL     1       1.162   0.158  -2.067  0.00  0.00    +0.079 A 
ATOM     18  C   UNL     1       1.779  -0.460  -3.136  0.00  0.00    +0.130 A 
ATOM     19  C   UNL     1       1.838  -1.847  -3.215  0.00  0.00    +0.033 A 
ATOM     20  C   UNL     1       1.293  -2.621  -2.234  0.00  0.00    +0.017 A 
ATOM     21  C   UNL     1       0.663  -2.016  -1.130  0.00  0.00    +0.059 A 
BRANCH  18  22
ATOM     22  N   UNL     1       2.378   0.361  -4.212  0.00  0.00    +0.057 N 
ATOM     23  O   UNL     1       2.963  -0.222  -5.238  0.00  0.00    -0.126 OA
ATOM     24  O   UNL     1       2.325   1.675  -4.144  0.00  0.00    -0.126 OA
ENDBRANCH  18  22
BRANCH  16  26
ATOM     25  C   UNL     1      -0.017   1.425   0.010  0.00  0.00    +0.277 C 
ATOM     26  O   UNL     1       0.002  -0.004   0.002  0.00  0.00    -0.494 OA
ENDBRANCH  16  26
ENDBRANCH   1  21
TORSDOF 4
