REMARK  Name = ZINC64190936
REMARK  2 active torsions:
REMARK  status: ('A' for Active; 'I' for Inactive)
REMARK    1  A    between atoms: C_7  and  C_10
REMARK    2  A    between atoms: C_13  and  C_15
REMARK                            x       y       z     vdW  Elec       q    Type
REMARK                         _______ _______ _______ _____ _____    ______ ____
ROOT
ATOM      1  C   UNL     1       5.202  -2.919  -0.046  0.00  0.00    +0.001 A 
ATOM      2  C   UNL     1       5.702  -1.614  -0.047  0.00  0.00    +0.002 A 
ATOM      3  C   UNL     1       4.884  -0.534  -0.041  0.00  0.00    +0.026 A 
ATOM      4  C   UNL     1       3.477  -0.715  -0.033  0.00  0.00    +0.043 A 
ATOM      5  N   UNL     1       2.486   0.154  -0.026  0.00  0.00    -0.380 N 
ATOM      6  C   UNL     1       1.210  -0.570  -0.020  0.00  0.00    +0.151 C 
ATOM      7  C   UNL     1       1.564  -2.040  -0.025  0.00  0.00    +0.007 C 
ATOM      8  C   UNL     1       2.954  -2.092  -0.033  0.00  0.00    +0.005 A 
ATOM      9  C   UNL     1       3.869  -3.169  -0.040  0.00  0.00    +0.010 A 
ATOM     10  H   UNL     1       2.584   1.119  -0.024  0.00  0.00    +0.160 HD
ENDROOT
BRANCH   7  11
ATOM     11  C   UNL     1       0.669  -3.134  -0.022  0.00  0.00    +0.077 A 
ATOM     12  C   UNL     1      -0.701  -2.934   0.090  0.00  0.00    +0.075 A 
ATOM     13  S   UNL     1      -1.300  -4.506   0.043  0.00  0.00    -0.077 S 
ATOM     14  C   UNL     1       0.252  -5.370  -0.121  0.00  0.00    +0.112 A 
ATOM     15  N   UNL     1       1.117  -4.388  -0.133  0.00  0.00    -0.241 NA
BRANCH  14  16
ATOM     16  C   UNL     1       0.502  -6.853  -0.225  0.00  0.00    +0.197 C 
ATOM     17  C   UNL     1       0.301  -7.512   1.121  0.00  0.00    +0.009 C 
ATOM     18  C   UNL     1      -0.379  -8.620   0.941  0.00  0.00    -0.001 C 
ATOM     19  C   UNL     1      -0.672  -8.766  -0.534  0.00  0.00    +0.188 C 
ATOM     20  O   UNL     1      -0.462  -7.459  -1.106  0.00  0.00    -0.362 OA
ENDBRANCH  14  16
ENDBRANCH   7  11
TORSDOF 2
