REMARK  Name = ZINC39498923
REMARK  5 active torsions:
REMARK  status: ('A' for Active; 'I' for Inactive)
REMARK    1  A    between atoms: C_4  and  C_7
REMARK    2  A    between atoms: C_7  and  N_8
REMARK    3  A    between atoms: C_12  and  O_25
REMARK    4  A    between atoms: C_13  and  O_24
REMARK    5  A    between atoms: C_17  and  C_18
REMARK                            x       y       z     vdW  Elec       q    Type
REMARK                         _______ _______ _______ _____ _____    ______ ____
ROOT
ATOM      1  N   UNL     1       4.130  -1.097   1.203  0.00  0.00    -0.386 NA
ATOM      2  C   UNL     1       3.271  -1.820   2.154  0.00  0.00    +0.122 C 
ATOM      3  C   UNL     1       4.191  -2.629   3.034  0.00  0.00    -0.019 A 
ATOM      4  C   UNL     1       3.955  -3.486   4.086  0.00  0.00    +0.055 A 
ATOM      5  C   UNL     1       5.017  -4.106   4.729  0.00  0.00    +0.159 A 
ATOM      6  C   UNL     1       6.324  -3.865   4.311  0.00  0.00    +0.159 A 
ATOM      7  C   UNL     1       6.568  -3.007   3.256  0.00  0.00    +0.059 A 
ATOM      8  C   UNL     1       5.498  -2.379   2.607  0.00  0.00    +0.003 A 
ATOM      9  C   UNL     1       5.456  -1.435   1.479  0.00  0.00    +0.022 C 
ATOM     10  C   UNL     1       6.528  -0.971   0.817  0.00  0.00    +0.030 C 
ATOM     11  H   UNL     1       4.001  -0.103   1.314  0.00  0.00    +0.127 HD
ENDROOT
BRANCH  10  12
ATOM     12  C   UNL     1       7.833  -1.637   0.969  0.00  0.00    -0.023 A 
ATOM     13  C   UNL     1       7.918  -3.031   0.942  0.00  0.00    +0.008 A 
ATOM     14  C   UNL     1       9.144  -3.647   1.084  0.00  0.00    +0.001 A 
ATOM     15  C   UNL     1      10.288  -2.888   1.255  0.00  0.00    +0.000 A 
ATOM     16  C   UNL     1      10.212  -1.507   1.283  0.00  0.00    +0.001 A 
ATOM     17  C   UNL     1       8.994  -0.876   1.136  0.00  0.00    +0.008 A 
ENDBRANCH  10  12
BRANCH   6  18
ATOM     18  O   UNL     1       7.362  -4.475   4.943  0.00  0.00    -0.503 OA
ATOM     19  H   UNL     1       7.607  -5.330   4.562  0.00  0.00    +0.292 HD
ENDBRANCH   6  18
BRANCH   5  20
ATOM     20  O   UNL     1       4.781  -4.951   5.768  0.00  0.00    -0.503 OA
ATOM     21  H   UNL     1       4.658  -5.874   5.504  0.00  0.00    +0.292 HD
ENDBRANCH   5  20
BRANCH   1  22
ATOM     22  C   UNL     1       3.792  -1.492  -0.171  0.00  0.00    +0.121 C 
BRANCH  22  26
ATOM     23  C   UNL     1      -0.149  -0.141  -1.116  0.00  0.00    +0.000 A 
ATOM     24  C   UNL     1       0.940   0.672  -1.369  0.00  0.00    +0.000 A 
ATOM     25  C   UNL     1       2.215   0.235  -1.064  0.00  0.00    +0.005 A 
ATOM     26  C   UNL     1       2.402  -1.015  -0.504  0.00  0.00    -0.032 A 
ATOM     27  C   UNL     1       1.313  -1.828  -0.249  0.00  0.00    +0.005 A 
ATOM     28  C   UNL     1       0.038  -1.391  -0.556  0.00  0.00    +0.000 A 
ENDBRANCH  22  26
ENDBRANCH   1  22
TORSDOF 5
