REMARK  Name = ZINC58022305
REMARK  6 active torsions:
REMARK  status: ('A' for Active; 'I' for Inactive)
REMARK    1  A    between atoms: C_1  and  C_2
REMARK    2  A    between atoms: C_2  and  C_3
REMARK    3  A    between atoms: N_15  and  C_18
REMARK    4  A    between atoms: C_18  and  C_20
REMARK    5  A    between atoms: C_18  and  C_21
REMARK    6  A    between atoms: C_21  and  N_22
REMARK                            x       y       z     vdW  Elec       q    Type
REMARK                         _______ _______ _______ _____ _____    ______ ____
ROOT
ATOM      1  C   UNL     1       0.731  -0.503   1.223  0.00  0.00    -0.046 A 
ATOM      2  C   UNL     1       2.102  -0.705   1.159  0.00  0.00    +0.005 A 
ATOM      3  C   UNL     1       2.772  -1.163   2.278  0.00  0.00    +0.017 A 
ATOM      4  C   UNL     1       2.072  -1.411   3.433  0.00  0.00    +0.041 A 
ATOM      5  C   UNL     1       0.676  -1.217   3.535  0.00  0.00    +0.081 A 
ATOM      6  C   UNL     1       0.025  -0.743   2.373  0.00  0.00    +0.032 A 
ATOM      7  N   UNL     1       0.132  -1.505   4.738  0.00  0.00    -0.225 NA
ATOM      8  C   UNL     1       0.848  -1.937   5.751  0.00  0.00    +0.162 A 
ATOM      9  S   UNL     1       2.495  -1.987   5.059  0.00  0.00    -0.052 S 
ATOM     10  N   UNL     1       0.433  -2.268   7.025  0.00  0.00    -0.307 N 
ATOM     11  C   UNL     1      -0.983  -2.166   7.408  0.00  0.00    +0.122 C 
ATOM     12  C   UNL     1      -1.078  -1.356   8.706  0.00  0.00    +0.103 C 
ATOM     13  N   UNL     1      -0.201  -1.956   9.720  0.00  0.00    -0.298 NA
ATOM     14  C   UNL     1       1.207  -1.901   9.307  0.00  0.00    +0.103 C 
ATOM     15  C   UNL     1       1.395  -2.739   8.033  0.00  0.00    +0.122 C 
ENDROOT
BRANCH   1  17
ATOM     16  C   UNL     1      -0.019   1.526   0.010  0.00  0.00    +0.009 C 
ATOM     17  C   UNL     1       0.002  -0.004   0.002  0.00  0.00    +0.032 C 
ENDBRANCH   1  17
BRANCH  13  18
ATOM     18  C   UNL     1      -0.393  -1.314  11.027  0.00  0.00    +0.036 C 
ATOM     19  C   UNL     1       0.053   0.147  10.948  0.00  0.00    +0.022 C 
BRANCH  18  20
ATOM     20  C   UNL     1       0.442  -2.045  12.081  0.00  0.00    -0.068 C 
BRANCH  20  21
ATOM     21  N   UNL     1       0.098  -3.474  12.074  0.00  0.00    +0.379 N 
ATOM     22  H   UNL     1       0.648  -3.956  12.769  0.00  0.00    -0.090 HD
ATOM     23  H   UNL     1      -0.883  -3.584  12.285  0.00  0.00    -0.090 HD
ATOM     24  H   UNL     1       0.291  -3.861  11.163  0.00  0.00    -0.090 HD
ENDBRANCH  20  21
ENDBRANCH  18  20
ENDBRANCH  13  18
TORSDOF 4
