REMARK  Name = ZINC20617637
REMARK  6 active torsions:
REMARK  status: ('A' for Active; 'I' for Inactive)
REMARK    1  A    between atoms: C_1  and  C_2
REMARK    2  A    between atoms: C_6  and  C_16
REMARK    3  A    between atoms: N_8  and  C_9
REMARK    4  A    between atoms: N_18  and  C_19
REMARK    5  A    between atoms: C_26  and  C_29
REMARK    6  A    between atoms: C_29  and  O_30
REMARK                            x       y       z     vdW  Elec       q    Type
REMARK                         _______ _______ _______ _____ _____    ______ ____
ROOT
ATOM      1  C   UNL     1       0.393   7.192  -0.044  0.00  0.00    +0.069 C 
ATOM      2  C   UNL     1       0.674   5.711  -0.038  0.00  0.00    +0.081 A 
ATOM      3  C   UNL     1       1.986   5.258  -0.036  0.00  0.00    +0.159 A 
ATOM      4  C   UNL     1       2.223   3.871  -0.027  0.00  0.00    +0.027 A 
ATOM      5  C   UNL     1       3.600   3.372  -0.018  0.00  0.00    +0.030 A 
ATOM      6  C   UNL     1       4.600   4.282   0.247  0.00  0.00    +0.098 A 
ATOM      7  C   UNL     1       4.193   5.678   0.503  0.00  0.00    +0.212 A 
ATOM      8  N   UNL     1       4.936   6.474   1.240  0.00  0.00    -0.325 N 
ATOM      9  O   UNL     1       3.031   6.119  -0.044  0.00  0.00    -0.437 OA
ATOM     10  C   UNL     1       1.125   3.003  -0.024  0.00  0.00    +0.007 A 
ATOM     11  C   UNL     1      -0.143   3.547  -0.035  0.00  0.00    +0.117 A 
ATOM     12  N   UNL     1      -0.327   4.854  -0.035  0.00  0.00    -0.256 NA
ATOM     13  H   UNL     1       5.832   6.080   1.744  0.00  0.00    +0.169 HD
ENDROOT
BRANCH   8  14
ATOM     14  C   UNL     1       4.596   7.791   1.381  0.00  0.00    +0.042 A 
ATOM     15  C   UNL     1       5.007   8.728   0.430  0.00  0.00    +0.026 A 
ATOM     16  C   UNL     1       4.656  10.053   0.576  0.00  0.00    +0.002 A 
ATOM     17  C   UNL     1       3.908  10.459   1.667  0.00  0.00    +0.000 A 
ATOM     18  C   UNL     1       3.502   9.537   2.617  0.00  0.00    +0.002 A 
ATOM     19  C   UNL     1       3.841   8.207   2.481  0.00  0.00    +0.026 A 
ENDBRANCH   8  14
BRANCH   6  20
ATOM     20  C   UNL     1       6.017   3.878   0.276  0.00  0.00    +0.253 C 
ATOM     21  O   UNL     1       6.324   2.721   0.062  0.00  0.00    -0.270 OA
ATOM     22  N   UNL     1       6.973   4.791   0.539  0.00  0.00    -0.281 N 
ATOM     23  H   UNL     1       6.704   5.851   0.655  0.00  0.00    +0.155 HD
BRANCH  22  24
ATOM     24  C   UNL     1       8.307   4.391   0.664  0.00  0.00    +0.034 A 
ATOM     25  C   UNL     1       9.143   5.030   1.571  0.00  0.00    +0.024 A 
ATOM     26  C   UNL     1      10.458   4.628   1.697  0.00  0.00    +0.016 A 
ATOM     27  C   UNL     1      10.947   3.599   0.912  0.00  0.00    +0.013 A 
ATOM     28  C   UNL     1      10.118   2.965   0.004  0.00  0.00    +0.016 A 
ATOM     29  C   UNL     1       8.800   3.358  -0.122  0.00  0.00    +0.024 A 
ATOM     30  I   UNL     1      12.945   2.999   1.099  0.00  0.00    -0.044 I 
ENDBRANCH  22  24
ENDBRANCH   6  20
BRANCH  10  31
ATOM     31  C   UNL     1       1.323   1.509  -0.017  0.00  0.00    +0.193 C 
BRANCH  31  32
ATOM     32  O   UNL     1       0.050   0.860  -0.016  0.00  0.00    -0.390 OA
ATOM     33  H   UNL     1      -0.007  -0.239  -0.011  0.00  0.00    +0.210 HD
ENDBRANCH  31  32
ENDBRANCH  10  31
TORSDOF 5
