REMARK  Name = ZINC37153541
REMARK  4 active torsions:
REMARK  status: ('A' for Active; 'I' for Inactive)
REMARK    1  A    between atoms: C_1  and  C_2
REMARK    2  A    between atoms: C_9  and  O_12
REMARK    3  A    between atoms: O_12  and  C_13
REMARK    4  A    between atoms: C_20  and  C_22
REMARK                            x       y       z     vdW  Elec       q    Type
REMARK                         _______ _______ _______ _____ _____    ______ ____
ROOT
ATOM      1  C   UNL     1       0.860   1.441   0.043  0.00  0.00    +0.065 C 
ATOM      2  C   UNL     1       0.631  -0.048   0.026  0.00  0.00    +0.039 A 
ATOM      3  C   UNL     1       0.625  -0.719  -1.196  0.00  0.00    +0.023 A 
ATOM      4  C   UNL     1       0.418  -2.068  -1.230  0.00  0.00    +0.012 A 
ATOM      5  C   UNL     1       0.216  -2.741  -0.010  0.00  0.00    +0.004 A 
ATOM      6  C   UNL     1      -0.002  -4.128   0.033  0.00  0.00    +0.010 A 
ATOM      7  C   UNL     1      -0.193  -4.745   1.231  0.00  0.00    +0.004 A 
ATOM      8  C   UNL     1      -0.176  -4.020   2.420  0.00  0.00    +0.048 A 
ATOM      9  C   UNL     1       0.033  -2.671   2.418  0.00  0.00    +0.147 A 
ATOM     10  C   UNL     1       0.235  -1.998   1.195  0.00  0.00    +0.113 A 
ATOM     11  N   UNL     1       0.448  -0.679   1.160  0.00  0.00    -0.248 NA
ENDROOT
BRANCH   9  12
ATOM     12  O   UNL     1       0.046  -1.980   3.588  0.00  0.00    -0.485 OA
BRANCH  12  13
ATOM     13  C   UNL     1      -0.049  -2.742   4.793  0.00  0.00    +0.190 C 
ATOM     14  C   UNL     1      -1.533  -3.058   5.069  0.00  0.00    +0.046 C 
ATOM     15  C   UNL     1      -1.606  -4.242   5.994  0.00  0.00    +0.004 C 
ATOM     16  C   UNL     1      -1.715  -3.828   7.474  0.00  0.00    +0.000 C 
ATOM     17  C   UNL     1      -0.790  -2.649   7.834  0.00  0.00    +0.001 C 
ATOM     18  C   UNL     1       0.571  -2.772   7.206  0.00  0.00    +0.022 C 
ATOM     19  C   UNL     1       0.568  -1.991   5.876  0.00  0.00    +0.132 C 
BRANCH  19  20
ATOM     20  C   UNL     1       1.957  -1.675   5.507  0.00  0.00    +0.070 C 
ATOM     21  N   UNL     1       3.030  -1.432   5.222  0.00  0.00    -0.196 NA
ENDBRANCH  19  20
ENDBRANCH  12  13
ENDBRANCH   9  12
TORSDOF 3
