REMARK  Name = ZINC06656377
REMARK  11 active torsions:
REMARK  status: ('A' for Active; 'I' for Inactive)
REMARK    1  A    between atoms: C_1  and  C_2
REMARK    2  A    between atoms: C_2  and  O_3
REMARK    3  A    between atoms: O_3  and  C_4
REMARK    4  A    between atoms: C_8  and  C_11
REMARK    5  A    between atoms: C_9  and  O_10
REMARK    6  A    between atoms: N_12  and  C_13
REMARK    7  A    between atoms: C_13  and  C_14
REMARK    8  A    between atoms: C_14  and  C_15
REMARK    9  A    between atoms: C_15  and  N_16
REMARK   10  A    between atoms: N_16  and  C_17
REMARK   11  A    between atoms: C_20  and  N_24
REMARK                            x       y       z     vdW  Elec       q    Type
REMARK                         _______ _______ _______ _____ _____    ______ ____
ROOT
ATOM      1  C   UNL     1      -0.167   2.419  -4.480  0.00  0.00    +0.090 C 
ATOM      2  N   UNL     1      -0.745   1.585  -3.677  0.00  0.00    -0.390 N 
ATOM      3  H   UNL     1      -1.769   1.240  -3.886  0.00  0.00    +0.159 HD
ENDROOT
BRANCH   1   8
ATOM      4  C   UNL     1      -2.846   2.936  -7.073  0.00  0.00    +0.164 A 
ATOM      5  C   UNL     1      -2.218   3.829  -7.926  0.00  0.00    +0.069 A 
ATOM      6  C   UNL     1      -0.929   4.262  -7.660  0.00  0.00    +0.045 A 
ATOM      7  C   UNL     1      -0.258   3.808  -6.544  0.00  0.00    +0.033 A 
ATOM      8  C   UNL     1      -0.880   2.907  -5.674  0.00  0.00    +0.037 A 
ATOM      9  C   UNL     1      -2.180   2.466  -5.946  0.00  0.00    +0.167 A 
ATOM     10 CL   UNL     1      -0.154   5.381  -8.737  0.00  0.00    -0.083 Cl
BRANCH   9  11
ATOM     11  O   UNL     1      -2.792   1.587  -5.111  0.00  0.00    -0.503 OA
ATOM     12  H   UNL     1      -2.263   1.216  -4.220  0.00  0.00    +0.292 HD
ENDBRANCH   9  11
BRANCH   4  13
ATOM     13  O   UNL     1      -4.111   2.516  -7.341  0.00  0.00    -0.489 OA
BRANCH  13  15
ATOM     14  C   UNL     1      -6.141   2.453  -8.651  0.00  0.00    +0.048 C 
ATOM     15  C   UNL     1      -4.732   3.036  -8.518  0.00  0.00    +0.226 C 
ENDBRANCH  13  15
ENDBRANCH   4  13
ENDBRANCH   1   8
BRANCH   2  16
ATOM     16  C   UNL     1      -0.037   1.099  -2.490  0.00  0.00    +0.114 C 
BRANCH  16  17
ATOM     17  C   UNL     1      -0.753   1.593  -1.232  0.00  0.00    +0.039 C 
BRANCH  17  18
ATOM     18  C   UNL     1      -0.013   1.086   0.008  0.00  0.00    +0.103 C 
BRANCH  18  19
ATOM     19  N   UNL     1      -0.698   1.558   1.213  0.00  0.00    -0.343 N 
ATOM     20  H   UNL     1      -1.602   2.179   1.124  0.00  0.00    +0.146 HD
BRANCH  19  21
ATOM     21  C   UNL     1      -0.204   1.220   2.476  0.00  0.00    +0.046 A 
ATOM     22  C   UNL     1       0.937   0.437   2.590  0.00  0.00    +0.026 A 
ATOM     23  C   UNL     1       1.422   0.104   3.840  0.00  0.00    +0.034 A 
ATOM     24  C   UNL     1       0.774   0.551   4.977  0.00  0.00    +0.128 A 
ATOM     25  C   UNL     1      -0.362   1.331   4.868  0.00  0.00    +0.054 A 
ATOM     26  C   UNL     1      -0.850   1.673   3.621  0.00  0.00    +0.064 A 
ATOM     27 CL   UNL     1      -2.272   2.659   3.484  0.00  0.00    -0.082 Cl
BRANCH  24  28
ATOM     28  N   UNL     1       1.298   0.193   6.314  0.00  0.00    +0.056 N 
ATOM     29  O   UNL     1       2.300  -0.494   6.412  0.00  0.00    -0.126 OA
ATOM     30  O   UNL     1       0.729   0.586   7.317  0.00  0.00    -0.126 OA
ENDBRANCH  24  28
ENDBRANCH  19  21
ENDBRANCH  18  19
ENDBRANCH  17  18
ENDBRANCH  16  17
ENDBRANCH   2  16
TORSDOF 10
