REMARK  Name = ZINC39683819
REMARK  8 active torsions:
REMARK  status: ('A' for Active; 'I' for Inactive)
REMARK    1  A    between atoms: C_1  and  C_2
REMARK    2  A    between atoms: C_2  and  C_4
REMARK    3  A    between atoms: C_2  and  N_8
REMARK    4  A    between atoms: N_6  and  C_7
REMARK    5  A    between atoms: C_9  and  C_11
REMARK    6  A    between atoms: C_22  and  C_24
REMARK    7  A    between atoms: C_24  and  C_25
REMARK    8  A    between atoms: C_25  and  C_26
REMARK                            x       y       z     vdW  Elec       q    Type
REMARK                         _______ _______ _______ _____ _____    ______ ____
ROOT
ATOM      1  C   UNL     1       0.780  -1.133   3.576  0.00  0.00    +0.100 C 
ATOM      2  C   UNL     1       1.189  -2.611   3.392  0.00  0.00    +0.121 C 
ATOM      3  N   UNL     1       1.007  -3.220   4.731  0.00  0.00    -0.300 N 
ATOM      4  C   UNL     1      -0.236  -2.602   5.251  0.00  0.00    +0.115 C 
ATOM      5  C   UNL     1      -0.156  -1.131   4.797  0.00  0.00    -0.004 C 
ATOM      6  C   UNL     1      -1.540  -0.625   4.401  0.00  0.00    -0.010 C 
ATOM      7  C   UNL     1      -2.435  -0.577   5.642  0.00  0.00    -0.082 C 
ATOM      8  N   UNL     1      -1.836   0.311   6.646  0.00  0.00    +0.379 N 
ATOM      9  C   UNL     1      -0.547  -0.233   7.089  0.00  0.00    -0.082 C 
ATOM     10  C   UNL     1       0.428  -0.266   5.909  0.00  0.00    -0.010 C 
ATOM     11  C   UNL     1       1.794  -4.129   5.338  0.00  0.00    +0.216 C 
ATOM     12  O   UNL     1       1.510  -4.535   6.445  0.00  0.00    -0.276 OA
ATOM     13  H   UNL     1      -1.694   1.224   6.242  0.00  0.00    -0.086 HD
ATOM     14  H   UNL     1      -2.457   0.389   7.437  0.00  0.00    -0.086 HD
ENDROOT
BRANCH   1  16
ATOM     15  N   UNL     1       0.108   0.671   2.023  0.00  0.00    -0.304 N 
ATOM     16  C   UNL     1       0.051  -0.633   2.355  0.00  0.00    +0.219 C 
ATOM     17  O   UNL     1      -0.587  -1.406   1.672  0.00  0.00    -0.275 OA
ATOM     18  H   UNL     1       0.619   1.289   2.570  0.00  0.00    +0.149 HD
BRANCH  15  20
ATOM     19  C   UNL     1      -2.054   1.464   1.200  0.00  0.00    +0.038 C 
ATOM     20  C   UNL     1      -0.600   1.157   0.836  0.00  0.00    +0.156 C 
BRANCH  20  21
ATOM     21  C   UNL     1       0.067   2.410   0.330  0.00  0.00    +0.233 C 
ATOM     22  O   UNL     1       1.038   2.854   0.905  0.00  0.00    -0.274 OA
ATOM     23  N   UNL     1      -0.416   3.037  -0.760  0.00  0.00    -0.317 N 
ATOM     24  C   UNL     1       0.232   4.255  -1.252  0.00  0.00    +0.128 C 
ATOM     25  H   UNL     1      -1.193   2.682  -1.220  0.00  0.00    +0.148 HD
ENDBRANCH  20  21
ENDBRANCH  15  20
ENDBRANCH   1  16
BRANCH  11  26
ATOM     26  C   UNL     1       3.029  -4.642   4.643  0.00  0.00    +0.100 C 
BRANCH  26  27
ATOM     27  C   UNL     1       3.738  -5.656   5.543  0.00  0.00    +0.044 C 
BRANCH  27  28
ATOM     28  C   UNL     1       4.972  -6.169   4.847  0.00  0.00    -0.047 A 
ATOM     29  C   UNL     1       4.895  -7.284   4.034  0.00  0.00    +0.003 A 
ATOM     30  C   UNL     1       6.027  -7.755   3.396  0.00  0.00    +0.000 A 
ATOM     31  C   UNL     1       7.237  -7.109   3.571  0.00  0.00    +0.000 A 
ATOM     32  C   UNL     1       7.314  -5.993   4.383  0.00  0.00    +0.000 A 
ATOM     33  C   UNL     1       6.181  -5.521   5.018  0.00  0.00    +0.003 A 
ENDBRANCH  27  28
ENDBRANCH  26  27
ENDBRANCH  11  26
TORSDOF 6
