REMARK  Name = ZINC59489461
REMARK  10 active torsions:
REMARK  status: ('A' for Active; 'I' for Inactive)
REMARK    1  A    between atoms: C_1  and  C_2
REMARK    2  A    between atoms: C_2  and  C_24
REMARK    3  A    between atoms: N_3  and  N_4
REMARK    4  A    between atoms: C_5  and  S_7
REMARK    5  A    between atoms: S_7  and  C_8
REMARK    6  A    between atoms: N_13  and  C_16
REMARK    7  A    between atoms: C_19  and  O_22
REMARK    8  A    between atoms: O_22  and  C_23
REMARK    9  A    between atoms: C_24  and  C_25
REMARK   10  A    between atoms: C_25  and  C_26
REMARK                            x       y       z     vdW  Elec       q    Type
REMARK                         _______ _______ _______ _____ _____    ______ ____
ROOT
ATOM      1  N   UNL     1      -0.326   0.915   2.587  0.00  0.00    -0.217 N 
ATOM      2  C   UNL     1      -0.244   0.008   3.620  0.00  0.00    +0.146 C 
ATOM      3  N   UNL     1      -0.301  -1.271   3.371  0.00  0.00    -0.380 N 
ATOM      4  H   UNL     1      -0.284   1.866   2.772  0.00  0.00    +0.176 HD
ATOM      5  H   UNL     1      -0.243  -1.910   4.099  0.00  0.00    +0.158 HD
ATOM      6  H   UNL     1      -0.401  -1.584   2.458  0.00  0.00    +0.158 HD
ENDROOT
BRANCH   1   9
ATOM      7  C   UNL     1      -0.481   2.785   0.596  0.00  0.00    +0.062 C 
ATOM      8  C   UNL     1      -0.547   1.307   0.308  0.00  0.00    +0.034 C 
ATOM      9  N   UNL     1      -0.471   0.464   1.269  0.00  0.00    -0.190 NA
BRANCH   8  10
ATOM     10  C   UNL     1      -0.703   0.822  -1.110  0.00  0.00    +0.057 C 
BRANCH  10  11
ATOM     11  C   UNL     1      -2.061   1.266  -1.655  0.00  0.00    +0.041 C 
BRANCH  11  12
ATOM     12  C   UNL     1      -2.217   0.781  -3.073  0.00  0.00    -0.043 A 
ATOM     13  C   UNL     1      -1.789   1.572  -4.123  0.00  0.00    +0.007 A 
ATOM     14  C   UNL     1      -1.929   1.131  -5.426  0.00  0.00    +0.050 A 
ATOM     15  C   UNL     1      -2.499  -0.106  -5.682  0.00  0.00    +0.166 A 
ATOM     16  C   UNL     1      -2.930  -0.902  -4.624  0.00  0.00    +0.166 A 
ATOM     17  C   UNL     1      -2.781  -0.456  -3.321  0.00  0.00    +0.053 A 
ATOM     18  O   UNL     1      -3.450  -2.058  -5.131  0.00  0.00    -0.453 OA
ATOM     19  C   UNL     1      -3.706  -1.787  -6.522  0.00  0.00    +0.466 C 
ATOM     20  O   UNL     1      -2.749  -0.763  -6.852  0.00  0.00    -0.453 OA
ENDBRANCH  11  12
ENDBRANCH  10  11
ENDBRANCH   8  10
ENDBRANCH   1   9
BRANCH   2  21
ATOM     21  S   UNL     1      -0.062   0.575   5.279  0.00  0.00    -0.078 S 
BRANCH  21  22
ATOM     22  C   UNL     1      -0.001  -0.949   6.260  0.00  0.00    +0.149 C 
ATOM     23  C   UNL     1       0.231  -0.626   7.750  0.00  0.00    +0.120 C 
ATOM     24  C   UNL     1      -1.008  -1.171   8.427  0.00  0.00    +0.228 C 
ATOM     25  O   UNL     1      -1.236  -1.125   9.617  0.00  0.00    -0.275 OA
ATOM     26  N   UNL     1      -1.813  -1.712   7.504  0.00  0.00    -0.209 N 
ATOM     27  C   UNL     1      -1.344  -1.644   6.248  0.00  0.00    +0.240 C 
ATOM     28  O   UNL     1      -1.906  -2.070   5.262  0.00  0.00    -0.274 OA
BRANCH  26  29
ATOM     29  C   UNL     1      -3.046  -2.302   7.823  0.00  0.00    +0.044 A 
ATOM     30  C   UNL     1      -3.219  -3.671   7.671  0.00  0.00    +0.027 A 
ATOM     31  C   UNL     1      -4.432  -4.252   7.986  0.00  0.00    +0.047 A 
ATOM     32  C   UNL     1      -5.476  -3.468   8.453  0.00  0.00    +0.120 A 
ATOM     33  C   UNL     1      -5.303  -2.100   8.605  0.00  0.00    +0.047 A 
ATOM     34  C   UNL     1      -4.089  -1.519   8.296  0.00  0.00    +0.027 A 
BRANCH  32  35
ATOM     35  O   UNL     1      -6.670  -4.040   8.763  0.00  0.00    -0.495 OA
ATOM     36  C   UNL     1      -7.701  -3.173   9.239  0.00  0.00    +0.277 C 
ENDBRANCH  32  35
ENDBRANCH  26  29
ENDBRANCH  21  22
ENDBRANCH   2  21
TORSDOF 8
