REMARK  Name = ZINC08266561
REMARK  6 active torsions:
REMARK  status: ('A' for Active; 'I' for Inactive)
REMARK    1  A    between atoms: C_1  and  C_2
REMARK    2  A    between atoms: C_2  and  C_4
REMARK    3  A    between atoms: C_2  and  N_62
REMARK    4  A    between atoms: N_6  and  C_7
REMARK    5  A    between atoms: C_10  and  S_13
REMARK    6  A    between atoms: S_13  and  N_16
REMARK                            x       y       z     vdW  Elec       q    Type
REMARK                         _______ _______ _______ _____ _____    ______ ____
ROOT
ATOM      1  C   UNL     1      -0.533   1.959   3.618  0.00  0.00    +0.203 C 
ATOM      2  O   UNL     1      -1.503   2.676   3.491  0.00  0.00    -0.277 OA
ATOM      3  N   UNL     1      -0.040   1.704   4.846  0.00  0.00    -0.287 N 
ATOM      4  H   UNL     1       0.780   1.195   4.943  0.00  0.00    +0.155 HD
ENDROOT
BRANCH   3   5
ATOM      5  C   UNL     1      -0.710   2.174   5.981  0.00  0.00    +0.033 A 
ATOM      6  C   UNL     1       0.009   2.547   7.109  0.00  0.00    +0.025 A 
ATOM      7  C   UNL     1      -0.654   3.016   8.226  0.00  0.00    +0.030 A 
ATOM      8  C   UNL     1      -2.034   3.103   8.225  0.00  0.00    +0.106 A 
ATOM      9  C   UNL     1      -2.754   2.728   7.106  0.00  0.00    +0.030 A 
ATOM     10  C   UNL     1      -2.095   2.264   5.984  0.00  0.00    +0.025 A 
BRANCH   8  11
ATOM     11  S   UNL     1      -2.878   3.695   9.655  0.00  0.00    +0.061 S 
ATOM     12  O   UNL     1      -1.949   4.495  10.373  0.00  0.00    -0.153 OA
ATOM     13  O   UNL     1      -4.130   4.197   9.209  0.00  0.00    -0.153 OA
BRANCH  11  14
ATOM     14  N   UNL     1      -3.207   2.381  10.608  0.00  0.00    -0.177 NA
ATOM     15  C   UNL     1      -4.427   1.562  10.546  0.00  0.00    +0.109 C 
ATOM     16  C   UNL     1      -4.301   0.472  11.632  0.00  0.00    +0.018 C 
ATOM     17  C   UNL     1      -3.280   1.088  12.624  0.00  0.00    +0.018 C 
ATOM     18  C   UNL     1      -2.329   1.843  11.662  0.00  0.00    +0.109 C 
ENDBRANCH  11  14
ENDBRANCH   8  11
ENDBRANCH   3   5
BRANCH   1  20
ATOM     19  C   UNL     1       1.439   2.076   2.119  0.00  0.00    -0.004 C 
ATOM     20  C   UNL     1       0.120   1.353   2.403  0.00  0.00    +0.016 C 
BRANCH  20  30
ATOM     21  C   UNL     1      -0.372   0.593   0.158  0.00  0.00    -0.077 C 
ATOM     22  C   UNL     1      -1.402   0.661  -0.972  0.00  0.00    -0.015 C 
ATOM     23  C   UNL     1      -1.490   2.102  -1.486  0.00  0.00    -0.011 C 
ATOM     24  C   UNL     1      -0.126   2.521  -2.040  0.00  0.00    +0.004 C 
ATOM     25  C   UNL     1      -0.194   3.969  -2.527  0.00  0.00    +0.000 C 
ATOM     26  C   UNL     1      -0.566   4.883  -1.358  0.00  0.00    +0.000 C 
ATOM     27  C   UNL     1      -1.932   4.469  -0.805  0.00  0.00    +0.002 C 
ATOM     28  C   UNL     1      -1.872   3.021  -0.322  0.00  0.00    -0.025 C 
ATOM     29  C   UNL     1      -0.829   2.889   0.789  0.00  0.00    -0.074 C 
ATOM     30  N   UNL     1      -0.801   1.486   1.256  0.00  0.00    +0.387 N 
ATOM     31  H   UNL     1      -1.746   1.216   1.554  0.00  0.00    -0.081 HD
ENDBRANCH  20  30
ENDBRANCH   1  20
TORSDOF 5
