REMARK  Name = ZINC62977226
REMARK  13 active torsions:
REMARK  status: ('A' for Active; 'I' for Inactive)
REMARK    1  A    between atoms: C_1  and  C_2
REMARK    2  A    between atoms: C_2  and  N_3
REMARK    3  A    between atoms: N_3  and  C_4
REMARK    4  A    between atoms: N_3  and  C_6
REMARK    5  A    between atoms: C_4  and  C_5
REMARK    6  A    between atoms: C_9  and  C_12
REMARK    7  A    between atoms: C_17  and  C_36
REMARK    8  A    between atoms: C_19  and  O_35
REMARK    9  A    between atoms: C_20  and  C_23
REMARK   10  A    between atoms: C_23  and  N_24
REMARK   11  A    between atoms: C_30  and  O_32
REMARK   12  A    between atoms: O_32  and  C_33
REMARK   13  A    between atoms: C_33  and  C_34
REMARK                            x       y       z     vdW  Elec       q    Type
REMARK                         _______ _______ _______ _____ _____    ______ ____
ROOT
ATOM      1  C   UNL     1       0.881  -6.293   0.979  0.00  0.00    +0.058 C 
ATOM      2  C   UNL     1       2.045  -6.970   1.138  0.00  0.00    +0.176 C 
ATOM      3  C   UNL     1       2.233  -8.423   0.997  0.00  0.00    +0.232 C 
ATOM      4  O   UNL     1       1.393  -9.260   0.718  0.00  0.00    -0.283 OA
ATOM      5  C   UNL     1       3.666  -8.637   1.268  0.00  0.00    +0.071 A 
ATOM      6  C   UNL     1       4.472  -9.776   1.294  0.00  0.00    -0.033 A 
ATOM      7  C   UNL     1       5.802  -9.663   1.585  0.00  0.00    +0.050 A 
ATOM      8  C   UNL     1       6.355  -8.413   1.855  0.00  0.00    +0.125 A 
ATOM      9  C   UNL     1       5.566  -7.274   1.832  0.00  0.00    +0.051 A 
ATOM     10  C   UNL     1       4.212  -7.372   1.538  0.00  0.00    +0.148 A 
ATOM     11  O   UNL     1       3.247  -6.431   1.449  0.00  0.00    -0.451 OA
ATOM     12  C   UNL     1       3.876 -11.130   1.003  0.00  0.00    +0.045 C 
ENDROOT
BRANCH   1  16
ATOM     13  C   UNL     1       0.870  -2.053   1.014  0.00  0.00    +0.013 A 
ATOM     14  C   UNL     1       2.072  -2.739   1.041  0.00  0.00    +0.022 A 
ATOM     15  C   UNL     1       2.084  -4.117   1.030  0.00  0.00    +0.010 A 
ATOM     16  C   UNL     1       0.877  -4.823   0.991  0.00  0.00    -0.021 A 
ATOM     17  C   UNL     1      -0.334  -4.122   0.963  0.00  0.00    +0.010 A 
ATOM     18  C   UNL     1      -0.329  -2.744   0.980  0.00  0.00    +0.022 A 
BRANCH  13  19
ATOM     19  N   UNL     1       0.867  -0.655   1.025  0.00  0.00    -0.394 NA
ATOM     20  H   UNL     1      -0.085  -0.321   1.006  0.00  0.00    +0.126 HD
BRANCH  19  22
ATOM     21  C   UNL     1       0.708  -0.583   3.467  0.00  0.00    +0.022 C 
ATOM     22  C   UNL     1       1.530  -0.173   2.244  0.00  0.00    +0.081 C 
ENDBRANCH  19  22
BRANCH  19  23
ATOM     23  C   UNL     1       1.586  -0.154  -0.154  0.00  0.00    +0.081 C 
ATOM     24  C   UNL     1       0.829  -0.556  -1.422  0.00  0.00    +0.022 C 
ENDBRANCH  19  23
ENDBRANCH  13  19
ENDBRANCH   1  16
BRANCH   8  25
ATOM     25  O   UNL     1       7.677  -8.310   2.143  0.00  0.00    -0.506 OA
ATOM     26  H   UNL     1       8.239  -8.175   1.368  0.00  0.00    +0.292 HD
ENDBRANCH   8  25
BRANCH   9  27
ATOM     27  C   UNL     1       6.178  -5.929   2.126  0.00  0.00    +0.127 C 
BRANCH  27  28
ATOM     28  N   UNL     1       6.657  -5.324   0.876  0.00  0.00    -0.295 NA
ATOM     29  C   UNL     1       7.765  -6.103   0.306  0.00  0.00    +0.104 C 
ATOM     30  C   UNL     1       8.114  -5.549  -1.080  0.00  0.00    +0.126 C 
ATOM     31  N   UNL     1       8.367  -4.105  -0.956  0.00  0.00    -0.265 N 
ATOM     32  C   UNL     1       7.362  -3.279  -0.271  0.00  0.00    +0.126 C 
ATOM     33  C   UNL     1       7.042  -3.922   1.082  0.00  0.00    +0.104 C 
ATOM     34  C   UNL     1       9.491  -3.555  -1.456  0.00  0.00    +0.403 C 
ATOM     35  O   UNL     1      10.311  -4.253  -2.019  0.00  0.00    -0.226 OA
BRANCH  34  36
ATOM     36  O   UNL     1       9.705  -2.231  -1.332  0.00  0.00    -0.451 OA
BRANCH  36  37
ATOM     37  C   UNL     1      10.917  -1.716  -1.886  0.00  0.00    +0.230 C 
ATOM     38  C   UNL     1      10.984  -0.205  -1.650  0.00  0.00    +0.048 C 
ENDBRANCH  36  37
ENDBRANCH  34  36
ENDBRANCH  27  28
ENDBRANCH   9  27
TORSDOF 9
