REMARK  Name = ZINC49469083
REMARK  8 active torsions:
REMARK  status: ('A' for Active; 'I' for Inactive)
REMARK    1  A    between atoms: C_1  and  C_2
REMARK    2  A    between atoms: C_3  and  C_12
REMARK    3  A    between atoms: C_5  and  C_7
REMARK    4  A    between atoms: N_17  and  C_19
REMARK    5  A    between atoms: C_19  and  C_20
REMARK    6  A    between atoms: C_20  and  N_21
REMARK    7  A    between atoms: C_22  and  C_24
REMARK    8  A    between atoms: C_26  and  C_36
REMARK                            x       y       z     vdW  Elec       q    Type
REMARK                         _______ _______ _______ _____ _____    ______ ____
ROOT
ATOM      1  C   UNL     1      -0.007  -0.057  -2.259  0.00  0.00    +0.100 A 
ATOM      2  C   UNL     1       0.033  -0.993  -3.323  0.00  0.00    +0.036 A 
ATOM      3  C   UNL     1       0.054  -0.517  -4.599  0.00  0.00    +0.074 A 
ATOM      4  C   UNL     1       0.035   0.884  -4.784  0.00  0.00    +0.267 A 
ATOM      5  O   UNL     1       0.053   1.355  -5.910  0.00  0.00    -0.266 OA
ATOM      6  N   UNL     1      -0.003   1.695  -3.711  0.00  0.00    -0.227 N 
ATOM      7  N   UNL     1      -0.028   1.232  -2.513  0.00  0.00    -0.168 NA
ENDROOT
BRANCH   1  10
ATOM      8  C   UNL     1      -0.105   1.692   0.273  0.00  0.00    +0.067 C 
ATOM      9  C   UNL     1      -0.075   0.186   0.309  0.00  0.00    +0.055 A 
ATOM     10  C   UNL     1      -0.032  -0.532  -0.861  0.00  0.00    +0.062 A 
ATOM     11  S   UNL     1      -0.013  -2.203  -0.222  0.00  0.00    -0.065 S 
ATOM     12  C   UNL     1      -0.065  -1.774   1.513  0.00  0.00    +0.116 A 
ATOM     13  N   UNL     1      -0.086  -0.446   1.454  0.00  0.00    -0.243 NA
BRANCH  12  14
ATOM     14  C   UNL     1      -0.077  -2.655   2.690  0.00  0.00    +0.044 A 
ATOM     15  C   UNL     1      -0.122  -2.318   4.030  0.00  0.00    +0.018 A 
ATOM     16  C   UNL     1      -0.124  -3.332   4.960  0.00  0.00    +0.008 A 
ATOM     17  C   UNL     1      -0.081  -4.622   4.536  0.00  0.00    +0.046 A 
ATOM     18  S   UNL     1      -0.043  -4.439   2.761  0.00  0.00    -0.095 S 
ENDBRANCH  12  14
ENDBRANCH   1  10
BRANCH   6  19
ATOM     19  C   UNL     1      -0.021   3.146  -3.914  0.00  0.00    +0.166 C 
BRANCH  19  20
ATOM     20  C   UNL     1      -1.470   3.628  -4.019  0.00  0.00    +0.127 C 
BRANCH  20  21
ATOM     21  N   UNL     1      -1.488   5.078  -4.222  0.00  0.00    -0.310 N 
ATOM     22  C   UNL     1      -2.664   5.727  -4.343  0.00  0.00    +0.258 C 
ATOM     23  O   UNL     1      -3.702   5.100  -4.372  0.00  0.00    -0.272 OA
ATOM     24  H   UNL     1      -0.655   5.572  -4.270  0.00  0.00    +0.149 HD
BRANCH  22  25
ATOM     25  C   UNL     1      -2.688   7.230  -4.441  0.00  0.00    +0.298 C 
ATOM     26  C   UNL     1      -2.193   7.666  -5.827  0.00  0.00    +0.220 C 
ATOM     27  O   UNL     1      -2.243   9.096  -5.891  0.00  0.00    -0.481 OA
ATOM     28  C   UNL     1      -3.381   9.689  -5.439  0.00  0.00    +0.163 A 
ATOM     29  C   UNL     1      -3.651  11.002  -5.794  0.00  0.00    +0.049 A 
ATOM     30  C   UNL     1      -4.801  11.620  -5.340  0.00  0.00    +0.004 A 
ATOM     31  C   UNL     1      -5.684  10.931  -4.530  0.00  0.00    +0.004 A 
ATOM     32  C   UNL     1      -5.422   9.622  -4.173  0.00  0.00    +0.049 A 
ATOM     33  C   UNL     1      -4.271   8.995  -4.628  0.00  0.00    +0.163 A 
ATOM     34  O   UNL     1      -4.029   7.704  -4.274  0.00  0.00    -0.472 OA
ATOM     35  C   UNL     1      -0.755   7.189  -6.035  0.00  0.00    +0.056 C 
ENDBRANCH  22  25
ENDBRANCH  20  21
ENDBRANCH  19  20
ENDBRANCH   6  19
TORSDOF 6
