REMARK  Name = ZINC39467137
REMARK  10 active torsions:
REMARK  status: ('A' for Active; 'I' for Inactive)
REMARK    1  A    between atoms: C_1  and  C_2
REMARK    2  A    between atoms: C_4  and  C_8
REMARK    3  A    between atoms: C_8  and  C_9
REMARK    4  A    between atoms: C_9  and  N_10
REMARK    5  A    between atoms: N_10  and  C_11
REMARK    6  A    between atoms: C_11  and  C_12
REMARK    7  A    between atoms: N_15  and  C_26
REMARK    8  A    between atoms: C_17  and  C_19
REMARK    9  A    between atoms: C_29  and  O_32
REMARK   10  A    between atoms: O_32  and  C_33
REMARK                            x       y       z     vdW  Elec       q    Type
REMARK                         _______ _______ _______ _____ _____    ______ ____
ROOT
ATOM      1  C   UNL     1      -1.329  -7.184  -3.673  0.00  0.00    +0.014 C 
ATOM      2  C   UNL     1      -0.593  -6.678  -4.937  0.00  0.00    +0.127 C 
ATOM      3  N   UNL     1      -0.224  -7.889  -5.686  0.00  0.00    -0.266 N 
ATOM      4  N   UNL     1      -0.715  -8.999  -5.048  0.00  0.00    -0.232 NA
ATOM      5  C   UNL     1      -0.838  -8.656  -3.607  0.00  0.00    +0.107 C 
ATOM      6  H   UNL     1      -1.607  -9.271  -5.431  0.00  0.00    +0.145 HD
ENDROOT
BRANCH   5   7
ATOM      7  C   UNL     1      -1.857  -9.534  -2.928  0.00  0.00    -0.010 A 
ATOM      8  C   UNL     1      -3.156  -9.091  -2.770  0.00  0.00    +0.006 A 
ATOM      9  C   UNL     1      -4.091  -9.897  -2.147  0.00  0.00    +0.000 A 
ATOM     10  C   UNL     1      -3.726 -11.146  -1.681  0.00  0.00    +0.001 A 
ATOM     11  C   UNL     1      -2.427 -11.591  -1.838  0.00  0.00    +0.020 A 
ATOM     12  C   UNL     1      -1.492 -10.787  -2.467  0.00  0.00    +0.046 A 
ATOM     13 CL   UNL     1       0.138 -11.347  -2.671  0.00  0.00    -0.083 Cl
ENDBRANCH   5   7
BRANCH   3  14
ATOM     14  C   UNL     1       0.516  -7.906  -6.874  0.00  0.00    +0.045 A 
ATOM     15  C   UNL     1       0.967  -6.715  -7.428  0.00  0.00    +0.028 A 
ATOM     16  C   UNL     1       1.698  -6.733  -8.600  0.00  0.00    +0.047 A 
ATOM     17  C   UNL     1       1.982  -7.939  -9.223  0.00  0.00    +0.120 A 
ATOM     18  C   UNL     1       1.531  -9.129  -8.670  0.00  0.00    +0.047 A 
ATOM     19  C   UNL     1       0.805  -9.114  -7.495  0.00  0.00    +0.028 A 
BRANCH  17  20
ATOM     20  O   UNL     1       2.702  -7.956 -10.377  0.00  0.00    -0.495 OA
ATOM     21  C   UNL     1       2.957  -9.233 -10.964  0.00  0.00    +0.277 C 
ENDBRANCH  17  20
ENDBRANCH   3  14
BRANCH   1  22
ATOM     22  C   UNL     1      -0.894  -6.402  -2.432  0.00  0.00    -0.076 C 
BRANCH  22  23
ATOM     23  N   UNL     1      -1.482  -5.056  -2.470  0.00  0.00    +0.379 N 
ATOM     24  H   UNL     1      -2.488  -5.129  -2.485  0.00  0.00    -0.086 HD
ATOM     25  H   UNL     1      -1.166  -4.575  -3.298  0.00  0.00    -0.086 HD
BRANCH  23  26
ATOM     26  C   UNL     1      -1.063  -4.306  -1.278  0.00  0.00    -0.079 C 
BRANCH  26  27
ATOM     27  C   UNL     1      -1.675  -2.904  -1.317  0.00  0.00    +0.031 C 
BRANCH  27  31
ATOM     28  C   UNL     1      -1.242   1.574  -0.051  0.00  0.00    +0.067 C 
ATOM     29  C   UNL     1      -0.995   0.087  -0.072  0.00  0.00    +0.053 C 
ATOM     30  N   UNL     1      -1.913  -0.818  -0.038  0.00  0.00    -0.261 NA
ATOM     31  C   UNL     1      -1.240  -2.123  -0.076  0.00  0.00    +0.219 C 
ATOM     32  N   UNL     1       0.199  -1.833  -0.138  0.00  0.00    -0.264 NA
ATOM     33  C   UNL     1       0.330  -0.549  -0.141  0.00  0.00    +0.130 C 
ENDBRANCH  27  31
ENDBRANCH  26  27
ENDBRANCH  23  26
ENDBRANCH  22  23
ENDBRANCH   1  22
TORSDOF 8
