REMARK  Name = ZINC36203885
REMARK  8 active torsions:
REMARK  status: ('A' for Active; 'I' for Inactive)
REMARK    1  A    between atoms: C_1  and  C_2
REMARK    2  A    between atoms: N_8  and  C_9
REMARK    3  A    between atoms: C_9  and  C_10
REMARK    4  A    between atoms: C_16  and  C_21
REMARK    5  A    between atoms: C_24  and  O_29
REMARK    6  A    between atoms: C_25  and  O_27
REMARK    7  A    between atoms: O_27  and  C_28
REMARK    8  A    between atoms: O_29  and  C_30
REMARK                            x       y       z     vdW  Elec       q    Type
REMARK                         _______ _______ _______ _____ _____    ______ ____
ROOT
ATOM      1  C   UNL     1       2.754  -0.315   2.498  0.00  0.00    +0.094 A 
ATOM      2  N   UNL     1       4.020   0.113   2.736  0.00  0.00    -0.312 N 
ATOM      3  H   UNL     1       4.465   0.670   2.078  0.00  0.00    +0.170 HD
ATOM      4  C   UNL     1       4.670  -0.220   3.867  0.00  0.00    +0.260 A 
ATOM      5  O   UNL     1       5.807   0.173   4.066  0.00  0.00    -0.267 OA
ATOM      6  C   UNL     1       4.006  -1.042   4.832  0.00  0.00    +0.080 A 
ATOM      7  C   UNL     1       4.491  -1.531   6.117  0.00  0.00    +0.004 A 
ATOM      8  C   UNL     1       3.673  -2.304   6.871  0.00  0.00    +0.056 A 
ATOM      9  S   UNL     1       2.191  -2.419   5.887  0.00  0.00    -0.076 S 
ATOM     10  C   UNL     1       2.700  -1.436   4.500  0.00  0.00    +0.116 A 
ATOM     11  N   UNL     1       2.120  -1.062   3.362  0.00  0.00    -0.229 NA
ENDROOT
BRANCH   7  12
ATOM     12  C   UNL     1       5.854  -1.190   6.590  0.00  0.00    -0.013 A 
ATOM     13  C   UNL     1       6.951  -1.371   5.748  0.00  0.00    +0.012 A 
ATOM     14  C   UNL     1       8.220  -1.053   6.189  0.00  0.00    +0.050 A 
ATOM     15  C   UNL     1       8.407  -0.552   7.468  0.00  0.00    +0.162 A 
ATOM     16  C   UNL     1       7.315  -0.368   8.313  0.00  0.00    +0.162 A 
ATOM     17  C   UNL     1       6.041  -0.680   7.874  0.00  0.00    +0.058 A 
BRANCH  16  18
ATOM     18  O   UNL     1       7.501   0.123   9.567  0.00  0.00    -0.491 OA
ATOM     19  C   UNL     1       6.337   0.287  10.379  0.00  0.00    +0.277 C 
ENDBRANCH  16  18
BRANCH  15  20
ATOM     20  O   UNL     1       9.659  -0.241   7.899  0.00  0.00    -0.491 OA
ATOM     21  C   UNL     1      10.733  -0.455   6.981  0.00  0.00    +0.277 C 
ENDBRANCH  15  20
ENDBRANCH   7  12
BRANCH   1  22
ATOM     22  C   UNL     1       2.066   0.083   1.218  0.00  0.00    -0.003 C 
BRANCH  22  29
ATOM     23  C   UNL     1      -0.019   1.526   0.010  0.00  0.00    -0.013 C 
ATOM     24  C   UNL     1       0.002  -0.004   0.002  0.00  0.00    -0.071 C 
ATOM     25  C   UNL     1      -1.434  -0.533   0.011  0.00  0.00    -0.016 C 
ATOM     26  C   UNL     1      -1.408  -2.064   0.003  0.00  0.00    -0.003 C 
ATOM     27  C   UNL     1      -0.600  -2.558   1.206  0.00  0.00    -0.019 C 
ATOM     28  C   UNL     1       0.805  -1.954   1.152  0.00  0.00    -0.078 C 
ATOM     29  N   UNL     1       0.713  -0.490   1.191  0.00  0.00    +0.386 N 
ATOM     30  H   UNL     1       0.213  -0.206   2.020  0.00  0.00    -0.081 HD
ENDBRANCH  22  29
ENDBRANCH   1  22
TORSDOF 5
