REMARK  Name = ZINC03186543
REMARK  3 active torsions:
REMARK  status: ('A' for Active; 'I' for Inactive)
REMARK    1  A    between atoms: C_3  and  C_6
REMARK    2  A    between atoms: C_7  and  C_8
REMARK    3  A    between atoms: C_20  and  O_22
REMARK                            x       y       z     vdW  Elec       q    Type
REMARK                         _______ _______ _______ _____ _____    ______ ____
ROOT
ATOM      1  C   UNL     1       5.711  -0.586  -0.056  0.00  0.00    +0.217 C 
ATOM      2  N   UNL     1       6.164  -1.266  -1.283  0.00  0.00    -0.313 N 
ATOM      3  C   UNL     1       6.194  -2.642  -1.242  0.00  0.00    +0.080 A 
ATOM      4  C   UNL     1       6.323  -3.343  -0.037  0.00  0.00    +0.068 A 
ATOM      5  C   UNL     1       6.326  -4.790  -0.150  0.00  0.00    -0.023 A 
ATOM      6  C   UNL     1       6.212  -5.255  -1.415  0.00  0.00    -0.005 A 
ATOM      7  S   UNL     1       6.102  -3.801  -2.423  0.00  0.00    -0.078 S 
ATOM      8  C   UNL     1       6.187  -6.687  -1.850  0.00  0.00    +0.043 C 
ATOM      9  C   UNL     1       6.686  -7.555  -0.685  0.00  0.00    +0.005 C 
ATOM     10  C   UNL     1       5.962  -7.128   0.595  0.00  0.00    +0.005 C 
ATOM     11  C   UNL     1       6.447  -5.744   1.030  0.00  0.00    +0.037 C 
ATOM     12  C   UNL     1       6.447  -2.546   1.210  0.00  0.00    +0.220 C 
ATOM     13  N   UNL     1       6.181  -1.271   1.142  0.00  0.00    -0.223 NA
ATOM     14  H   UNL     1       6.425  -0.771  -2.075  0.00  0.00    +0.149 HD
ENDROOT
BRANCH   1  16
ATOM     15  C   UNL     1       3.567   0.618  -0.029  0.00  0.00    +0.045 C 
ATOM     16  C   UNL     1       4.204  -0.549  -0.041  0.00  0.00    +0.022 C 
BRANCH  15  19
ATOM     17  C   UNL     1      -0.016   1.344   0.009  0.00  0.00    +0.042 A 
ATOM     18  C   UNL     1       1.324   1.775  -0.001  0.00  0.00    +0.049 A 
ATOM     19  C   UNL     1       2.097   0.654  -0.015  0.00  0.00    +0.127 A 
ATOM     20  O   UNL     1       1.280  -0.418  -0.012  0.00  0.00    -0.464 OA
ATOM     21  C   UNL     1       0.002  -0.004   0.002  0.00  0.00    +0.195 A 
ENDBRANCH  15  19
ENDBRANCH   1  16
BRANCH  12  22
ATOM     22  O   UNL     1       6.822  -3.122   2.375  0.00  0.00    -0.492 OA
ATOM     23  H   UNL     1       6.870  -2.508   3.121  0.00  0.00    +0.294 HD
ENDBRANCH  12  22
TORSDOF 3
