REMARK  Name = ZINC63071402
REMARK  8 active torsions:
REMARK  status: ('A' for Active; 'I' for Inactive)
REMARK    1  A    between atoms: C_1  and  C_2
REMARK    2  A    between atoms: C_5  and  O_8
REMARK    3  A    between atoms: O_8  and  C_9
REMARK    4  A    between atoms: C_9  and  C_10
REMARK    5  A    between atoms: C_10  and  C_11
REMARK    6  A    between atoms: C_10  and  N_12
REMARK    7  A    between atoms: C_23  and  N_24
REMARK    8  A    between atoms: C_25  and  C_27
REMARK                            x       y       z     vdW  Elec       q    Type
REMARK                         _______ _______ _______ _____ _____    ______ ____
ROOT
ATOM      1  N   UNL     1      -1.167  -6.695   0.413  0.00  0.00    -0.293 N 
ATOM      2  C   UNL     1      -1.612  -7.958   0.567  0.00  0.00    +0.303 C 
ATOM      3  O   UNL     1      -0.933  -8.773   1.160  0.00  0.00    -0.253 OA
ATOM      4  N   UNL     1      -2.809  -8.317   0.063  0.00  0.00    -0.281 N 
ATOM      5  C   UNL     1      -3.375  -9.654   0.310  0.00  0.00    +0.114 C 
ATOM      6  C   UNL     1      -4.654  -9.479   1.127  0.00  0.00    +0.056 C 
ATOM      7  C   UNL     1      -5.526  -8.404   0.535  0.00  0.00    -0.020 A 
ATOM      8  C   UNL     1      -5.045  -7.436  -0.317  0.00  0.00    -0.025 A 
ATOM      9  C   UNL     1      -5.902  -6.464  -0.815  0.00  0.00    +0.005 A 
ATOM     10  C   UNL     1      -7.240  -6.463  -0.473  0.00  0.00    +0.002 A 
ATOM     11  C   UNL     1      -7.732  -7.437   0.374  0.00  0.00    +0.023 A 
ATOM     12  C   UNL     1      -6.879  -8.406   0.878  0.00  0.00    +0.037 A 
ATOM     13  C   UNL     1      -3.605  -7.389  -0.749  0.00  0.00    +0.144 C 
ATOM     14  H   UNL     1      -1.673  -6.064  -0.124  0.00  0.00    +0.151 HD
ENDROOT
BRANCH  12  15
ATOM     15  N   UNL     1      -7.377  -9.392   1.737  0.00  0.00    -0.285 N 
ATOM     16  C   UNL     1      -8.624  -9.872   1.561  0.00  0.00    +0.214 C 
ATOM     17  O   UNL     1      -9.344  -9.391   0.711  0.00  0.00    -0.276 OA
ATOM     18  C   UNL     1      -9.124 -11.005   2.420  0.00  0.00    +0.109 C 
ATOM     19  H   UNL     1      -6.824  -9.730   2.459  0.00  0.00    +0.155 HD
ENDBRANCH  12  15
BRANCH   1  20
ATOM     20  C   UNL     1       0.080  -6.274   1.055  0.00  0.00    +0.109 C 
ATOM     21  C   UNL     1       1.265  -6.644   0.160  0.00  0.00    +0.031 C 
BRANCH  20  22
ATOM     22  C   UNL     1       0.058  -4.759   1.270  0.00  0.00    +0.251 C 
BRANCH  22  23
ATOM     23  O   UNL     1       0.043  -4.099   0.003  0.00  0.00    -0.490 OA
BRANCH  23  28
ATOM     24  C   UNL     1      -0.046   1.533   0.057  0.00  0.00    +0.044 C 
ATOM     25  C   UNL     1      -0.022   0.026   0.043  0.00  0.00    -0.050 A 
ATOM     26  C   UNL     1      -0.015  -0.652  -1.162  0.00  0.00    +0.007 A 
ATOM     27  C   UNL     1       0.007  -2.034  -1.178  0.00  0.00    +0.046 A 
ATOM     28  C   UNL     1       0.022  -2.740   0.016  0.00  0.00    +0.121 A 
ATOM     29  C   UNL     1       0.015  -2.057   1.223  0.00  0.00    +0.046 A 
ATOM     30  C   UNL     1      -0.001  -0.675   1.234  0.00  0.00    +0.007 A 
ENDBRANCH  23  28
ENDBRANCH  22  23
ENDBRANCH  20  22
ENDBRANCH   1  20
TORSDOF 5
