REMARK  Name = ZINC01144565
REMARK  9 active torsions:
REMARK  status: ('A' for Active; 'I' for Inactive)
REMARK    1  A    between atoms: C_1  and  O_2
REMARK    2  A    between atoms: O_2  and  C_3
REMARK    3  A    between atoms: C_5  and  C_10
REMARK    4  A    between atoms: C_8  and  O_9
REMARK    5  A    between atoms: C_12  and  C_33
REMARK    6  A    between atoms: C_13  and  S_22
REMARK    7  A    between atoms: S_22  and  C_23
REMARK    8  A    between atoms: C_23  and  C_24
REMARK    9  A    between atoms: N_26  and  C_27
REMARK                            x       y       z     vdW  Elec       q    Type
REMARK                         _______ _______ _______ _____ _____    ______ ____
ROOT
ATOM      1  C   UNL     1       2.403   0.379  -4.230  0.00  0.00    +0.097 C 
ATOM      2  C   UNL     1       3.872   0.083  -4.308  0.00  0.00    +0.069 C 
ATOM      3  C   UNL     1       4.375  -0.719  -5.285  0.00  0.00    +0.080 C 
ATOM      4  N   UNL     1       3.537  -1.267  -6.227  0.00  0.00    -0.311 N 
ATOM      5  C   UNL     1       2.299  -0.730  -6.455  0.00  0.00    +0.016 C 
ATOM      6  C   UNL     1       1.716   0.068  -5.536  0.00  0.00    +0.024 C 
ATOM      7  C   UNL     1       0.452   0.636  -5.770  0.00  0.00    +0.162 C 
ATOM      8  O   UNL     1      -0.049   1.346  -4.920  0.00  0.00    -0.292 OA
ATOM      9  C   UNL     1      -0.293   0.383  -7.052  0.00  0.00    +0.080 C 
ATOM     10  C   UNL     1       0.718   0.115  -8.172  0.00  0.00    +0.014 C 
ATOM     11  C   UNL     1       1.603  -1.056  -7.754  0.00  0.00    +0.051 C 
ATOM     12  H   UNL     1       3.826  -2.041  -6.736  0.00  0.00    +0.152 HD
ENDROOT
BRANCH   1  15
ATOM     13  C   UNL     1       0.606  -0.608  -1.056  0.00  0.00    +0.162 A 
ATOM     14  C   UNL     1       1.173   0.159  -2.062  0.00  0.00    +0.054 A 
ATOM     15  C   UNL     1       1.787  -0.456  -3.137  0.00  0.00    -0.031 A 
ATOM     16  C   UNL     1       1.837  -1.836  -3.212  0.00  0.00    +0.008 A 
ATOM     17  C   UNL     1       1.273  -2.606  -2.212  0.00  0.00    +0.049 A 
ATOM     18  C   UNL     1       0.662  -1.996  -1.129  0.00  0.00    +0.158 A 
BRANCH  13  20
ATOM     19  C   UNL     1      -0.017   1.425   0.010  0.00  0.00    +0.277 C 
ATOM     20  O   UNL     1       0.002  -0.004   0.002  0.00  0.00    -0.491 OA
ENDBRANCH  13  20
BRANCH  18  21
ATOM     21  O   UNL     1       0.112  -2.753  -0.142  0.00  0.00    -0.503 OA
ATOM     22  H   UNL     1      -0.816  -2.979  -0.291  0.00  0.00    +0.292 HD
ENDBRANCH  18  21
ENDBRANCH   1  15
BRANCH   2  23
ATOM     23  C   UNL     1       4.758   0.653  -3.338  0.00  0.00    +0.098 C 
ATOM     24  N   UNL     1       5.460   1.105  -2.568  0.00  0.00    -0.191 NA
ENDBRANCH   2  23
BRANCH   3  25
ATOM     25  S   UNL     1       6.104  -1.054  -5.343  0.00  0.00    -0.100 S 
BRANCH  25  26
ATOM     26  C   UNL     1       6.291  -2.141  -6.783  0.00  0.00    +0.171 C 
BRANCH  26  27
ATOM     27  C   UNL     1       7.743  -2.509  -6.949  0.00  0.00    +0.223 C 
ATOM     28  O   UNL     1       8.570  -2.080  -6.172  0.00  0.00    -0.275 OA
ATOM     29  N   UNL     1       8.123  -3.315  -7.961  0.00  0.00    -0.312 N 
ATOM     30  H   UNL     1       7.462  -3.658  -8.582  0.00  0.00    +0.149 HD
BRANCH  29  31
ATOM     31  C   UNL     1       9.534  -3.672  -8.122  0.00  0.00    +0.073 C 
ATOM     32  C   UNL     1       9.860  -4.876  -7.236  0.00  0.00    +0.022 C 
ATOM     33  C   UNL     1      11.334  -5.249  -7.405  0.00  0.00    +0.002 C 
ATOM     34  C   UNL     1      11.606  -5.605  -8.868  0.00  0.00    +0.000 C 
ATOM     35  C   UNL     1      11.280  -4.401  -9.754  0.00  0.00    +0.002 C 
ATOM     36  C   UNL     1       9.806  -4.027  -9.585  0.00  0.00    +0.022 C 
ENDBRANCH  29  31
ENDBRANCH  26  27
ENDBRANCH  25  26
ENDBRANCH   3  25
TORSDOF 8
