REMARK  Name = ZINC36203377
REMARK  12 active torsions:
REMARK  status: ('A' for Active; 'I' for Inactive)
REMARK    1  A    between atoms: C_1  and  O_2
REMARK    2  A    between atoms: O_2  and  C_3
REMARK    3  A    between atoms: C_7  and  C_9
REMARK    4  A    between atoms: C_9  and  N_10
REMARK    5  A    between atoms: N_10  and  C_11
REMARK    6  A    between atoms: N_10  and  C_33
REMARK    7  A    between atoms: C_11  and  C_12
REMARK    8  A    between atoms: C_15  and  C_17
REMARK    9  A    between atoms: C_17  and  C_18
REMARK   10  A    between atoms: C_17  and  C_25
REMARK   11  A    between atoms: C_17  and  O_32
REMARK   12  A    between atoms: C_33  and  C_34
REMARK                            x       y       z     vdW  Elec       q    Type
REMARK                         _______ _______ _______ _____ _____    ______ ____
ROOT
ATOM      1  C   UNL     1      -1.127  -5.077   3.344  0.00  0.00    +0.089 A 
ATOM      2  C   UNL     1      -1.825  -5.693   2.373  0.00  0.00    +0.043 A 
ATOM      3  C   UNL     1      -2.631  -6.668   3.003  0.00  0.00    +0.048 A 
ATOM      4  C   UNL     1      -2.377  -6.590   4.322  0.00  0.00    +0.146 A 
ATOM      5  O   UNL     1      -1.461  -5.629   4.522  0.00  0.00    -0.463 OA
ENDROOT
BRANCH   1   6
ATOM      6  C   UNL     1      -0.133  -3.962   3.143  0.00  0.00    -0.003 C 
BRANCH   6   7
ATOM      7  N   UNL     1      -0.826  -2.669   3.226  0.00  0.00    +0.389 N 
ATOM      8  H   UNL     1      -1.573  -2.644   2.548  0.00  0.00    -0.081 HD
BRANCH   7   9
ATOM      9  C   UNL     1       0.126  -1.585   2.946  0.00  0.00    -0.042 C 
BRANCH   9  14
ATOM     10  C   UNL     1      -1.840   1.362   1.631  0.00  0.00    +0.120 A 
ATOM     11  C   UNL     1      -1.965   2.140   2.773  0.00  0.00    +0.045 A 
ATOM     12  C   UNL     1      -1.414   1.709   3.964  0.00  0.00    +0.004 A 
ATOM     13  C   UNL     1      -0.738   0.504   4.019  0.00  0.00    +0.002 A 
ATOM     14  C   UNL     1      -0.612  -0.273   2.882  0.00  0.00    -0.060 A 
ATOM     15  C   UNL     1      -1.166   0.151   1.690  0.00  0.00    +0.047 A 
BRANCH  10  17
ATOM     16  C   UNL     1      -3.062   3.040   0.471  0.00  0.00    +0.277 C 
ATOM     17  O   UNL     1      -2.382   1.783   0.458  0.00  0.00    -0.495 OA
ENDBRANCH  10  17
ENDBRANCH   9  14
ENDBRANCH   7   9
BRANCH   7  18
ATOM     18  C   UNL     1      -1.381  -2.496   4.574  0.00  0.00    -0.046 C 
BRANCH  18  19
ATOM     19  C   UNL     1      -0.239  -2.371   5.585  0.00  0.00    +0.102 C 
ATOM     20  C   UNL     1      -0.802  -2.099   7.002  0.00  0.00    +0.032 C 
ATOM     21  C   UNL     1       0.352  -2.642   7.888  0.00  0.00    +0.030 C 
ATOM     22  C   UNL     1       0.875  -3.830   7.051  0.00  0.00    +0.160 C 
ATOM     23  O   UNL     1       0.469  -3.616   5.693  0.00  0.00    -0.378 OA
ENDBRANCH  18  19
ENDBRANCH   7  18
ENDBRANCH   6   7
ENDBRANCH   1   6
BRANCH   4  24
ATOM     24  C   UNL     1      -3.009  -7.442   5.393  0.00  0.00    +0.174 C 
BRANCH  24  25
ATOM     25  C   UNL     1      -2.041  -7.614   6.535  0.00  0.00    -0.002 A 
ATOM     26  C   UNL     1      -1.754  -6.546   7.365  0.00  0.00    +0.007 A 
ATOM     27  C   UNL     1      -0.866  -6.703   8.412  0.00  0.00    +0.003 A 
ATOM     28  C   UNL     1      -0.263  -7.927   8.631  0.00  0.00    +0.038 A 
ATOM     29  C   UNL     1      -0.549  -8.997   7.800  0.00  0.00    +0.124 A 
ATOM     30  C   UNL     1      -1.443  -8.841   6.754  0.00  0.00    +0.045 A 
ATOM     31  F   UNL     1       0.041 -10.194   8.012  0.00  0.00    -0.205 F 
ENDBRANCH  24  25
BRANCH  24  32
ATOM     32  C   UNL     1      -4.262  -6.770   5.894  0.00  0.00    -0.002 A 
ATOM     33  C   UNL     1      -4.282  -5.401   6.087  0.00  0.00    +0.007 A 
ATOM     34  C   UNL     1      -5.431  -4.784   6.546  0.00  0.00    +0.003 A 
ATOM     35  C   UNL     1      -6.560  -5.535   6.814  0.00  0.00    +0.038 A 
ATOM     36  C   UNL     1      -6.540  -6.906   6.621  0.00  0.00    +0.124 A 
ATOM     37  C   UNL     1      -5.391  -7.522   6.155  0.00  0.00    +0.045 A 
ATOM     38  F   UNL     1      -7.643  -7.641   6.883  0.00  0.00    -0.205 F 
ENDBRANCH  24  32
BRANCH  24  39
ATOM     39  O   UNL     1      -3.339  -8.722   4.851  0.00  0.00    -0.372 OA
ATOM     40  H   UNL     1      -3.960  -8.687   4.110  0.00  0.00    +0.212 HD
ENDBRANCH  24  39
ENDBRANCH   4  24
TORSDOF 11
