REMARK  Name = ZINC51570284
REMARK  5 active torsions:
REMARK  status: ('A' for Active; 'I' for Inactive)
REMARK    1  A    between atoms: C_1  and  N_2
REMARK    2  A    between atoms: N_2  and  C_3
REMARK    3  A    between atoms: C_3  and  C_4
REMARK    4  A    between atoms: C_9  and  O_10
REMARK    5  A    between atoms: O_10  and  C_11
REMARK                            x       y       z     vdW  Elec       q    Type
REMARK                         _______ _______ _______ _____ _____    ______ ____
ROOT
ATOM      1  C   UNL     1       0.680  -1.996  -1.133  0.00  0.00    -0.001 A 
ATOM      2  C   UNL     1       1.778  -2.689  -0.653  0.00  0.00    +0.023 A 
ATOM      3  C   UNL     1       1.716  -4.075  -0.603  0.00  0.00    +0.036 A 
ATOM      4  C   UNL     1       0.569  -4.716  -1.029  0.00  0.00    +0.130 A 
ATOM      5  N   UNL     1      -0.462  -4.028  -1.481  0.00  0.00    -0.220 NA
ATOM      6  C   UNL     1      -0.443  -2.706  -1.539  0.00  0.00    +0.222 A 
ATOM      7 BR   UNL     1       3.186  -5.074   0.043  0.00  0.00    -0.049 Br
ENDROOT
BRANCH   1   8
ATOM      8  C   UNL     1       0.699  -0.491  -1.207  0.00  0.00    -0.042 C 
BRANCH   8  10
ATOM      9  C   UNL     1      -0.001   1.533  -0.127  0.00  0.00    -0.100 C 
ATOM     10  N   UNL     1      -0.020   0.066  -0.054  0.00  0.00    +0.380 N 
ATOM     11  H   UNL     1       0.428  -0.234   0.799  0.00  0.00    -0.086 HD
ATOM     12  H   UNL     1      -0.975  -0.259  -0.064  0.00  0.00    -0.086 HD
ENDBRANCH   8  10
ENDBRANCH   1   8
BRANCH   6  13
ATOM     13  O   UNL     1      -1.528  -2.038  -2.005  0.00  0.00    -0.436 OA
BRANCH  13  14
ATOM     14  C   UNL     1      -2.567  -2.768  -2.491  0.00  0.00    +0.149 A 
ATOM     15  C   UNL     1      -2.651  -3.038  -3.849  0.00  0.00    +0.049 A 
ATOM     16  C   UNL     1      -3.708  -3.780  -4.340  0.00  0.00    +0.019 A 
ATOM     17  C   UNL     1      -4.682  -4.255  -3.479  0.00  0.00    +0.019 A 
ATOM     18  C   UNL     1      -4.600  -3.987  -2.124  0.00  0.00    +0.039 A 
ATOM     19  C   UNL     1      -3.541  -3.250  -1.627  0.00  0.00    +0.084 A 
ATOM     20 CL   UNL     1      -3.435  -2.921   0.074  0.00  0.00    -0.080 Cl
ATOM     21 BR   UNL     1      -6.127  -5.270  -4.155  0.00  0.00    -0.050 Br
ENDBRANCH  13  14
ENDBRANCH   6  13
TORSDOF 4
