REMARK  Name = ZINC50866105
REMARK  4 active torsions:
REMARK  status: ('A' for Active; 'I' for Inactive)
REMARK    1  A    between atoms: C_3  and  O_17
REMARK    2  A    between atoms: C_6  and  C_7
REMARK    3  A    between atoms: C_11  and  N_13
REMARK    4  A    between atoms: O_17  and  C_18
REMARK                            x       y       z     vdW  Elec       q    Type
REMARK                         _______ _______ _______ _____ _____    ______ ____
ROOT
ATOM      1  C   UNL     1      -1.270  -0.764   0.011  0.00  0.00    +0.162 A 
ATOM      2  N   UNL     1      -1.231  -2.089   0.009  0.00  0.00    -0.232 NA
ATOM      3  C   UNL     1      -2.347  -2.804   0.016  0.00  0.00    +0.050 A 
ATOM      4  C   UNL     1      -3.564  -2.152   0.026  0.00  0.00    +0.013 A 
ATOM      5  C   UNL     1      -3.575  -0.755   0.028  0.00  0.00    +0.123 A 
ATOM      6  N   UNL     1      -2.419  -0.101   0.025  0.00  0.00    -0.213 NA
ATOM      7  C   UNL     1      -4.689  -3.160   0.032  0.00  0.00    +0.041 C 
ATOM      8  C   UNL     1      -4.042  -4.490  -0.411  0.00  0.00    +0.011 C 
ATOM      9  C   UNL     1      -2.570  -4.300   0.016  0.00  0.00    +0.056 C 
ENDROOT
BRANCH   1  15
ATOM     10  C   UNL     1      -0.017   1.390   0.010  0.00  0.00    +0.015 A 
ATOM     11  C   UNL     1       1.168   2.094   0.002  0.00  0.00    +0.046 A 
ATOM     12  C   UNL     1       2.380   1.416  -0.013  0.00  0.00    +0.127 A 
ATOM     13  C   UNL     1       2.402   0.028  -0.021  0.00  0.00    +0.046 A 
ATOM     14  C   UNL     1       1.221  -0.682  -0.014  0.00  0.00    +0.015 A 
ATOM     15  C   UNL     1       0.002  -0.004   0.002  0.00  0.00    +0.019 A 
BRANCH  12  16
ATOM     16  O   UNL     1       3.546   2.113  -0.021  0.00  0.00    -0.434 OA
BRANCH  16  17
ATOM     17  C   UNL     1       4.756   1.352  -0.036  0.00  0.00    +0.541 C 
ATOM     18  F   UNL     1       4.811   0.540   1.101  0.00  0.00    -0.166 F 
ATOM     19  F   UNL     1       4.789   0.552  -1.183  0.00  0.00    -0.166 F 
ENDBRANCH  16  17
ENDBRANCH  12  16
ENDBRANCH   1  15
BRANCH   5  20
ATOM     20  N   UNL     1      -4.775  -0.061   0.037  0.00  0.00    -0.343 N 
ATOM     21  H   UNL     1      -5.615  -0.546   0.043  0.00  0.00    +0.144 HD
ATOM     22  H   UNL     1      -4.774   0.908   0.038  0.00  0.00    +0.144 HD
ENDBRANCH   5  20
TORSDOF 4
