REMARK  Name = ZINC20018561
REMARK  8 active torsions:
REMARK  status: ('A' for Active; 'I' for Inactive)
REMARK    1  A    between atoms: C_3  and  S_24
REMARK    2  A    between atoms: C_6  and  C_7
REMARK    3  A    between atoms: C_7  and  C_8
REMARK    4  A    between atoms: C_8  and  N_9
REMARK    5  A    between atoms: N_9  and  C_10
REMARK    6  A    between atoms: C_10  and  C_11
REMARK    7  A    between atoms: C_14  and  C_16
REMARK    8  A    between atoms: S_24  and  N_27
REMARK                            x       y       z     vdW  Elec       q    Type
REMARK                         _______ _______ _______ _____ _____    ______ ____
ROOT
ATOM      1  N   UNL     1       6.553   4.811   1.351  0.00  0.00    -0.309 NA
ATOM      2  H   UNL     1       6.073   3.962   1.860  0.00  0.00    +0.122 HD
ENDROOT
BRANCH   1   3
ATOM      3  C   UNL     1       8.012   4.636   1.376  0.00  0.00    +0.086 C 
BRANCH   3   4
ATOM      4  C   UNL     1       8.493   4.572   2.827  0.00  0.00    +0.050 C 
BRANCH   4  10
ATOM      5  C   UNL     1      10.532   3.122   2.866  0.00  0.00    +0.005 A 
ATOM      6  C   UNL     1      11.905   2.957   2.885  0.00  0.00    +0.029 A 
ATOM      7  C   UNL     1      12.734   4.063   2.900  0.00  0.00    +0.105 A 
ATOM      8  C   UNL     1      12.190   5.334   2.893  0.00  0.00    +0.029 A 
ATOM      9  C   UNL     1      10.818   5.499   2.869  0.00  0.00    +0.005 A 
ATOM     10  C   UNL     1       9.989   4.393   2.853  0.00  0.00    -0.046 A 
BRANCH   7  11
ATOM     11  S   UNL     1      14.483   3.853   2.929  0.00  0.00    +0.056 S 
ATOM     12  O   UNL     1      14.747   2.569   2.381  0.00  0.00    -0.153 OA
ATOM     13  O   UNL     1      15.043   5.042   2.389  0.00  0.00    -0.153 OA
BRANCH  11  14
ATOM     14  N   UNL     1      14.943   3.793   4.519  0.00  0.00    -0.204 NA
ATOM     15  H   UNL     1      16.033   3.662   4.580  0.00  0.00    +0.144 HD
ATOM     16  H   UNL     1      14.443   2.946   5.013  0.00  0.00    +0.144 HD
ENDBRANCH  11  14
ENDBRANCH   7  11
ENDBRANCH   4  10
ENDBRANCH   3   4
ENDBRANCH   1   3
BRANCH   1  17
ATOM     17  C   UNL     1       6.055   4.876  -0.029  0.00  0.00    +0.155 C 
BRANCH  17  18
ATOM     18  C   UNL     1       4.558   5.055  -0.015  0.00  0.00    +0.119 A 
ATOM     19  C   UNL     1       3.909   6.236  -0.003  0.00  0.00    +0.046 A 
ATOM     20  C   UNL     1       2.529   5.948   0.008  0.00  0.00    +0.050 A 
ATOM     21  C   UNL     1       2.412   4.593   0.003  0.00  0.00    +0.135 A 
ATOM     22  O   UNL     1       3.651   4.065  -0.006  0.00  0.00    -0.458 OA
BRANCH  21  23
ATOM     23  C   UNL     1       1.145   3.833   0.011  0.00  0.00    +0.020 A 
ATOM     24  C   UNL     1      -0.077   4.507   0.026  0.00  0.00    +0.031 A 
ATOM     25  C   UNL     1      -1.257   3.791   0.034  0.00  0.00    +0.043 A 
ATOM     26  C   UNL     1      -1.231   2.406   0.021  0.00  0.00    +0.040 A 
ATOM     27  C   UNL     1      -0.021   1.732   0.012  0.00  0.00    +0.043 A 
ATOM     28  C   UNL     1       1.166   2.437   0.004  0.00  0.00    +0.031 A 
ATOM     29 CL   UNL     1       0.002  -0.004   0.002  0.00  0.00    -0.083 Cl
ATOM     30 CL   UNL     1      -2.778   4.627   0.051  0.00  0.00    -0.083 Cl
ENDBRANCH  21  23
ENDBRANCH  17  18
ENDBRANCH   1  17
TORSDOF 8
