REMARK  Name = ZINC22975773
REMARK  14 active torsions:
REMARK  status: ('A' for Active; 'I' for Inactive)
REMARK    1  A    between atoms: C_1  and  C_2
REMARK    2  A    between atoms: C_3  and  C_34
REMARK    3  A    between atoms: C_4  and  C_31
REMARK    4  A    between atoms: C_5  and  S_9
REMARK    5  A    between atoms: C_7  and  C_8
REMARK    6  A    between atoms: S_9  and  C_10
REMARK    7  A    between atoms: C_10  and  C_11
REMARK    8  A    between atoms: C_11  and  O_13
REMARK    9  A    between atoms: O_13  and  C_14
REMARK   10  A    between atoms: C_14  and  C_15
REMARK   11  A    between atoms: C_15  and  C_17
REMARK   12  A    between atoms: C_17  and  C_29
REMARK   13  A    between atoms: N_19  and  C_28
REMARK   14  A    between atoms: N_26  and  C_27
REMARK                            x       y       z     vdW  Elec       q    Type
REMARK                         _______ _______ _______ _____ _____    ______ ____
ROOT
ATOM      1  C   UNL     1       3.810   2.224   3.928  0.00  0.00    +0.318 C 
ATOM      2  O   UNL     1       3.212   2.560   4.922  0.00  0.00    -0.250 OA
ENDROOT
BRANCH   1   3
ATOM      3  C   UNL     1       3.079   2.091   2.617  0.00  0.00    +0.196 C 
BRANCH   3   4
ATOM      4  S   UNL     1       1.331   2.498   2.857  0.00  0.00    -0.094 S 
BRANCH   4   9
ATOM      5  C   UNL     1      -0.595   1.692  -2.769  0.00  0.00    +0.046 C 
ATOM      6  C   UNL     1      -0.157   1.904  -1.343  0.00  0.00    -0.026 A 
ATOM      7  C   UNL     1      -1.075   2.291  -0.383  0.00  0.00    -0.031 A 
ATOM      8  C   UNL     1      -0.625   2.481   0.929  0.00  0.00    +0.071 A 
ATOM      9  C   UNL     1       0.735   2.267   1.216  0.00  0.00    +0.110 A 
ATOM     10  N   UNL     1       1.569   1.891   0.258  0.00  0.00    -0.245 NA
ATOM     11  C   UNL     1       1.164   1.707  -0.983  0.00  0.00    +0.043 A 
ATOM     12  C   UNL     1       2.160   1.280  -2.031  0.00  0.00    +0.066 C 
ATOM     13  C   UNL     1      -2.523   2.508  -0.741  0.00  0.00    +0.045 C 
BRANCH   8  14
ATOM     14  C   UNL     1      -1.559   2.899   1.989  0.00  0.00    +0.244 C 
ATOM     15  O   UNL     1      -1.740   4.081   2.210  0.00  0.00    -0.270 OA
ATOM     16  N   UNL     1      -2.213   1.971   2.715  0.00  0.00    -0.325 N 
ATOM     17  H   UNL     1      -2.911   2.283   3.507  0.00  0.00    +0.145 HD
ATOM     18  H   UNL     1      -2.050   0.901   2.516  0.00  0.00    +0.145 HD
ENDBRANCH   8  14
ENDBRANCH   4   9
ENDBRANCH   3   4
ENDBRANCH   1   3
BRANCH   1  19
ATOM     19  O   UNL     1       5.127   1.970   3.990  0.00  0.00    -0.456 OA
BRANCH  19  20
ATOM     20  C   UNL     1       5.766   2.118   5.285  0.00  0.00    +0.312 C 
BRANCH  20  21
ATOM     21  C   UNL     1       7.232   1.794   5.162  0.00  0.00    +0.214 C 
ATOM     22  O   UNL     1       7.695   1.468   4.086  0.00  0.00    -0.288 OA
BRANCH  21  23
ATOM     23  C   UNL     1       8.066   1.867   6.291  0.00  0.00    +0.134 C 
ATOM     24  C   UNL     1       8.585   0.690   6.859  0.00  0.00    +0.118 C 
ATOM     25  N   UNL     1       8.217  -0.574   6.525  0.00  0.00    -0.289 N 
ATOM     26  C   UNL     1       8.953  -1.462   7.300  0.00  0.00    +0.056 A 
ATOM     27  C   UNL     1       8.990  -2.848   7.377  0.00  0.00    +0.025 A 
ATOM     28  C   UNL     1       9.841  -3.464   8.272  0.00  0.00    +0.002 A 
ATOM     29  C   UNL     1      10.660  -2.707   9.093  0.00  0.00    +0.002 A 
ATOM     30  C   UNL     1      10.632  -1.328   9.024  0.00  0.00    +0.025 A 
ATOM     31  C   UNL     1       9.779  -0.698   8.128  0.00  0.00    +0.056 A 
ATOM     32  N   UNL     1       9.530   0.637   7.833  0.00  0.00    -0.289 N 
ATOM     33  C   UNL     1      10.176   1.790   8.466  0.00  0.00    +0.137 C 
ATOM     34  C   UNL     1       7.218  -0.938   5.517  0.00  0.00    +0.137 C 
BRANCH  23  35
ATOM     35  C   UNL     1       8.386   3.140   6.863  0.00  0.00    +0.106 C 
ATOM     36  N   UNL     1       8.640   4.150   7.317  0.00  0.00    -0.191 NA
ENDBRANCH  23  35
ENDBRANCH  21  23
ENDBRANCH  20  21
ENDBRANCH  19  20
ENDBRANCH   1  19
TORSDOF 9
