REMARK  Name = ZINC44164196
REMARK  6 active torsions:
REMARK  status: ('A' for Active; 'I' for Inactive)
REMARK    1  A    between atoms: C_6  and  C_7
REMARK    2  A    between atoms: C_7  and  C_8
REMARK    3  A    between atoms: C_8  and  N_9
REMARK    4  A    between atoms: C_10  and  C_12
REMARK    5  A    between atoms: C_17  and  C_20
REMARK    6  A    between atoms: C_23  and  N_26
REMARK                            x       y       z     vdW  Elec       q    Type
REMARK                         _______ _______ _______ _____ _____    ______ ____
ROOT
ATOM      1  C   UNL     1      -4.889  -2.887  -2.575  0.00  0.00    +0.027 C 
ATOM      2  C   UNL     1      -4.652  -4.276  -1.970  0.00  0.00    +0.062 C 
ATOM      3  S   UNL     1      -3.373  -5.115  -2.955  0.00  0.00    -0.163 S 
ATOM      4  C   UNL     1      -3.974  -4.896  -4.659  0.00  0.00    +0.058 C 
ATOM      5  C   UNL     1      -4.313  -3.415  -4.862  0.00  0.00    -0.030 C 
ATOM      6  N   UNL     1      -5.385  -3.022  -3.946  0.00  0.00    +0.392 N 
ATOM      7  H   UNL     1      -6.112  -3.721  -3.968  0.00  0.00    -0.084 HD
ATOM      8  H   UNL     1      -5.767  -2.138  -4.248  0.00  0.00    -0.084 HD
ENDROOT
BRANCH   5   9
ATOM      9  C   UNL     1      -4.764  -3.194  -6.283  0.00  0.00    -0.060 A 
ATOM     10  C   UNL     1      -6.061  -3.502  -6.651  0.00  0.00    +0.004 A 
ATOM     11  C   UNL     1      -6.477  -3.301  -7.952  0.00  0.00    +0.023 A 
ATOM     12  C   UNL     1      -5.591  -2.789  -8.892  0.00  0.00    +0.030 A 
ATOM     13  C   UNL     1      -4.289  -2.481  -8.519  0.00  0.00    +0.023 A 
ATOM     14  C   UNL     1      -3.881  -2.679  -7.214  0.00  0.00    +0.004 A 
BRANCH  12  15
ATOM     15  N   UNL     1      -6.009  -2.585 -10.209  0.00  0.00    -0.330 N 
ATOM     16  C   UNL     1      -7.354  -2.861 -10.734  0.00  0.00    +0.105 C 
ATOM     17  C   UNL     1      -7.341  -2.509 -12.236  0.00  0.00    +0.020 C 
ATOM     18  C   UNL     1      -5.835  -2.588 -12.599  0.00  0.00    +0.020 C 
ATOM     19  C   UNL     1      -5.176  -2.051 -11.302  0.00  0.00    +0.105 C 
ENDBRANCH  12  15
ENDBRANCH   5   9
BRANCH   1  21
ATOM     20  N   UNL     1      -3.402  -1.131  -3.484  0.00  0.00    -0.316 N 
ATOM     21  C   UNL     1      -3.595  -2.116  -2.584  0.00  0.00    +0.200 C 
ATOM     22  O   UNL     1      -2.725  -2.381  -1.780  0.00  0.00    -0.278 OA
ATOM     23  H   UNL     1      -4.098  -0.919  -4.126  0.00  0.00    +0.149 HD
BRANCH  20  24
ATOM     24  C   UNL     1      -2.144  -0.382  -3.492  0.00  0.00    +0.109 C 
BRANCH  24  25
ATOM     25  C   UNL     1      -2.184   0.669  -4.603  0.00  0.00    +0.054 C 
BRANCH  25  31
ATOM     26  C   UNL     1       0.172   1.001  -5.383  0.00  0.00    +0.005 A 
ATOM     27  C   UNL     1       1.359   1.708  -5.391  0.00  0.00    +0.020 A 
ATOM     28  C   UNL     1       1.487   2.855  -4.628  0.00  0.00    +0.041 A 
ATOM     29  C   UNL     1       0.425   3.294  -3.857  0.00  0.00    +0.020 A 
ATOM     30  C   UNL     1      -0.762   2.586  -3.849  0.00  0.00    +0.005 A 
ATOM     31  C   UNL     1      -0.889   1.440  -4.612  0.00  0.00    -0.046 A 
ATOM     32 CL   UNL     1       2.979   3.743  -4.638  0.00  0.00    -0.084 Cl
ENDBRANCH  25  31
ENDBRANCH  24  25
ENDBRANCH  20  24
ENDBRANCH   1  21
TORSDOF 6
