REMARK  Name = ZINC00862711
REMARK  2 active torsions:
REMARK  status: ('A' for Active; 'I' for Inactive)
REMARK    1  A    between atoms: C_7  and  N_11
REMARK    2  A    between atoms: C_8  and  C_9
REMARK                            x       y       z     vdW  Elec       q    Type
REMARK                         _______ _______ _______ _____ _____    ______ ____
ROOT
ATOM      1  C   UNL     1      -0.040   1.493  -0.002  0.00  0.00    +0.001 C 
ATOM      2  C   UNL     1       1.375   2.065  -0.058  0.00  0.00    +0.005 C 
ATOM      3  C   UNL     1       2.081   1.613  -1.333  0.00  0.00    +0.037 C 
ATOM      4  C   UNL     1       2.802   0.296  -1.083  0.00  0.00    -0.018 A 
ATOM      5  C   UNL     1       2.407  -0.590  -0.144  0.00  0.00    -0.004 A 
ATOM      6  S   UNL     1       3.555  -1.931  -0.279  0.00  0.00    -0.076 S 
ATOM      7  C   UNL     1       4.532  -1.349  -1.513  0.00  0.00    +0.099 A 
ATOM      8  C   UNL     1       3.977  -0.123  -1.832  0.00  0.00    +0.084 A 
ATOM      9  C   UNL     1       1.263  -0.459   0.812  0.00  0.00    +0.043 C 
ATOM     10  C   UNL     1       0.007  -0.031   0.042  0.00  0.00    +0.005 C 
ENDROOT
BRANCH   7  11
ATOM     11  N   UNL     1       5.646  -1.958  -2.084  0.00  0.00    -0.202 N 
ATOM     12  C   UNL     1       6.915  -1.747  -1.650  0.00  0.00    +0.231 C 
ATOM     13  O   UNL     1       7.251  -1.201  -0.621  0.00  0.00    -0.274 OA
ATOM     14  C   UNL     1       7.818  -2.325  -2.698  0.00  0.00    +0.092 C 
ATOM     15  C   UNL     1       9.115  -2.966  -2.252  0.00  0.00    +0.042 C 
ATOM     16  C   UNL     1       9.642  -3.758  -3.430  0.00  0.00    -0.011 C 
ATOM     17  C   UNL     1       8.922  -4.122  -4.450  0.00  0.00    +0.015 C 
ATOM     18  C   UNL     1       7.444  -3.832  -4.599  0.00  0.00    +0.060 C 
ATOM     19  C   UNL     1       6.912  -3.476  -3.235  0.00  0.00    +0.093 C 
ATOM     20  C   UNL     1       5.567  -2.827  -3.126  0.00  0.00    +0.231 C 
ATOM     21  O   UNL     1       4.601  -3.034  -3.829  0.00  0.00    -0.274 OA
ATOM     22 CL   UNL     1       9.709  -5.000  -5.725  0.00  0.00    -0.089 Cl
ENDBRANCH   7  11
BRANCH   8  23
ATOM     23  C   UNL     1       4.537   0.701  -2.860  0.00  0.00    +0.102 C 
ATOM     24  N   UNL     1       4.981   1.355  -3.676  0.00  0.00    -0.191 NA
ENDBRANCH   8  23
TORSDOF 2
