REMARK  Name = ZINC58756233
REMARK  9 active torsions:
REMARK  status: ('A' for Active; 'I' for Inactive)
REMARK    1  A    between atoms: C_1  and  C_2
REMARK    2  A    between atoms: C_2  and  O_3
REMARK    3  A    between atoms: O_3  and  C_4
REMARK    4  A    between atoms: C_4  and  C_5
REMARK    5  A    between atoms: C_10  and  C_11
REMARK    6  A    between atoms: C_11  and  N_12
REMARK    7  A    between atoms: N_15  and  C_16
REMARK    8  A    between atoms: C_16  and  C_18
REMARK    9  A    between atoms: C_16  and  C_19
REMARK                            x       y       z     vdW  Elec       q    Type
REMARK                         _______ _______ _______ _____ _____    ______ ____
ROOT
ATOM      1  N   UNL     1      -0.013  -5.520  -2.444  0.00  0.00    -0.295 N 
ATOM      2  C   UNL     1      -0.807  -6.228  -1.617  0.00  0.00    +0.300 C 
ATOM      3  O   UNL     1      -0.317  -6.895  -0.727  0.00  0.00    -0.253 OA
ATOM      4  N   UNL     1      -2.145  -6.195  -1.776  0.00  0.00    -0.293 N 
ATOM      5  H   UNL     1      -0.404  -4.987  -3.154  0.00  0.00    +0.151 HD
ATOM      6  H   UNL     1      -2.536  -5.662  -2.486  0.00  0.00    +0.151 HD
ENDROOT
BRANCH   4   7
ATOM      7  C   UNL     1      -3.009  -6.964  -0.877  0.00  0.00    +0.103 C 
ATOM      8  C   UNL     1      -3.333  -6.125   0.360  0.00  0.00    +0.033 C 
BRANCH   7   9
ATOM      9  C   UNL     1      -4.287  -7.321  -1.592  0.00  0.00    -0.009 A 
ATOM     10  C   UNL     1      -4.755  -6.516  -2.614  0.00  0.00    +0.008 A 
ATOM     11  C   UNL     1      -5.927  -6.842  -3.270  0.00  0.00    +0.020 A 
ATOM     12  C   UNL     1      -6.633  -7.974  -2.903  0.00  0.00    +0.042 A 
ATOM     13  C   UNL     1      -6.165  -8.780  -1.881  0.00  0.00    +0.040 A 
ATOM     14  C   UNL     1      -4.989  -8.456  -1.228  0.00  0.00    +0.047 A 
ATOM     15 CL   UNL     1      -4.399  -9.469   0.052  0.00  0.00    -0.083 Cl
ATOM     16 CL   UNL     1      -8.106  -8.383  -3.727  0.00  0.00    -0.083 Cl
ENDBRANCH   7   9
ENDBRANCH   4   7
BRANCH   1  17
ATOM     17  C   UNL     1       1.442  -5.555  -2.270  0.00  0.00    +0.141 C 
BRANCH  17  23
ATOM     18  C   UNL     1       2.141  -3.315  -3.142  0.00  0.00    -0.017 A 
ATOM     19  C   UNL     1       2.744  -2.518  -4.097  0.00  0.00    +0.006 A 
ATOM     20  C   UNL     1       3.294  -3.092  -5.228  0.00  0.00    +0.000 A 
ATOM     21  C   UNL     1       3.242  -4.462  -5.403  0.00  0.00    +0.000 A 
ATOM     22  C   UNL     1       2.640  -5.259  -4.448  0.00  0.00    +0.005 A 
ATOM     23  C   UNL     1       2.093  -4.686  -3.315  0.00  0.00    -0.025 A 
BRANCH  18  24
ATOM     24  C   UNL     1       1.540  -2.690  -1.909  0.00  0.00    +0.195 C 
BRANCH  24  25
ATOM     25  O   UNL     1       1.714  -1.273  -1.961  0.00  0.00    -0.375 OA
BRANCH  25  27
ATOM     26  C   UNL     1       1.418   0.922  -0.995  0.00  0.00    +0.034 C 
ATOM     27  C   UNL     1       1.177  -0.580  -0.833  0.00  0.00    +0.157 C 
ENDBRANCH  25  27
ENDBRANCH  24  25
ENDBRANCH  18  24
ENDBRANCH  17  23
ENDBRANCH   1  17
TORSDOF 7
