REMARK  Name = ZINC08867106
REMARK  7 active torsions:
REMARK  status: ('A' for Active; 'I' for Inactive)
REMARK    1  A    between atoms: C_1  and  C_2
REMARK    2  A    between atoms: C_5  and  S_8
REMARK    3  A    between atoms: S_8  and  N_11
REMARK    4  A    between atoms: N_13  and  C_22
REMARK    5  A    between atoms: C_22  and  C_23
REMARK    6  A    between atoms: C_23  and  O_25
REMARK    7  A    between atoms: O_25  and  C_26
REMARK                            x       y       z     vdW  Elec       q    Type
REMARK                         _______ _______ _______ _____ _____    ______ ____
ROOT
ATOM      1  N   UNL     1      -1.885   4.527   0.044  0.00  0.00    -0.103 NA
ATOM      2  C   UNL     1      -0.970   3.594   0.031  0.00  0.00    +0.195 A 
ATOM      3  N   UNL     1      -1.130   2.231   0.019  0.00  0.00    -0.305 N 
ATOM      4  C   UNL     1      -0.017   1.403   0.010  0.00  0.00    +0.094 A 
ATOM      5  C   UNL     1       0.002  -0.004   0.002  0.00  0.00    +0.148 A 
ATOM      6  C   UNL     1       1.193  -0.694  -0.013  0.00  0.00    +0.040 A 
ATOM      7  C   UNL     1       2.407  -0.029  -0.021  0.00  0.00    +0.004 A 
ATOM      8  C   UNL     1       2.417   1.355  -0.013  0.00  0.00    +0.017 A 
ATOM      9  C   UNL     1       1.228   2.045   0.001  0.00  0.00    +0.042 A 
ATOM     10  S   UNL     1       0.807   3.770   0.015  0.00  0.00    -0.048 S 
ATOM     11  F   UNL     1      -1.164  -0.686   0.009  0.00  0.00    -0.203 F 
ENDROOT
BRANCH   1  12
ATOM     12  S   UNL     1      -1.442   6.122   0.048  0.00  0.00    +0.101 S 
ATOM     13  O   UNL     1      -0.790   6.360   1.288  0.00  0.00    -0.146 OA
ATOM     14  O   UNL     1      -0.815   6.373  -1.202  0.00  0.00    -0.146 OA
BRANCH  12  19
ATOM     15  C   UNL     1      -6.518   9.384   0.115  0.00  0.00    +0.044 C 
ATOM     16  C   UNL     1      -5.250   8.570   0.098  0.00  0.00    -0.050 A 
ATOM     17  C   UNL     1      -4.657   8.190   1.288  0.00  0.00    +0.005 A 
ATOM     18  C   UNL     1      -3.494   7.442   1.272  0.00  0.00    +0.029 A 
ATOM     19  C   UNL     1      -2.924   7.075   0.068  0.00  0.00    +0.113 A 
ATOM     20  C   UNL     1      -3.515   7.459  -1.122  0.00  0.00    +0.029 A 
ATOM     21  C   UNL     1      -4.680   8.203  -1.107  0.00  0.00    +0.005 A 
ENDBRANCH  12  19
ENDBRANCH   1  12
BRANCH   3  22
ATOM     22  C   UNL     1      -2.476   1.651   0.022  0.00  0.00    +0.244 C 
BRANCH  22  23
ATOM     23  C   UNL     1      -2.931   1.444   1.444  0.00  0.00    +0.327 C 
ATOM     24  O   UNL     1      -2.205   1.750   2.361  0.00  0.00    -0.249 OA
BRANCH  23  25
ATOM     25  O   UNL     1      -4.141   0.920   1.692  0.00  0.00    -0.467 OA
ATOM     26  C   UNL     1      -4.513   0.750   3.085  0.00  0.00    +0.280 C 
ENDBRANCH  23  25
ENDBRANCH  22  23
ENDBRANCH   3  22
TORSDOF 5
