REMARK  Name = ZINC09934865
REMARK  6 active torsions:
REMARK  status: ('A' for Active; 'I' for Inactive)
REMARK    1  A    between atoms: C_4  and  C_7
REMARK    2  A    between atoms: C_7  and  N_46
REMARK    3  A    between atoms: C_13  and  N_17
REMARK    4  A    between atoms: C_14  and  C_15
REMARK    5  A    between atoms: C_18  and  C_19
REMARK    6  A    between atoms: C_24  and  O_25
REMARK                            x       y       z     vdW  Elec       q    Type
REMARK                         _______ _______ _______ _____ _____    ______ ____
ROOT
ATOM      1  C   UNL     1       3.134   3.496  -1.817  0.00  0.00    -0.073 C 
ATOM      2  C   UNL     1       3.858   4.451  -2.770  0.00  0.00    +0.019 C 
ATOM      3  C   UNL     1       3.215   4.328  -4.150  0.00  0.00    -0.021 A 
ATOM      4  C   UNL     1       2.451   3.243  -4.438  0.00  0.00    -0.020 A 
ATOM      5  S   UNL     1       1.915   3.504  -6.106  0.00  0.00    -0.075 S 
ATOM      6  C   UNL     1       2.729   5.069  -6.390  0.00  0.00    +0.119 A 
ATOM      7  C   UNL     1       3.367   5.287  -5.163  0.00  0.00    +0.088 A 
ATOM      8  C   UNL     1       2.148   2.095  -3.528  0.00  0.00    -0.035 C 
ATOM      9  N   UNL     1       3.112   2.140  -2.403  0.00  0.00    +0.386 N 
ATOM     10  H   UNL     1       4.050   1.914  -2.756  0.00  0.00    -0.081 HD
ENDROOT
BRANCH   7  11
ATOM     11  C   UNL     1       4.157   6.462  -4.947  0.00  0.00    +0.102 C 
ATOM     12  N   UNL     1       4.783   7.394  -4.775  0.00  0.00    -0.191 NA
ENDBRANCH   7  11
BRANCH   6  13
ATOM     13  N   UNL     1       2.729   5.840  -7.499  0.00  0.00    -0.246 NA
ATOM     14  C   UNL     1       1.596   6.185  -8.055  0.00  0.00    +0.123 C 
BRANCH  14  15
ATOM     15  C   UNL     1       0.327   5.894  -7.377  0.00  0.00    +0.037 A 
ATOM     16  C   UNL     1       0.292   5.729  -5.987  0.00  0.00    +0.028 A 
ATOM     17  C   UNL     1      -0.903   5.457  -5.357  0.00  0.00    +0.020 A 
ATOM     18  C   UNL     1      -2.072   5.344  -6.094  0.00  0.00    +0.039 A 
ATOM     19  C   UNL     1      -2.053   5.504  -7.467  0.00  0.00    +0.084 A 
ATOM     20  C   UNL     1      -0.861   5.784  -8.118  0.00  0.00    +0.144 A 
ATOM     21 CL   UNL     1      -3.524   5.359  -8.378  0.00  0.00    -0.080 Cl
ATOM     22 BR   UNL     1      -0.949   5.235  -3.480  0.00  0.00    -0.050 Br
BRANCH  20  23
ATOM     23  O   UNL     1      -0.841   5.947  -9.465  0.00  0.00    -0.505 OA
ATOM     24  H   UNL     1      -0.617   5.144  -9.955  0.00  0.00    +0.292 HD
ENDBRANCH  20  23
ENDBRANCH  14  15
ENDBRANCH   6  13
BRANCH   9  25
ATOM     25  C   UNL     1       2.735   1.149  -1.372  0.00  0.00    -0.043 C 
BRANCH  25  29
ATOM     26  C   UNL     1       1.952  -2.602  -3.260  0.00  0.00    +0.000 A 
ATOM     27  C   UNL     1       3.232  -2.294  -2.839  0.00  0.00    +0.000 A 
ATOM     28  C   UNL     1       3.486  -1.079  -2.230  0.00  0.00    +0.002 A 
ATOM     29  C   UNL     1       2.458  -0.175  -2.036  0.00  0.00    -0.064 A 
ATOM     30  C   UNL     1       1.177  -0.486  -2.451  0.00  0.00    +0.002 A 
ATOM     31  C   UNL     1       0.923  -1.700  -3.061  0.00  0.00    +0.000 A 
ENDBRANCH  25  29
ENDBRANCH   9  25
TORSDOF 6
