REMARK  Name = ZINC09960211
REMARK  11 active torsions:
REMARK  status: ('A' for Active; 'I' for Inactive)
REMARK    1  A    between atoms: C_1  and  C_2
REMARK    2  A    between atoms: C_2  and  C_3
REMARK    3  A    between atoms: C_3  and  C_5
REMARK    4  A    between atoms: C_3  and  N_6
REMARK    5  A    between atoms: C_7  and  C_9
REMARK    6  A    between atoms: C_9  and  N_10
REMARK    7  A    between atoms: C_20  and  O_22
REMARK    8  A    between atoms: O_22  and  C_23
REMARK    9  A    between atoms: C_23  and  C_24
REMARK   10  A    between atoms: N_27  and  C_30
REMARK   11  A    between atoms: C_30  and  C_31
REMARK                            x       y       z     vdW  Elec       q    Type
REMARK                         _______ _______ _______ _____ _____    ______ ____
ROOT
ATOM      1  N   UNL     1      -1.740   6.669  -1.876  0.00  0.00    -0.278 N 
ATOM      2  C   UNL     1      -2.329   7.754  -1.285  0.00  0.00    +0.098 A 
ATOM      3  C   UNL     1      -1.940   9.055  -1.603  0.00  0.00    +0.074 A 
ATOM      4  C   UNL     1      -2.643  10.124  -0.892  0.00  0.00    -0.020 A 
ATOM      5  C   UNL     1      -3.585   9.722  -0.015  0.00  0.00    +0.013 A 
ATOM      6  S   UNL     1      -3.562   7.954  -0.098  0.00  0.00    -0.073 S 
ATOM      7  C   UNL     1      -4.453  10.598   0.838  0.00  0.00    +0.153 C 
ATOM      8  N   UNL     1      -3.931  11.974   0.719  0.00  0.00    -0.262 N 
ATOM      9  C   UNL     1      -3.526  12.434  -0.618  0.00  0.00    +0.116 C 
ATOM     10  C   UNL     1      -2.341  11.601  -1.110  0.00  0.00    +0.056 C 
ATOM     11  C   UNL     1      -3.829  12.779   1.796  0.00  0.00    +0.403 C 
ATOM     12  O   UNL     1      -3.396  13.907   1.672  0.00  0.00    -0.226 OA
ATOM     13  C   UNL     1      -0.871   9.174  -2.620  0.00  0.00    +0.265 A 
ATOM     14  O   UNL     1      -0.470  10.270  -2.966  0.00  0.00    -0.267 OA
ATOM     15  N   UNL     1      -0.349   8.057  -3.157  0.00  0.00    -0.256 N 
ATOM     16  C   UNL     1      -0.770   6.834  -2.797  0.00  0.00    +0.334 A 
ATOM     17  O   UNL     1      -0.265   5.854  -3.311  0.00  0.00    -0.246 OA
ENDROOT
BRANCH   1  18
ATOM     18  C   UNL     1      -2.171   5.318  -1.509  0.00  0.00    +0.223 C 
BRANCH  18  20
ATOM     19  N   UNL     1      -1.559   3.593   0.154  0.00  0.00    -0.311 N 
ATOM     20  C   UNL     1      -1.339   4.821  -0.356  0.00  0.00    +0.233 C 
ATOM     21  O   UNL     1      -0.470   5.525   0.113  0.00  0.00    -0.274 OA
ATOM     22  H   UNL     1      -2.254   3.029  -0.221  0.00  0.00    +0.149 HD
BRANCH  19  23
ATOM     23  C   UNL     1      -0.750   3.109   1.275  0.00  0.00    +0.070 C 
ATOM     24  C   UNL     1      -1.354   3.604   2.591  0.00  0.00    +0.028 C 
BRANCH  23  26
ATOM     25  C   UNL     1      -0.013   1.086   0.008  0.00  0.00    +0.005 C 
ATOM     26  C   UNL     1      -0.729   1.579   1.267  0.00  0.00    +0.018 C 
ENDBRANCH  23  26
ENDBRANCH  19  23
ENDBRANCH  18  20
ENDBRANCH   1  18
BRANCH  11  27
ATOM     27  O   UNL     1      -4.207  12.332   3.008  0.00  0.00    -0.451 OA
BRANCH  27  28
ATOM     28  C   UNL     1      -4.069  13.252   4.122  0.00  0.00    +0.230 C 
ATOM     29  C   UNL     1      -4.544  12.572   5.408  0.00  0.00    +0.048 C 
ENDBRANCH  27  28
ENDBRANCH  11  27
BRANCH  15  30
ATOM     30  C   UNL     1       0.709   8.178  -4.163  0.00  0.00    +0.165 C 
BRANCH  30  31
ATOM     31  C   UNL     1       0.090   8.255  -5.535  0.00  0.00    -0.028 A 
ATOM     32  C   UNL     1      -0.137   7.098  -6.257  0.00  0.00    +0.005 A 
ATOM     33  C   UNL     1      -0.709   7.168  -7.513  0.00  0.00    +0.000 A 
ATOM     34  C   UNL     1      -1.044   8.395  -8.053  0.00  0.00    +0.000 A 
ATOM     35  C   UNL     1      -0.812   9.553  -7.334  0.00  0.00    +0.000 A 
ATOM     36  C   UNL     1      -0.245   9.483  -6.075  0.00  0.00    +0.005 A 
ENDBRANCH  30  31
ENDBRANCH  15  30
TORSDOF 8
