REMARK  Name = ZINC52066359
REMARK  11 active torsions:
REMARK  status: ('A' for Active; 'I' for Inactive)
REMARK    1  A    between atoms: C_1  and  C_2
REMARK    2  A    between atoms: C_2  and  C_4
REMARK    3  A    between atoms: C_2  and  N_22
REMARK    4  A    between atoms: C_9  and  O_10
REMARK    5  A    between atoms: O_10  and  C_11
REMARK    6  A    between atoms: C_11  and  C_13
REMARK    7  A    between atoms: C_11  and  C_14
REMARK    8  A    between atoms: N_16  and  C_17
REMARK    9  A    between atoms: C_17  and  C_18
REMARK   10  A    between atoms: C_18  and  C_19
REMARK   11  A    between atoms: C_18  and  C_20
REMARK                            x       y       z     vdW  Elec       q    Type
REMARK                         _______ _______ _______ _____ _____    ______ ____
ROOT
ATOM      1  C   UNL     1       0.781  -0.308   1.295  0.00  0.00    -0.019 A 
ATOM      2  C   UNL     1       2.159  -0.407   1.284  0.00  0.00    +0.020 A 
ATOM      3  C   UNL     1       2.845  -0.653   2.460  0.00  0.00    +0.018 A 
ATOM      4  C   UNL     1       2.153  -0.800   3.649  0.00  0.00    +0.019 A 
ATOM      5  C   UNL     1       0.775  -0.702   3.664  0.00  0.00    +0.047 A 
ATOM      6  C   UNL     1       0.086  -0.450   2.487  0.00  0.00    +0.123 A 
ATOM      7 BR   UNL     1       4.731  -0.789   2.442  0.00  0.00    -0.050 Br
ENDROOT
BRANCH   1   9
ATOM      8  C   UNL     1      -0.218   1.463  -0.125  0.00  0.00    -0.009 C 
ATOM      9  C   UNL     1       0.034  -0.040   0.014  0.00  0.00    -0.044 C 
BRANCH   9  10
ATOM     10  N   UNL     1       0.833  -0.509  -1.126  0.00  0.00    +0.383 N 
ATOM     11  H   UNL     1       1.716  -0.021  -1.142  0.00  0.00    -0.089 HD
ATOM     12  H   UNL     1       0.999  -1.500  -1.034  0.00  0.00    -0.089 HD
ATOM     13  H   UNL     1       0.333  -0.330  -1.984  0.00  0.00    -0.089 HD
ENDBRANCH   9  10
ENDBRANCH   1   9
BRANCH   6  14
ATOM     14  O   UNL     1      -1.270  -0.348   2.501  0.00  0.00    -0.480 OA
BRANCH  14  15
ATOM     15  C   UNL     1      -1.929  -0.628   3.737  0.00  0.00    +0.255 C 
ATOM     16  C   UNL     1      -1.942   0.632   4.605  0.00  0.00    +0.062 C 
BRANCH  15  17
ATOM     17  C   UNL     1      -3.345  -1.064   3.463  0.00  0.00    +0.254 C 
ATOM     18  O   UNL     1      -3.750  -1.129   2.322  0.00  0.00    -0.272 OA
ATOM     19  N   UNL     1      -4.162  -1.383   4.487  0.00  0.00    -0.312 N 
ATOM     20  H   UNL     1      -3.838  -1.331   5.400  0.00  0.00    +0.149 HD
BRANCH  19  21
ATOM     21  C   UNL     1      -5.539  -1.806   4.221  0.00  0.00    +0.107 C 
BRANCH  21  22
ATOM     22  C   UNL     1      -6.245  -2.107   5.545  0.00  0.00    -0.000 C 
ATOM     23  C   UNL     1      -6.369  -0.818   6.360  0.00  0.00    +0.009 C 
ATOM     24  C   UNL     1      -7.640  -2.668   5.263  0.00  0.00    +0.009 C 
ENDBRANCH  21  22
ENDBRANCH  19  21
ENDBRANCH  15  17
ENDBRANCH  14  15
ENDBRANCH   6  14
TORSDOF 7
