REMARK  Name = ZINC09433323
REMARK  15 active torsions:
REMARK  status: ('A' for Active; 'I' for Inactive)
REMARK    1  A    between atoms: C_1  and  C_2
REMARK    2  A    between atoms: C_2  and  C_3
REMARK    3  A    between atoms: C_2  and  C_4
REMARK    4  A    between atoms: C_4  and  N_5
REMARK    5  A    between atoms: C_6  and  C_34
REMARK    6  A    between atoms: C_8  and  C_18
REMARK    7  A    between atoms: N_20  and  C_21
REMARK    8  A    between atoms: C_21  and  C_22
REMARK    9  A    between atoms: C_22  and  C_23
REMARK   10  A    between atoms: C_23  and  N_76
REMARK   11  A    between atoms: C_24  and  C_25
REMARK   12  A    between atoms: C_24  and  N_76
REMARK   13  A    between atoms: C_31  and  C_32
REMARK   14  A    between atoms: C_31  and  C_33
REMARK   15  A    between atoms: C_31  and  N_76
REMARK                            x       y       z     vdW  Elec       q    Type
REMARK                         _______ _______ _______ _____ _____    ______ ____
ROOT
ATOM      1  N   UNL     1       4.602  -2.640  -8.564  0.00  0.00    -0.289 N 
ATOM      2  C   UNL     1       5.079  -3.972  -8.198  0.00  0.00    +0.129 C 
ATOM      3  C   UNL     1       5.344  -4.064  -6.697  0.00  0.00    +0.131 C 
ATOM      4  C   UNL     1       4.150  -3.563  -5.928  0.00  0.00    -0.021 A 
ATOM      5  C   UNL     1       3.814  -4.115  -4.711  0.00  0.00    +0.005 A 
ATOM      6  C   UNL     1       2.722  -3.634  -4.011  0.00  0.00    +0.000 A 
ATOM      7  C   UNL     1       1.962  -2.598  -4.524  0.00  0.00    +0.001 A 
ATOM      8  C   UNL     1       2.284  -2.040  -5.745  0.00  0.00    +0.013 A 
ATOM      9  C   UNL     1       3.378  -2.527  -6.457  0.00  0.00    +0.041 A 
ATOM     10  C   UNL     1       3.727  -1.977  -7.784  0.00  0.00    +0.247 C 
ATOM     11  O   UNL     1       3.229  -0.936  -8.168  0.00  0.00    -0.270 OA
ENDROOT
BRANCH   2  12
ATOM     12  C   UNL     1       4.038  -4.993  -8.580  0.00  0.00    +0.011 A 
ATOM     13  C   UNL     1       4.208  -6.222  -9.126  0.00  0.00    +0.013 A 
ATOM     14  C   UNL     1       3.095  -6.997  -9.393  0.00  0.00    +0.008 A 
ATOM     15  C   UNL     1       1.865  -6.501  -9.110  0.00  0.00    +0.045 A 
ATOM     16  S   UNL     1       2.261  -4.894  -8.439  0.00  0.00    -0.100 S 
ENDBRANCH   2  12
BRANCH   3  17
ATOM     17  C   UNL     1       5.611  -5.500  -6.324  0.00  0.00    +0.223 C 
ATOM     18  O   UNL     1       4.686  -6.257  -6.125  0.00  0.00    -0.275 OA
ATOM     19  N   UNL     1       6.880  -5.942  -6.213  0.00  0.00    -0.315 N 
ATOM     20  H   UNL     1       7.619  -5.320  -6.300  0.00  0.00    +0.149 HD
BRANCH  19  21
ATOM     21  C   UNL     1       7.141  -7.361  -5.959  0.00  0.00    +0.102 C 
BRANCH  21  22
ATOM     22  C   UNL     1       8.651  -7.594  -5.877  0.00  0.00    +0.000 C 
BRANCH  22  23
ATOM     23  C   UNL     1       8.924  -9.076  -5.611  0.00  0.00    -0.076 C 
BRANCH  23  24
ATOM     24  N   UNL     1      10.380  -9.315  -5.710  0.00  0.00    +0.384 N 
ATOM     25  H   UNL     1      10.741  -8.832  -6.541  0.00  0.00    -0.081 HD
BRANCH  24  26
ATOM     26  C   UNL     1      11.061  -8.785  -4.511  0.00  0.00    -0.074 C 
ATOM     27  C   UNL     1      11.417  -7.318  -4.762  0.00  0.00    -0.014 C 
ATOM     28  C   UNL     1      10.146  -8.886  -3.289  0.00  0.00    -0.014 C 
ENDBRANCH  24  26
BRANCH  24  29
ATOM     29  C   UNL     1      10.646 -10.763  -5.844  0.00  0.00    -0.043 C 
BRANCH  29  30
ATOM     30  C   UNL     1      12.087 -10.957  -6.237  0.00  0.00    -0.064 A 
ATOM     31  C   UNL     1      12.461 -10.858  -7.565  0.00  0.00    +0.002 A 
ATOM     32  C   UNL     1      13.784 -11.031  -7.925  0.00  0.00    +0.000 A 
ATOM     33  C   UNL     1      14.732 -11.314  -6.960  0.00  0.00    +0.000 A 
ATOM     34  C   UNL     1      14.358 -11.418  -5.633  0.00  0.00    +0.000 A 
ATOM     35  C   UNL     1      13.035 -11.240  -5.272  0.00  0.00    +0.002 A 
ENDBRANCH  29  30
ENDBRANCH  24  29
ENDBRANCH  23  24
ENDBRANCH  22  23
ENDBRANCH  21  22
ENDBRANCH  19  21
ENDBRANCH   3  17
BRANCH   1  36
ATOM     36  C   UNL     1       5.088  -2.015  -9.796  0.00  0.00    +0.111 C 
BRANCH  36  38
ATOM     37  C   UNL     1       7.027  -0.845 -10.852  0.00  0.00    +0.009 C 
ATOM     38  C   UNL     1       6.442  -1.354  -9.533  0.00  0.00    +0.000 C 
ATOM     39  C   UNL     1       6.257  -0.178  -8.570  0.00  0.00    +0.009 C 
ENDBRANCH  36  38
ENDBRANCH   1  36
TORSDOF 11
