REMARK  Name = ZINC35188573
REMARK  10 active torsions:
REMARK  status: ('A' for Active; 'I' for Inactive)
REMARK    1  A    between atoms: C_1  and  C_2
REMARK    2  A    between atoms: C_2  and  O_3
REMARK    3  A    between atoms: O_3  and  C_4
REMARK    4  A    between atoms: C_4  and  C_6
REMARK    5  A    between atoms: C_7  and  N_40
REMARK    6  A    between atoms: C_11  and  C_15
REMARK    7  A    between atoms: C_16  and  C_39
REMARK    8  A    between atoms: C_25  and  C_27
REMARK    9  A    between atoms: C_31  and  C_38
REMARK   10  A    between atoms: C_34  and  O_37
REMARK                            x       y       z     vdW  Elec       q    Type
REMARK                         _______ _______ _______ _____ _____    ______ ____
ROOT
ATOM      1  C   UNL     1       1.759  -3.264  -0.118  0.00  0.00    +0.119 A 
ATOM      2  C   UNL     1       2.047  -4.366  -0.904  0.00  0.00    +0.055 A 
ATOM      3  C   UNL     1       2.534  -4.136  -2.238  0.00  0.00    +0.031 A 
ATOM      4  C   UNL     1       2.899  -5.070  -3.229  0.00  0.00    -0.027 A 
ATOM      5  C   UNL     1       3.339  -4.584  -4.457  0.00  0.00    -0.018 A 
ATOM      6  C   UNL     1       3.443  -3.224  -4.728  0.00  0.00    +0.018 A 
ATOM      7  N   UNL     1       3.102  -2.344  -3.786  0.00  0.00    -0.352 N 
ATOM      8  C   UNL     1       2.673  -2.765  -2.616  0.00  0.00    +0.088 A 
ATOM      9  S   UNL     1       2.140  -1.883  -1.181  0.00  0.00    -0.062 S 
ATOM     10  C   UNL     1       3.935  -2.751  -6.071  0.00  0.00    +0.063 C 
ATOM     11  C   UNL     1       3.642  -5.753  -5.366  0.00  0.00    -0.002 C 
ATOM     12  C   UNL     1       2.502  -5.905  -6.357  0.00  0.00    +0.012 C 
ATOM     13  C   UNL     1       2.477  -7.290  -6.988  0.00  0.00    +0.005 C 
ATOM     14  C   UNL     1       2.285  -8.336  -5.885  0.00  0.00    +0.003 C 
ATOM     15  C   UNL     1       3.498  -8.303  -4.960  0.00  0.00    +0.001 C 
ATOM     16  C   UNL     1       3.809  -6.938  -4.424  0.00  0.00    +0.010 C 
ATOM     17  C   UNL     1       2.913  -6.566  -3.221  0.00  0.00    +0.021 C 
ATOM     18  C   UNL     1       1.499  -7.117  -3.414  0.00  0.00    +0.013 C 
ATOM     19  C   UNL     1       3.248  -9.280  -3.803  0.00  0.00    +0.031 C 
ATOM     20  C   UNL     1       2.896 -10.631  -4.352  0.00  0.00    -0.027 C 
ATOM     21  C   UNL     1       2.426 -10.820  -5.544  0.00  0.00    -0.065 C 
ATOM     22  C   UNL     1       2.147  -9.711  -6.528  0.00  0.00    -0.008 C 
ATOM     23  C   UNL     1       3.090  -9.857  -7.720  0.00  0.00    +0.014 C 
ATOM     24  C   UNL     1       3.466 -11.325  -7.915  0.00  0.00    +0.032 C 
ATOM     25  C   UNL     1       2.303 -12.244  -7.545  0.00  0.00    +0.119 C 
ATOM     26  C   UNL     1       2.127 -12.233  -6.020  0.00  0.00    +0.062 C 
ATOM     27  C   UNL     1       0.715  -9.859  -7.045  0.00  0.00    +0.016 C 
ATOM     28  C   UNL     1       4.952  -5.500  -6.116  0.00  0.00    +0.016 C 
ATOM     29  H   UNL     1       3.171  -1.393  -3.964  0.00  0.00    +0.166 HD
ENDROOT
BRANCH   2  30
ATOM     30  N   UNL     1       1.871  -5.654  -0.420  0.00  0.00    -0.356 N 
ATOM     31  H   UNL     1       1.542  -5.793   0.482  0.00  0.00    +0.142 HD
ATOM     32  H   UNL     1       2.078  -6.416  -0.983  0.00  0.00    +0.142 HD
ENDBRANCH   2  30
BRANCH   1  33
ATOM     33  C   UNL     1       1.272  -3.239   1.210  0.00  0.00    +0.348 C 
ATOM     34  O   UNL     1       1.062  -4.282   1.801  0.00  0.00    -0.244 OA
BRANCH  33  35
ATOM     35  O   UNL     1       1.042  -2.058   1.822  0.00  0.00    -0.461 OA
BRANCH  35  37
ATOM     36  C   UNL     1       0.352  -0.683   3.686  0.00  0.00    +0.048 C 
ATOM     37  C   UNL     1       0.551  -2.108   3.163  0.00  0.00    +0.229 C 
ENDBRANCH  35  37
ENDBRANCH  33  35
ENDBRANCH   1  33
BRANCH  25  38
ATOM     38  O   UNL     1       1.111 -11.784  -8.186  0.00  0.00    -0.391 OA
ATOM     39  H   UNL     1       0.328 -12.315  -7.986  0.00  0.00    +0.210 HD
ENDBRANCH  25  38
TORSDOF 5
