REMARK  Name = ZINC67172421
REMARK  6 active torsions:
REMARK  status: ('A' for Active; 'I' for Inactive)
REMARK    1  A    between atoms: C_4  and  O_30
REMARK    2  A    between atoms: C_5  and  C_7
REMARK    3  A    between atoms: C_18  and  C_20
REMARK    4  A    between atoms: C_25  and  O_26
REMARK    5  A    between atoms: O_26  and  C_27
REMARK    6  A    between atoms: O_30  and  C_31
REMARK                            x       y       z     vdW  Elec       q    Type
REMARK                         _______ _______ _______ _____ _____    ______ ____
ROOT
ATOM      1  C   UNL     1       1.251  -2.156  -0.022  0.00  0.00    +0.017 C 
ATOM      2  C   UNL     1       0.104  -2.851   0.087  0.00  0.00    -0.025 C 
ATOM      3  C   UNL     1      -1.234  -2.145   0.100  0.00  0.00    +0.037 C 
ATOM      4  C   UNL     1      -2.093  -2.840   1.166  0.00  0.00    +0.009 C 
ATOM      5  C   UNL     1      -2.302  -4.294   0.758  0.00  0.00    +0.035 C 
ATOM      6  C   UNL     1      -0.989  -4.997   0.512  0.00  0.00    -0.024 C 
ATOM      7  C   UNL     1       0.118  -4.323   0.191  0.00  0.00    +0.037 C 
ATOM      8  N   UNL     1       1.325  -4.988  -0.052  0.00  0.00    -0.297 N 
ATOM      9  C   UNL     1       1.405  -6.324   0.031  0.00  0.00    +0.135 C 
ATOM     10  S   UNL     1       2.902  -7.096  -0.277  0.00  0.00    -0.019 S 
ATOM     11  N   UNL     1       0.338  -7.066   0.350  0.00  0.00    -0.316 N 
ATOM     12  C   UNL     1      -0.971  -6.500   0.635  0.00  0.00    +0.134 C 
ATOM     13  H   UNL     1       2.115  -4.475  -0.284  0.00  0.00    +0.154 HD
ATOM     14  H   UNL     1       0.444  -8.029   0.400  0.00  0.00    +0.149 HD
ENDROOT
BRANCH   1  19
ATOM     15  C   UNL     1       0.198   1.180  -1.376  0.00  0.00    +0.001 A 
ATOM     16  C   UNL     1       1.138   2.017  -0.798  0.00  0.00    +0.004 A 
ATOM     17  C   UNL     1       2.116   1.502   0.031  0.00  0.00    +0.046 A 
ATOM     18  C   UNL     1       2.162   0.142   0.291  0.00  0.00    +0.134 A 
ATOM     19  C   UNL     1       1.212  -0.709  -0.291  0.00  0.00    +0.017 A 
ATOM     20  C   UNL     1       0.228  -0.176  -1.128  0.00  0.00    +0.011 A 
BRANCH  18  21
ATOM     21  O   UNL     1       3.123  -0.364   1.106  0.00  0.00    -0.434 OA
BRANCH  21  22
ATOM     22  C   UNL     1       4.057   0.564   1.663  0.00  0.00    +0.541 C 
ATOM     23  F   UNL     1       4.743   1.211   0.630  0.00  0.00    -0.166 F 
ATOM     24  F   UNL     1       3.372   1.510   2.433  0.00  0.00    -0.166 F 
ENDBRANCH  21  22
ENDBRANCH  18  21
ENDBRANCH   1  19
BRANCH  12  25
ATOM     25  C   UNL     1      -1.961  -7.080  -0.341  0.00  0.00    +0.019 A 
ATOM     26  C   UNL     1      -1.524  -7.600  -1.544  0.00  0.00    +0.009 A 
ATOM     27  C   UNL     1      -2.432  -8.133  -2.440  0.00  0.00    +0.001 A 
ATOM     28  C   UNL     1      -3.781  -8.147  -2.135  0.00  0.00    +0.004 A 
ATOM     29  C   UNL     1      -4.223  -7.629  -0.933  0.00  0.00    +0.046 A 
ATOM     30  C   UNL     1      -3.313  -7.099  -0.030  0.00  0.00    +0.132 A 
BRANCH  30  31
ATOM     31  O   UNL     1      -3.746  -6.593   1.155  0.00  0.00    -0.434 OA
BRANCH  31  32
ATOM     32  C   UNL     1      -5.151  -6.645   1.408  0.00  0.00    +0.541 C 
ATOM     33  F   UNL     1      -5.830  -5.922   0.421  0.00  0.00    -0.166 F 
ATOM     34  F   UNL     1      -5.580  -7.977   1.388  0.00  0.00    -0.166 F 
ENDBRANCH  31  32
ENDBRANCH  30  31
ENDBRANCH  12  25
TORSDOF 6
