REMARK  Name = ZINC39049634
REMARK  6 active torsions:
REMARK  status: ('A' for Active; 'I' for Inactive)
REMARK    1  A    between atoms: C_2  and  C_3
REMARK    2  A    between atoms: C_3  and  C_4
REMARK    3  A    between atoms: C_4  and  C_5
REMARK    4  A    between atoms: C_5  and  C_7
REMARK    5  A    between atoms: C_5  and  O_12
REMARK    6  A    between atoms: C_8  and  C_9
REMARK                            x       y       z     vdW  Elec       q    Type
REMARK                         _______ _______ _______ _____ _____    ______ ____
ROOT
ATOM      1  C   UNL     1       1.397   3.527   0.008  0.00  0.00    +0.189 C 
ENDROOT
BRANCH   1   2
ATOM      2  C   UNL     1       2.774   4.036   0.118  0.00  0.00    -0.071 C 
ATOM      3  C   UNL     1       3.872   4.442   0.206  0.00  0.00    -0.096 C 
BRANCH   3   4
ATOM      4  C   UNL     1       5.248   4.950   0.317  0.00  0.00    +0.064 C 
ATOM      5  C   UNL     1       5.641   5.651   1.620  0.00  0.00    +0.017 C 
ATOM      6  C   UNL     1       5.441   6.468   0.342  0.00  0.00    +0.017 C 
ENDBRANCH   3   4
ENDBRANCH   1   2
BRANCH   1   7
ATOM      7  O   UNL     1       0.809   4.002  -1.205  0.00  0.00    -0.379 OA
ATOM      8  H   UNL     1       1.280   3.728  -2.004  0.00  0.00    +0.211 HD
ENDBRANCH   1   7
BRANCH   1   9
ATOM      9  C   UNL     1       1.417   1.997  -0.001  0.00  0.00    +0.057 C 
BRANCH   9  10
ATOM     10  C   UNL     1      -0.018   1.468   0.010  0.00  0.00    +0.092 C 
BRANCH  10  12
ATOM     11  C   UNL     1       0.018  -1.178  -0.004  0.00  0.00    +0.004 C 
ATOM     12  C   UNL     1       0.002  -0.004   0.002  0.00  0.00    -0.105 C 
ENDBRANCH  10  12
ENDBRANCH   9  10
ENDBRANCH   1   9
TORSDOF 6
