REMARK  Name = ZINC13525866
REMARK  6 active torsions:
REMARK  status: ('A' for Active; 'I' for Inactive)
REMARK    1  A    between atoms: C_7  and  C_24
REMARK    2  A    between atoms: C_12  and  C_13
REMARK    3  A    between atoms: C_24  and  O_26
REMARK    4  A    between atoms: O_26  and  C_27
REMARK    5  A    between atoms: C_27  and  C_28
REMARK    6  A    between atoms: N_30  and  C_31
REMARK                            x       y       z     vdW  Elec       q    Type
REMARK                         _______ _______ _______ _____ _____    ______ ____
ROOT
ATOM      1  C   UNL     1      -8.585  -0.456   6.702  0.00  0.00    +0.001 A 
ATOM      2  C   UNL     1      -8.810  -1.095   7.919  0.00  0.00    +0.002 A 
ATOM      3  C   UNL     1      -7.933  -0.968   8.952  0.00  0.00    +0.028 A 
ATOM      4  C   UNL     1      -6.777  -0.179   8.795  0.00  0.00    +0.072 A 
ATOM      5  C   UNL     1      -6.556   0.469   7.553  0.00  0.00    +0.015 A 
ATOM      6  C   UNL     1      -7.477   0.317   6.513  0.00  0.00    +0.011 A 
ATOM      7  C   UNL     1      -5.353   1.287   7.399  0.00  0.00    +0.073 A 
ATOM      8  C   UNL     1      -4.493   1.375   8.485  0.00  0.00    -0.007 A 
ATOM      9  C   UNL     1      -4.801   0.701   9.679  0.00  0.00    +0.072 A 
ATOM     10  N   UNL     1      -5.903  -0.035   9.787  0.00  0.00    -0.247 NA
ATOM     11  C   UNL     1      -3.751   0.947  10.686  0.00  0.00    -0.021 C 
ATOM     12  C   UNL     1      -3.726   0.451  11.935  0.00  0.00    +0.013 C 
ATOM     13  C   UNL     1      -2.710   1.851  10.074  0.00  0.00    +0.042 C 
ATOM     14  C   UNL     1      -3.197   2.130   8.646  0.00  0.00    +0.043 C 
ENDROOT
BRANCH  12  15
ATOM     15  C   UNL     1      -2.549   0.669  12.791  0.00  0.00    -0.021 A 
ATOM     16  C   UNL     1      -2.447   0.018  14.024  0.00  0.00    +0.012 A 
ATOM     17  C   UNL     1      -1.341   0.221  14.821  0.00  0.00    +0.050 A 
ATOM     18  C   UNL     1      -0.330   1.078  14.409  0.00  0.00    +0.166 A 
ATOM     19  C   UNL     1      -0.427   1.736  13.183  0.00  0.00    +0.167 A 
ATOM     20  C   UNL     1      -1.531   1.534  12.376  0.00  0.00    +0.057 A 
ATOM     21  O   UNL     1       0.683   2.512  13.016  0.00  0.00    -0.453 OA
ATOM     22  C   UNL     1       1.649   2.009  13.958  0.00  0.00    +0.466 C 
ATOM     23  O   UNL     1       0.841   1.444  15.007  0.00  0.00    -0.453 OA
ENDBRANCH  12  15
BRANCH   7  24
ATOM     24  C   UNL     1      -5.060   1.988   6.132  0.00  0.00    +0.341 C 
ATOM     25  O   UNL     1      -5.468   3.119   5.955  0.00  0.00    -0.245 OA
BRANCH  24  26
ATOM     26  O   UNL     1      -4.341   1.375   5.172  0.00  0.00    -0.452 OA
BRANCH  26  27
ATOM     27  C   UNL     1      -4.092   2.124   3.954  0.00  0.00    +0.328 C 
BRANCH  27  28
ATOM     28  C   UNL     1      -3.278   1.283   3.004  0.00  0.00    +0.251 C 
ATOM     29  O   UNL     1      -2.941   0.162   3.323  0.00  0.00    -0.272 OA
ATOM     30  N   UNL     1      -2.925   1.776   1.800  0.00  0.00    -0.308 N 
ATOM     31  H   UNL     1      -3.195   2.672   1.546  0.00  0.00    +0.149 HD
BRANCH  30  32
ATOM     32  C   UNL     1      -2.134   0.958   0.877  0.00  0.00    +0.095 C 
ATOM     33  C   UNL     1      -0.641   1.100   1.222  0.00  0.00    +0.046 C 
ATOM     34  C   UNL     1       0.184   0.489   0.054  0.00  0.00    +0.168 C 
ATOM     35  S   UNL     1      -0.776   1.100  -1.395  0.00  0.00    -0.029 S 
ATOM     36  O   UNL     1      -0.218   2.332  -1.832  0.00  0.00    -0.174 OA
ATOM     37  O   UNL     1      -0.938   0.037  -2.323  0.00  0.00    -0.174 OA
ATOM     38  C   UNL     1      -2.388   1.431  -0.574  0.00  0.00    +0.188 C 
ENDBRANCH  30  32
ENDBRANCH  27  28
ENDBRANCH  26  27
ENDBRANCH  24  26
ENDBRANCH   7  24
TORSDOF 6
