REMARK  Name = ZINC21315726
REMARK  9 active torsions:
REMARK  status: ('A' for Active; 'I' for Inactive)
REMARK    1  A    between atoms: C_1  and  C_2
REMARK    2  A    between atoms: C_5  and  C_8
REMARK    3  A    between atoms: C_8  and  C_10
REMARK    4  A    between atoms: C_10  and  S_11
REMARK    5  A    between atoms: S_11  and  C_12
REMARK    6  A    between atoms: N_16  and  N_17
REMARK    7  A    between atoms: N_18  and  N_19
REMARK    8  A    between atoms: C_20  and  C_21
REMARK    9  A    between atoms: C_24  and  O_27
REMARK                            x       y       z     vdW  Elec       q    Type
REMARK                         _______ _______ _______ _____ _____    ______ ____
ROOT
ATOM      1  C   UNL     1      -0.257   1.797  -2.281  0.00  0.00    +0.210 A 
ATOM      2  N   UNL     1      -1.258   2.230  -3.010  0.00  0.00    -0.119 NA
ATOM      3  N   UNL     1      -2.412   2.209  -2.217  0.00  0.00    -0.109 NA
ATOM      4  C   UNL     1      -2.081   1.760  -1.031  0.00  0.00    +0.254 A 
ATOM      5  N   UNL     1      -0.741   1.490  -1.041  0.00  0.00    -0.211 N 
ATOM      6  N   UNL     1      -2.939   1.589   0.045  0.00  0.00    -0.204 N 
ATOM      7  H   UNL     1      -2.554   1.203   1.000  0.00  0.00    +0.177 HD
ENDROOT
BRANCH   5   8
ATOM      8  N   UNL     1      -0.012   1.005   0.008  0.00  0.00    -0.294 N 
ATOM      9  H   UNL     1      -0.504   0.791   0.968  0.00  0.00    +0.163 HD
ATOM     10  H   UNL     1       1.068   0.828  -0.108  0.00  0.00    +0.163 HD
ENDBRANCH   5   8
BRANCH   6  11
ATOM     11  N   UNL     1      -4.298   1.907  -0.085  0.00  0.00    -0.188 NA
ATOM     12  C   UNL     1      -5.101   1.747   0.923  0.00  0.00    +0.138 C 
BRANCH  12  13
ATOM     13  C   UNL     1      -6.530   2.082   0.786  0.00  0.00    -0.005 A 
ATOM     14  C   UNL     1      -7.021   2.577  -0.424  0.00  0.00    +0.013 A 
ATOM     15  C   UNL     1      -8.359   2.885  -0.548  0.00  0.00    +0.046 A 
ATOM     16  C   UNL     1      -9.217   2.712   0.530  0.00  0.00    +0.117 A 
ATOM     17  C   UNL     1      -8.732   2.225   1.737  0.00  0.00    +0.046 A 
ATOM     18  C   UNL     1      -7.397   1.910   1.869  0.00  0.00    +0.013 A 
BRANCH  16  19
ATOM     19  O   UNL     1     -10.534   3.021   0.404  0.00  0.00    -0.507 OA
ATOM     20  H   UNL     1     -11.214   2.885   1.258  0.00  0.00    +0.292 HD
ENDBRANCH  16  19
ENDBRANCH  12  13
ENDBRANCH   6  11
BRANCH   1  21
ATOM     21  S   UNL     1       1.416   1.636  -2.809  0.00  0.00    -0.076 S 
BRANCH  21  22
ATOM     22  C   UNL     1       1.388   2.201  -4.533  0.00  0.00    +0.157 C 
BRANCH  22  23
ATOM     23  C   UNL     1       2.777   2.114  -5.112  0.00  0.00    +0.173 C 
ATOM     24  O   UNL     1       3.694   1.710  -4.430  0.00  0.00    -0.291 OA
BRANCH  23  29
ATOM     25  C   UNL     1       3.723   3.694 -10.558  0.00  0.00    +0.044 C 
ATOM     26  C   UNL     1       3.475   3.280  -9.131  0.00  0.00    -0.050 A 
ATOM     27  C   UNL     1       4.525   2.820  -8.355  0.00  0.00    +0.004 A 
ATOM     28  C   UNL     1       4.306   2.438  -7.048  0.00  0.00    +0.011 A 
ATOM     29  C   UNL     1       3.019   2.518  -6.507  0.00  0.00    +0.018 A 
ATOM     30  C   UNL     1       1.962   2.979  -7.298  0.00  0.00    +0.011 A 
ATOM     31  C   UNL     1       2.198   3.361  -8.602  0.00  0.00    +0.004 A 
ENDBRANCH  23  29
ENDBRANCH  22  23
ENDBRANCH  21  22
ENDBRANCH   1  21
TORSDOF 8
