REMARK  Name = ZINC14986714
REMARK  9 active torsions:
REMARK  status: ('A' for Active; 'I' for Inactive)
REMARK    1  A    between atoms: C_1  and  C_2
REMARK    2  A    between atoms: C_2  and  C_4
REMARK    3  A    between atoms: C_2  and  N_9
REMARK    4  A    between atoms: C_10  and  C_12
REMARK    5  A    between atoms: N_14  and  C_34
REMARK    6  A    between atoms: C_16  and  C_19
REMARK    7  A    between atoms: N_24  and  C_28
REMARK    8  A    between atoms: C_34  and  C_35
REMARK    9  A    between atoms: C_34  and  C_36
REMARK                            x       y       z     vdW  Elec       q    Type
REMARK                         _______ _______ _______ _____ _____    ______ ____
ROOT
ATOM      1  C   UNL     1       0.761  -1.219   3.494  0.00  0.00    +0.100 A 
ATOM      2  C   UNL     1       0.055  -1.524   4.636  0.00  0.00    +0.102 A 
ATOM      3  N   UNL     1       0.649  -2.097   5.696  0.00  0.00    -0.349 N 
ATOM      4  C   UNL     1       1.954  -2.415   5.728  0.00  0.00    +0.102 A 
ATOM      5  C   UNL     1       2.780  -2.167   4.654  0.00  0.00    +0.100 A 
ATOM      6  C   UNL     1       2.197  -1.545   3.453  0.00  0.00    +0.206 A 
ATOM      7  O   UNL     1       2.875  -1.304   2.468  0.00  0.00    -0.286 OA
ENDROOT
BRANCH   5   8
ATOM      8  C   UNL     1       4.209  -2.519   4.703  0.00  0.00    +0.252 C 
ATOM      9  O   UNL     1       4.625  -3.463   4.058  0.00  0.00    -0.270 OA
ATOM     10  N   UNL     1       5.056  -1.797   5.463  0.00  0.00    -0.287 N 
ATOM     11  C   UNL     1       6.465  -2.192   5.628  0.00  0.00    +0.128 C 
ATOM     12  C   UNL     1       7.344  -1.069   5.072  0.00  0.00    +0.132 C 
ATOM     13  N   UNL     1       6.892   0.228   5.557  0.00  0.00    -0.269 N 
ATOM     14  C   UNL     1       5.663   0.481   6.010  0.00  0.00    +0.237 C 
ATOM     15  O   UNL     1       5.382   1.622   6.312  0.00  0.00    -0.274 OA
ATOM     16  C   UNL     1       4.612  -0.579   6.156  0.00  0.00    +0.204 C 
BRANCH  13  17
ATOM     17  C   UNL     1       7.812   1.282   5.548  0.00  0.00    +0.036 A 
ATOM     18  C   UNL     1       8.255   1.829   6.745  0.00  0.00    +0.023 A 
ATOM     19  C   UNL     1       9.164   2.869   6.733  0.00  0.00    +0.002 A 
ATOM     20  C   UNL     1       9.632   3.367   5.530  0.00  0.00    +0.000 A 
ATOM     21  C   UNL     1       9.192   2.824   4.336  0.00  0.00    +0.002 A 
ATOM     22  C   UNL     1       8.289   1.779   4.342  0.00  0.00    +0.023 A 
ENDBRANCH  13  17
ENDBRANCH   5   8
BRANCH   1  24
ATOM     23  N   UNL     1       0.773  -0.409   1.188  0.00  0.00    -0.302 N 
ATOM     24  C   UNL     1       0.097  -0.590   2.340  0.00  0.00    +0.250 C 
ATOM     25  O   UNL     1      -1.063  -0.234   2.426  0.00  0.00    -0.270 OA
ATOM     26  H   UNL     1       1.718  -0.624   1.142  0.00  0.00    +0.150 HD
BRANCH  23  28
ATOM     27  C   UNL     1       0.059   1.641   0.062  0.00  0.00    +0.036 C 
ATOM     28  C   UNL     1       0.082   0.112   0.006  0.00  0.00    +0.136 C 
BRANCH  28  29
ATOM     29  C   UNL     1       0.807  -0.335  -1.237  0.00  0.00    +0.125 A 
ATOM     30  C   UNL     1       0.229  -0.738  -2.383  0.00  0.00    +0.046 A 
ATOM     31  C   UNL     1       1.274  -1.063  -3.277  0.00  0.00    +0.041 A 
ATOM     32  C   UNL     1       2.429  -0.838  -2.625  0.00  0.00    +0.195 A 
ATOM     33  O   UNL     1       2.140  -0.392  -1.391  0.00  0.00    -0.466 OA
ENDBRANCH  28  29
ENDBRANCH  23  28
ENDBRANCH   1  24
BRANCH   3  34
ATOM     34  C   UNL     1      -0.167  -2.391   6.876  0.00  0.00    +0.081 C 
ATOM     35  C   UNL     1      -0.766  -1.091   7.418  0.00  0.00    +0.030 C 
ATOM     36  C   UNL     1      -1.295  -3.351   6.491  0.00  0.00    +0.030 C 
ENDBRANCH   3  34
TORSDOF 6
