REMARK  Name = ZINC30954106
REMARK  3 active torsions:
REMARK  status: ('A' for Active; 'I' for Inactive)
REMARK    1  A    between atoms: C_16  and  C_18
REMARK    2  A    between atoms: C_18  and  S_19
REMARK    3  A    between atoms: S_19  and  C_20
REMARK                            x       y       z     vdW  Elec       q    Type
REMARK                         _______ _______ _______ _____ _____    ______ ____
ROOT
ATOM      1  C   UNL     1      -1.891   7.392  -2.942  0.00  0.00    +0.000 A 
ATOM      2  C   UNL     1      -1.234   6.318  -3.515  0.00  0.00    +0.002 A 
ATOM      3  C   UNL     1      -1.974   5.274  -4.027  0.00  0.00    +0.024 A 
ATOM      4  C   UNL     1      -3.364   5.295  -3.968  0.00  0.00    +0.044 A 
ATOM      5  C   UNL     1      -4.023   6.346  -3.363  0.00  0.00    -0.025 A 
ATOM      6  C   UNL     1      -3.253   7.403  -2.870  0.00  0.00    +0.005 A 
ATOM      7  C   UNL     1      -5.513   6.497  -3.147  0.00  0.00    +0.042 C 
ATOM      8  C   UNL     1      -6.308   5.311  -3.662  0.00  0.00    +0.042 C 
ATOM      9  C   UNL     1      -6.139   5.136  -5.149  0.00  0.00    -0.025 A 
ATOM     10  C   UNL     1      -7.099   5.519  -6.058  0.00  0.00    +0.005 A 
ATOM     11  C   UNL     1      -6.895   5.239  -7.401  0.00  0.00    +0.000 A 
ATOM     12  C   UNL     1      -5.747   4.588  -7.815  0.00  0.00    +0.002 A 
ATOM     13  C   UNL     1      -4.778   4.221  -6.894  0.00  0.00    +0.024 A 
ATOM     14  C   UNL     1      -4.987   4.518  -5.559  0.00  0.00    +0.044 A 
ATOM     15  N   UNL     1      -4.053   4.222  -4.555  0.00  0.00    -0.239 N 
ATOM     16  C   UNL     1      -3.828   2.952  -4.164  0.00  0.00    +0.234 C 
ATOM     17  O   UNL     1      -4.439   2.041  -4.683  0.00  0.00    -0.274 OA
ENDROOT
BRANCH  16  18
ATOM     18  C   UNL     1      -2.818   2.664  -3.084  0.00  0.00    +0.173 C 
BRANCH  18  19
ATOM     19  S   UNL     1      -2.745   0.880  -2.786  0.00  0.00    -0.083 S 
BRANCH  19  20
ATOM     20  C   UNL     1      -1.525   0.831  -1.517  0.00  0.00    +0.129 C 
ATOM     21  N   UNL     1      -0.946   1.896  -1.051  0.00  0.00    -0.363 N 
ATOM     22  C   UNL     1      -0.018   1.508   0.010  0.00  0.00    +0.101 C 
ATOM     23  C   UNL     1       1.274   2.259   0.002  0.00  0.00    +0.026 C 
ATOM     24  C   UNL     1       2.380   1.546  -0.767  0.00  0.00    +0.002 C 
ATOM     25  C   UNL     1       2.522   0.136  -0.178  0.00  0.00    +0.002 C 
ATOM     26  C   UNL     1       1.267  -0.651  -0.527  0.00  0.00    +0.024 C 
ATOM     27  C   UNL     1       0.002  -0.004   0.002  0.00  0.00    +0.094 C 
ATOM     28  N   UNL     1      -1.102  -0.335  -0.934  0.00  0.00    -0.321 N 
ATOM     29  H   UNL     1      -1.431  -1.378  -1.049  0.00  0.00    +0.148 HD
ATOM     30  H   UNL     1      -1.194   2.884  -1.468  0.00  0.00    +0.162 HD
ENDBRANCH  19  20
ENDBRANCH  18  19
ENDBRANCH  16  18
TORSDOF 3
