REMARK  Name = ZINC20150568
REMARK  10 active torsions:
REMARK  status: ('A' for Active; 'I' for Inactive)
REMARK    1  A    between atoms: C_1  and  C_2
REMARK    2  A    between atoms: C_2  and  C_3
REMARK    3  A    between atoms: C_3  and  C_4
REMARK    4  A    between atoms: C_4  and  C_31
REMARK    5  A    between atoms: C_9  and  C_12
REMARK    6  A    between atoms: C_17  and  C_18
REMARK    7  A    between atoms: N_21  and  C_24
REMARK    8  A    between atoms: C_31  and  O_33
REMARK    9  A    between atoms: O_33  and  C_34
REMARK   10  A    between atoms: C_34  and  C_35
REMARK                            x       y       z     vdW  Elec       q    Type
REMARK                         _______ _______ _______ _____ _____    ______ ____
ROOT
ATOM      1  C   UNL     1      -3.158  -1.324   0.398  0.00  0.00    +0.129 C 
ATOM      2  C   UNL     1      -4.035  -0.390   1.213  0.00  0.00    +0.120 C 
ATOM      3  C   UNL     1      -3.011   0.795   1.393  0.00  0.00    +0.111 C 
ATOM      4  C   UNL     1      -2.514   0.980   0.019  0.00  0.00    +0.098 C 
ATOM      5  N   UNL     1      -2.293  -0.436  -0.437  0.00  0.00    -0.293 NA
ATOM      6  C   UNL     1      -3.613   1.532   2.484  0.00  0.00    +0.232 C 
ATOM      7  O   UNL     1      -3.589   2.732   2.655  0.00  0.00    -0.274 OA
ATOM      8  N   UNL     1      -4.223   0.588   3.272  0.00  0.00    -0.210 N 
ATOM      9  C   UNL     1      -4.305  -0.634   2.664  0.00  0.00    +0.232 C 
ATOM     10  O   UNL     1      -4.546  -1.698   3.193  0.00  0.00    -0.274 OA
ATOM     11  H   UNL     1      -1.239  -0.721  -0.303  0.00  0.00    +0.124 HD
ENDROOT
BRANCH   4  12
ATOM     12  C   UNL     1      -1.219   1.751   0.017  0.00  0.00    -0.027 A 
ATOM     13  C   UNL     1      -0.013   1.076   0.008  0.00  0.00    +0.005 A 
ATOM     14  C   UNL     1       1.175   1.783   0.000  0.00  0.00    +0.000 A 
ATOM     15  C   UNL     1       1.156   3.166   0.008  0.00  0.00    +0.000 A 
ATOM     16  C   UNL     1      -0.050   3.840   0.023  0.00  0.00    +0.003 A 
ATOM     17  C   UNL     1      -1.238   3.133   0.029  0.00  0.00    -0.046 A 
ATOM     18  C   UNL     1      -2.553   3.868   0.046  0.00  0.00    +0.044 C 
ENDBRANCH   4  12
BRANCH   8  19
ATOM     19  C   UNL     1      -4.711   0.849   4.561  0.00  0.00    +0.044 A 
ATOM     20  C   UNL     1      -5.321  -0.162   5.291  0.00  0.00    +0.027 A 
ATOM     21  C   UNL     1      -5.795   0.096   6.563  0.00  0.00    +0.040 A 
ATOM     22  C   UNL     1      -5.672   1.364   7.105  0.00  0.00    +0.124 A 
ATOM     23  C   UNL     1      -5.069   2.375   6.375  0.00  0.00    +0.040 A 
ATOM     24  C   UNL     1      -4.588   2.120   5.106  0.00  0.00    +0.027 A 
ATOM     25  F   UNL     1      -6.141   1.615   8.347  0.00  0.00    -0.205 F 
ENDBRANCH   8  19
BRANCH   1  26
ATOM     26  C   UNL     1      -2.309  -2.171   1.311  0.00  0.00    +0.328 C 
ATOM     27  O   UNL     1      -2.693  -2.428   2.427  0.00  0.00    -0.249 OA
BRANCH  26  28
ATOM     28  O   UNL     1      -1.125  -2.638   0.884  0.00  0.00    -0.464 OA
BRANCH  28  29
ATOM     29  C   UNL     1      -0.361  -3.447   1.817  0.00  0.00    +0.229 C 
ATOM     30  C   UNL     1       0.948  -3.886   1.157  0.00  0.00    +0.048 C 
ENDBRANCH  28  29
ENDBRANCH  26  28
ENDBRANCH   1  26
BRANCH   1  31
ATOM     31  C   UNL     1      -4.022  -2.214  -0.498  0.00  0.00    +0.034 C 
BRANCH  31  33
ATOM     32  C   UNL     1      -3.985  -3.995  -2.249  0.00  0.00    +0.004 C 
ATOM     33  C   UNL     1      -3.121  -3.105  -1.354  0.00  0.00    -0.001 C 
ENDBRANCH  31  33
ENDBRANCH   1  31
TORSDOF 7
