REMARK  Name = ZINC66599665
REMARK  5 active torsions:
REMARK  status: ('A' for Active; 'I' for Inactive)
REMARK    1  A    between atoms: C_1  and  C_2
REMARK    2  A    between atoms: C_9  and  C_11
REMARK    3  A    between atoms: N_19  and  C_20
REMARK    4  A    between atoms: C_20  and  C_21
REMARK    5  A    between atoms: C_21  and  C_26
REMARK                            x       y       z     vdW  Elec       q    Type
REMARK                         _______ _______ _______ _____ _____    ______ ____
ROOT
ATOM      1  C   UNL     1       0.474  -4.259   2.010  0.00  0.00    +0.078 C 
ATOM      2  C   UNL     1      -0.301  -4.660   0.753  0.00  0.00    +0.032 C 
ATOM      3  C   UNL     1      -0.238  -6.181   0.583  0.00  0.00    +0.110 C 
ATOM      4  N   UNL     1      -0.720  -6.816   1.817  0.00  0.00    -0.286 N 
ATOM      5  C   UNL     1      -0.104  -6.433   3.095  0.00  0.00    +0.110 C 
ATOM      6  C   UNL     1      -0.169  -4.909   3.237  0.00  0.00    +0.032 C 
ATOM      7  C   UNL     1      -1.709  -7.730   1.778  0.00  0.00    +0.302 C 
ATOM      8  O   UNL     1      -2.149  -8.105   0.709  0.00  0.00    -0.253 OA
ATOM      9  N   UNL     1      -2.212  -8.229   2.925  0.00  0.00    -0.299 N 
ATOM     10  H   UNL     1      -1.813  -7.986   3.776  0.00  0.00    +0.150 HD
ENDROOT
BRANCH   1  18
ATOM     11  C   UNL     1       4.072  -2.485  -0.998  0.00  0.00    +0.009 C 
ATOM     12  C   UNL     1       3.278  -1.978   0.208  0.00  0.00    +0.003 C 
ATOM     13  C   UNL     1       3.182  -0.451   0.151  0.00  0.00    +0.006 C 
ATOM     14  C   UNL     1       2.416   0.059   1.373  0.00  0.00    +0.019 C 
ATOM     15  C   UNL     1       0.996  -0.515   1.358  0.00  0.00    +0.108 C 
ATOM     16  N   UNL     1       1.079  -1.979   1.266  0.00  0.00    -0.301 N 
ATOM     17  C   UNL     1       1.867  -2.575   0.179  0.00  0.00    +0.111 C 
ATOM     18  C   UNL     1       0.444  -2.760   2.162  0.00  0.00    +0.219 C 
ATOM     19  O   UNL     1      -0.153  -2.257   3.090  0.00  0.00    -0.275 OA
ENDBRANCH   1  18
BRANCH   9  20
ATOM     20  C   UNL     1      -3.359  -9.139   2.888  0.00  0.00    +0.112 C 
BRANCH  20  21
ATOM     21  C   UNL     1      -3.727  -9.555   4.314  0.00  0.00    -0.016 C 
ATOM     22  C   UNL     1      -2.559 -10.333   4.955  0.00  0.00    +0.008 C 
ATOM     23  C   UNL     1      -3.253 -11.427   5.804  0.00  0.00    +0.001 C 
ATOM     24  C   UNL     1      -4.455 -11.837   4.917  0.00  0.00    +0.001 C 
ATOM     25  C   UNL     1      -4.932 -10.511   4.290  0.00  0.00    +0.008 C 
ATOM     26  C   UNL     1      -4.056  -8.318   5.152  0.00  0.00    +0.013 C 
ENDBRANCH  20  21
ENDBRANCH   9  20
TORSDOF 3
