REMARK  Name = ZINC39533577
REMARK  11 active torsions:
REMARK  status: ('A' for Active; 'I' for Inactive)
REMARK    1  A    between atoms: C_1  and  C_2
REMARK    2  A    between atoms: C_2  and  C_3
REMARK    3  A    between atoms: C_2  and  C_4
REMARK    4  A    between atoms: C_4  and  C_5
REMARK    5  A    between atoms: C_8  and  C_11
REMARK    6  A    between atoms: C_11  and  C_13
REMARK    7  A    between atoms: C_11  and  N_16
REMARK    8  A    between atoms: C_13  and  N_14
REMARK    9  A    between atoms: C_20  and  S_23
REMARK   10  A    between atoms: S_23  and  O_26
REMARK   11  A    between atoms: O_26  and  C_27
REMARK                            x       y       z     vdW  Elec       q    Type
REMARK                         _______ _______ _______ _____ _____    ______ ____
ROOT
ATOM      1  N   UNL     1      -0.453  -6.766   0.553  0.00  0.00    -0.296 NA
ATOM      2  C   UNL     1       0.264  -7.972   0.117  0.00  0.00    +0.066 C 
ATOM      3  C   UNL     1       1.246  -8.401   1.210  0.00  0.00    -0.064 C 
ATOM      4  N   UNL     1       0.511  -8.670   2.452  0.00  0.00    +0.398 N 
ATOM      5  C   UNL     1      -0.180  -7.449   2.888  0.00  0.00    +0.130 C 
ATOM      6  C   UNL     1      -1.175  -7.013   1.810  0.00  0.00    +0.095 C 
ATOM      7  H   UNL     1      -0.167  -9.400   2.290  0.00  0.00    -0.083 HD
ATOM      8  H   UNL     1       1.157  -8.964   3.169  0.00  0.00    -0.083 HD
ENDROOT
BRANCH   5   9
ATOM      9  S   UNL     1      -1.071  -7.778   4.434  0.00  0.00    +0.109 S 
ATOM     10  O   UNL     1      -1.596  -6.569   4.963  0.00  0.00    -0.138 OA
ATOM     11  O   UNL     1      -1.898  -8.925   4.288  0.00  0.00    -0.138 OA
BRANCH   9  12
ATOM     12  O   UNL     1       0.006  -8.199   5.424  0.00  0.00    -0.347 OA
BRANCH  12  13
ATOM     13  C   UNL     1       0.767  -7.171   5.883  0.00  0.00    +0.156 A 
ATOM     14  C   UNL     1       1.923  -6.807   5.207  0.00  0.00    +0.048 A 
ATOM     15  C   UNL     1       2.695  -5.761   5.676  0.00  0.00    +0.004 A 
ATOM     16  C   UNL     1       2.317  -5.079   6.817  0.00  0.00    +0.000 A 
ATOM     17  C   UNL     1       1.166  -5.441   7.493  0.00  0.00    +0.004 A 
ATOM     18  C   UNL     1       0.387  -6.482   7.025  0.00  0.00    +0.048 A 
ENDBRANCH  12  13
ENDBRANCH   9  12
ENDBRANCH   5   9
BRANCH   1  19
ATOM     19  C   UNL     1      -1.367  -6.290  -0.493  0.00  0.00    +0.103 C 
BRANCH  19  23
ATOM     20  C   UNL     1      -1.520  -2.021  -0.419  0.00  0.00    -0.047 A 
ATOM     21  C   UNL     1      -1.405  -2.688  -1.624  0.00  0.00    +0.004 A 
ATOM     22  C   UNL     1      -1.355  -4.069  -1.649  0.00  0.00    +0.005 A 
ATOM     23  C   UNL     1      -1.420  -4.784  -0.467  0.00  0.00    -0.029 A 
ATOM     24  C   UNL     1      -1.534  -4.117   0.739  0.00  0.00    +0.005 A 
ATOM     25  C   UNL     1      -1.580  -2.736   0.763  0.00  0.00    +0.004 A 
BRANCH  20  26
ATOM     26  C   UNL     1      -1.574  -0.516  -0.392  0.00  0.00    +0.038 C 
BRANCH  26  28
ATOM     27  C   UNL     1      -0.198   1.570  -0.379  0.00  0.00    +0.007 C 
ATOM     28  C   UNL     1      -0.154   0.044  -0.280  0.00  0.00    -0.013 C 
ATOM     29  C   UNL     1       0.450  -0.363   1.065  0.00  0.00    +0.007 C 
ENDBRANCH  26  28
ENDBRANCH  20  26
ENDBRANCH  19  23
BRANCH  19  30
ATOM     30  C   UNL     1      -2.767  -6.854  -0.244  0.00  0.00    +0.140 C 
BRANCH  30  31
ATOM     31  N   UNL     1      -2.705  -8.321  -0.208  0.00  0.00    -0.157 NA
ATOM     32  F   UNL     1      -3.881  -8.832   0.003  0.00  0.00    -0.136 F 
ATOM     33  H   UNL     1      -2.299  -8.686  -1.057  0.00  0.00    +0.159 HD
ENDBRANCH  30  31
ENDBRANCH  19  30
ENDBRANCH   1  19
TORSDOF 9
