REMARK  Name = ZINC08905216
REMARK  12 active torsions:
REMARK  status: ('A' for Active; 'I' for Inactive)
REMARK    1  A    between atoms: C_1  and  N_59
REMARK    2  A    between atoms: C_2  and  N_59
REMARK    3  A    between atoms: C_3  and  C_4
REMARK    4  A    between atoms: C_3  and  N_59
REMARK    5  A    between atoms: C_4  and  N_5
REMARK    6  A    between atoms: C_6  and  C_26
REMARK    7  A    between atoms: C_9  and  C_10
REMARK    8  A    between atoms: C_9  and  O_21
REMARK    9  A    between atoms: C_16  and  O_19
REMARK   10  A    between atoms: O_19  and  C_20
REMARK   11  A    between atoms: C_30  and  O_32
REMARK   12  A    between atoms: O_32  and  C_33
REMARK                            x       y       z     vdW  Elec       q    Type
REMARK                         _______ _______ _______ _____ _____    ______ ____
ROOT
ATOM      1  N   UNL     1       0.550  -0.913   3.729  0.00  0.00    -0.285 N 
ATOM      2  C   UNL     1       1.912  -1.453   3.794  0.00  0.00    +0.145 C 
ATOM      3  C   UNL     1       2.231  -1.644   5.259  0.00  0.00    +0.074 C 
ATOM      4  C   UNL     1       3.412  -2.131   5.796  0.00  0.00    +0.168 C 
ATOM      5  C   UNL     1       1.092  -1.235   5.963  0.00  0.00    +0.249 C 
ATOM      6  O   UNL     1       0.959  -1.244   7.175  0.00  0.00    -0.282 OA
ATOM      7  C   UNL     1       0.071  -0.788   4.979  0.00  0.00    +0.288 C 
ATOM      8  O   UNL     1      -1.033  -0.371   5.262  0.00  0.00    -0.266 OA
ENDROOT
BRANCH   4   9
ATOM      9  C   UNL     1       3.510  -2.387   7.232  0.00  0.00    +0.171 A 
ATOM     10  C   UNL     1       4.536  -1.987   8.036  0.00  0.00    +0.061 A 
ATOM     11  C   UNL     1       4.233  -2.438   9.345  0.00  0.00    +0.025 A 
ATOM     12  C   UNL     1       4.887  -2.335  10.579  0.00  0.00    +0.012 A 
ATOM     13  C   UNL     1       4.328  -2.894  11.693  0.00  0.00    +0.004 A 
ATOM     14  C   UNL     1       3.116  -3.565  11.613  0.00  0.00    +0.049 A 
ATOM     15  C   UNL     1       2.452  -3.679  10.405  0.00  0.00    +0.163 A 
ATOM     16  C   UNL     1       3.004  -3.115   9.256  0.00  0.00    +0.177 A 
ATOM     17  O   UNL     1       2.602  -3.063   7.969  0.00  0.00    -0.448 OA
BRANCH  15  18
ATOM     18  O   UNL     1       1.264  -4.338  10.339  0.00  0.00    -0.491 OA
ATOM     19  C   UNL     1       0.759  -4.889  11.556  0.00  0.00    +0.277 C 
ENDBRANCH  15  18
ENDBRANCH   4   9
BRANCH   2  20
ATOM     20  C   UNL     1       1.978  -2.773   3.071  0.00  0.00    -0.019 A 
ATOM     21  C   UNL     1       0.940  -3.679   3.190  0.00  0.00    +0.006 A 
ATOM     22  C   UNL     1       0.997  -4.891   2.527  0.00  0.00    +0.004 A 
ATOM     23  C   UNL     1       2.093  -5.200   1.745  0.00  0.00    +0.045 A 
ATOM     24  C   UNL     1       3.136  -4.294   1.624  0.00  0.00    +0.120 A 
ATOM     25  C   UNL     1       3.073  -3.076   2.286  0.00  0.00    +0.051 A 
BRANCH  24  26
ATOM     26  O   UNL     1       4.214  -4.596   0.855  0.00  0.00    -0.495 OA
ATOM     27  C   UNL     1       4.208  -5.865   0.197  0.00  0.00    +0.277 C 
ENDBRANCH  24  26
ENDBRANCH   2  20
BRANCH   4  28
ATOM     28  O   UNL     1       4.472  -2.369   4.993  0.00  0.00    -0.503 OA
ATOM     29  H   UNL     1       5.234  -2.714   5.540  0.00  0.00    +0.292 HD
ENDBRANCH   4  28
BRANCH   1  30
ATOM     30  C   UNL     1      -0.172  -0.570   2.502  0.00  0.00    +0.090 C 
BRANCH  30  31
ATOM     31  C   UNL     1       0.099   0.892   2.141  0.00  0.00    -0.060 C 
BRANCH  31  34
ATOM     32  C   UNL     1      -0.097   0.488  -0.238  0.00  0.00    -0.097 C 
ATOM     33  C   UNL     1      -0.584   2.682   0.661  0.00  0.00    -0.097 C 
ATOM     34  N   UNL     1      -0.653   1.228   0.914  0.00  0.00    +0.377 N 
ATOM     35  H   UNL     1      -1.636   0.958   1.041  0.00  0.00    -0.083 HD
ENDBRANCH  31  34
ENDBRANCH  30  31
ENDBRANCH   1  30
TORSDOF 8
