REMARK  Name = ZINC09159971
REMARK  5 active torsions:
REMARK  status: ('A' for Active; 'I' for Inactive)
REMARK    1  A    between atoms: C_1  and  C_2
REMARK    2  A    between atoms: C_6  and  N_8
REMARK    3  A    between atoms: C_9  and  C_26
REMARK    4  A    between atoms: C_16  and  C_25
REMARK    5  A    between atoms: C_17  and  C_24
REMARK                            x       y       z     vdW  Elec       q    Type
REMARK                         _______ _______ _______ _____ _____    ______ ____
ROOT
ATOM      1  N   UNL     1       4.444   5.591  -0.015  0.00  0.00    -0.238 N 
ATOM      2  C   UNL     1       2.976   5.619  -0.000  0.00  0.00    +0.151 C 
ATOM      3  C   UNL     1       2.534   4.178  -0.002  0.00  0.00    +0.072 A 
ATOM      4  C   UNL     1       1.213   3.545   0.008  0.00  0.00    +0.199 A 
ATOM      5  O   UNL     1       0.188   4.204   0.021  0.00  0.00    -0.287 OA
ATOM      6  C   UNL     1       1.185   2.069   0.002  0.00  0.00    +0.065 A 
ATOM      7  C   UNL     1      -0.017   1.363   0.009  0.00  0.00    +0.019 A 
ATOM      8  C   UNL     1       0.002  -0.004   0.002  0.00  0.00    -0.047 A 
ATOM      9  C   UNL     1       1.209  -0.689  -0.013  0.00  0.00    -0.044 A 
ATOM     10  C   UNL     1       2.407  -0.008  -0.020  0.00  0.00    +0.050 A 
ATOM     11  C   UNL     1       2.413   1.384  -0.013  0.00  0.00    +0.140 A 
ATOM     12  O   UNL     1       3.573   2.064  -0.021  0.00  0.00    -0.450 OA
ATOM     13  C   UNL     1       3.651   3.410  -0.016  0.00  0.00    +0.199 A 
ATOM     14  C   UNL     1       4.834   4.305  -0.024  0.00  0.00    +0.288 C 
ATOM     15  O   UNL     1       5.990   3.930  -0.037  0.00  0.00    -0.266 OA
ATOM     16  C   UNL     1       1.210  -2.196  -0.021  0.00  0.00    +0.044 C 
ATOM     17  C   UNL     1      -1.295  -0.771   0.010  0.00  0.00    +0.044 C 
ENDROOT
BRANCH   1  23
ATOM     18  C   UNL     1       8.904   7.316  -0.272  0.00  0.00    +0.065 C 
ATOM     19  C   UNL     1       7.423   7.560  -0.140  0.00  0.00    +0.040 A 
ATOM     20  C   UNL     1       6.952   8.854  -0.029  0.00  0.00    +0.023 A 
ATOM     21  C   UNL     1       5.587   9.072   0.093  0.00  0.00    +0.005 A 
ATOM     22  C   UNL     1       4.740   7.977   0.092  0.00  0.00    +0.044 A 
ATOM     23  C   UNL     1       5.284   6.702  -0.018  0.00  0.00    +0.129 A 
ATOM     24  N   UNL     1       6.592   6.535  -0.132  0.00  0.00    -0.237 NA
ENDBRANCH   1  23
BRANCH   2  25
ATOM     25  C   UNL     1       2.456   6.322  -1.227  0.00  0.00    -0.022 A 
ATOM     26  C   UNL     1       3.108   6.174  -2.437  0.00  0.00    +0.007 A 
ATOM     27  C   UNL     1       2.629   6.815  -3.564  0.00  0.00    +0.020 A 
ATOM     28  C   UNL     1       1.503   7.614  -3.478  0.00  0.00    +0.041 A 
ATOM     29  C   UNL     1       0.854   7.766  -2.266  0.00  0.00    +0.020 A 
ATOM     30  C   UNL     1       1.331   7.121  -1.141  0.00  0.00    +0.007 A 
ATOM     31 CL   UNL     1       0.904   8.425  -4.892  0.00  0.00    -0.084 Cl
ENDBRANCH   2  25
TORSDOF 2
