REMARK  Name = ZINC06793336
REMARK  11 active torsions:
REMARK  status: ('A' for Active; 'I' for Inactive)
REMARK    1  A    between atoms: C_1  and  O_2
REMARK    2  A    between atoms: O_2  and  C_3
REMARK    3  A    between atoms: C_5  and  C_10
REMARK    4  A    between atoms: C_8  and  O_9
REMARK    5  A    between atoms: C_14  and  O_29
REMARK    6  A    between atoms: C_15  and  O_27
REMARK    7  A    between atoms: C_19  and  C_25
REMARK    8  A    between atoms: C_21  and  C_23
REMARK    9  A    between atoms: C_23  and  O_24
REMARK   10  A    between atoms: C_25  and  O_26
REMARK   11  A    between atoms: O_27  and  C_28
REMARK                            x       y       z     vdW  Elec       q    Type
REMARK                         _______ _______ _______ _____ _____    ______ ____
ROOT
ATOM      1  C   UNL     1       1.220   3.591   0.026  0.00  0.00    +0.055 C 
ATOM      2  C   UNL     1       1.261   2.086  -0.021  0.00  0.00    -0.033 A 
ATOM      3  C   UNL     1       2.508   1.476  -0.079  0.00  0.00    +0.053 A 
ATOM      4  C   UNL     1       2.616   0.098  -0.111  0.00  0.00    +0.159 A 
ATOM      5  C   UNL     1       1.464  -0.683  -0.085  0.00  0.00    +0.162 A 
ATOM      6  C   UNL     1       0.226  -0.072  -0.030  0.00  0.00    +0.053 A 
ATOM      7  C   UNL     1       0.121   1.313  -0.000  0.00  0.00    -0.040 A 
ATOM      8  C   UNL     1      -1.261   1.910   0.046  0.00  0.00    +0.041 C 
ATOM      9  C   UNL     1      -1.204   3.364   0.509  0.00  0.00    +0.025 C 
ATOM     10  C   UNL     1      -0.169   4.104  -0.348  0.00  0.00    +0.032 C 
ENDROOT
BRANCH   1  13
ATOM     11  C   UNL     1       2.659   5.606   2.880  0.00  0.00    +0.162 A 
ATOM     12  C   UNL     1       2.349   5.176   1.600  0.00  0.00    +0.053 A 
ATOM     13  C   UNL     1       1.561   4.054   1.419  0.00  0.00    -0.036 A 
ATOM     14  C   UNL     1       1.090   3.353   2.514  0.00  0.00    +0.008 A 
ATOM     15  C   UNL     1       1.400   3.774   3.794  0.00  0.00    +0.049 A 
ATOM     16  C   UNL     1       2.185   4.901   3.982  0.00  0.00    +0.158 A 
BRANCH  11  18
ATOM     17  C   UNL     1       3.881   7.386   1.883  0.00  0.00    +0.277 C 
ATOM     18  O   UNL     1       3.430   6.712   3.059  0.00  0.00    -0.491 OA
ENDBRANCH  11  18
BRANCH  16  19
ATOM     19  O   UNL     1       2.490   5.316   5.240  0.00  0.00    -0.503 OA
ATOM     20  H   UNL     1       3.304   4.932   5.594  0.00  0.00    +0.292 HD
ENDBRANCH  16  19
ENDBRANCH   1  13
BRANCH   5  21
ATOM     21  O   UNL     1       1.557  -2.039  -0.114  0.00  0.00    -0.491 OA
ATOM     22  C   UNL     1       0.332  -2.774  -0.085  0.00  0.00    +0.277 C 
ENDBRANCH   5  21
BRANCH   4  23
ATOM     23  O   UNL     1       3.841  -0.490  -0.168  0.00  0.00    -0.503 OA
ATOM     24  H   UNL     1       4.163  -0.642  -1.067  0.00  0.00    +0.292 HD
ENDBRANCH   4  23
BRANCH  10  25
ATOM     25  C   UNL     1      -0.437   3.831  -1.829  0.00  0.00    +0.160 C 
BRANCH  25  26
ATOM     26  O   UNL     1      -1.687   4.414  -2.202  0.00  0.00    -0.395 OA
ATOM     27  H   UNL     1      -1.922   4.280  -3.131  0.00  0.00    +0.209 HD
ENDBRANCH  25  26
ENDBRANCH  10  25
BRANCH   9  28
ATOM     28  C   UNL     1      -2.577   4.016   0.334  0.00  0.00    +0.160 C 
BRANCH  28  29
ATOM     29  O   UNL     1      -3.513   3.399   1.220  0.00  0.00    -0.395 OA
ATOM     30  H   UNL     1      -4.407   3.763   1.163  0.00  0.00    +0.209 HD
ENDBRANCH  28  29
ENDBRANCH   9  28
TORSDOF 9
