REMARK  Name = ZINC58788409
REMARK  8 active torsions:
REMARK  status: ('A' for Active; 'I' for Inactive)
REMARK    1  A    between atoms: C_1  and  C_2
REMARK    2  A    between atoms: C_2  and  C_3
REMARK    3  A    between atoms: C_3  and  C_4
REMARK    4  A    between atoms: C_4  and  C_6
REMARK    5  A    between atoms: C_4  and  N_7
REMARK    6  A    between atoms: N_7  and  C_8
REMARK    7  A    between atoms: C_9  and  C_11
REMARK    8  A    between atoms: C_11  and  C_12
REMARK                            x       y       z     vdW  Elec       q    Type
REMARK                         _______ _______ _______ _____ _____    ______ ____
ROOT
ATOM      1  C   UNL     1      -2.887  -4.695  -0.694  0.00  0.00    -0.019 C 
ATOM      2  C   UNL     1      -1.914  -5.872  -0.794  0.00  0.00    +0.011 C 
ATOM      3  C   UNL     1      -2.262  -6.720  -2.018  0.00  0.00    -0.009 C 
ATOM      4  C   UNL     1      -3.691  -7.250  -1.882  0.00  0.00    +0.007 C 
ATOM      5  C   UNL     1      -4.664  -6.074  -1.783  0.00  0.00    -0.009 C 
ATOM      6  C   UNL     1      -4.316  -5.226  -0.558  0.00  0.00    +0.011 C 
ATOM      7  C   UNL     1      -4.557  -5.215  -3.045  0.00  0.00    +0.021 C 
ATOM      8  C   UNL     1      -3.128  -4.685  -3.181  0.00  0.00    +0.027 C 
ATOM      9  C   UNL     1      -2.155  -5.861  -3.280  0.00  0.00    +0.021 C 
ATOM     10  C   UNL     1      -2.780  -3.837  -1.956  0.00  0.00    +0.025 C 
ATOM     11 BR   UNL     1      -2.991  -3.582  -4.803  0.00  0.00    -0.084 Br
ENDROOT
BRANCH   1  12
ATOM     12  C   UNL     1      -2.538  -3.847   0.531  0.00  0.00    +0.103 C 
BRANCH  12  15
ATOM     13  N   UNL     1      -0.605  -2.548   1.364  0.00  0.00    -0.302 N 
ATOM     14  C   UNL     1      -1.401  -2.212   2.546  0.00  0.00    +0.132 C 
ATOM     15  C   UNL     1      -1.131  -3.325   0.396  0.00  0.00    +0.216 C 
ATOM     16  O   UNL     1      -0.472  -3.604  -0.583  0.00  0.00    -0.276 OA
BRANCH  13  17
ATOM     17  C   UNL     1       0.763  -2.041   1.233  0.00  0.00    +0.073 C 
ATOM     18  C   UNL     1       1.608  -2.546   2.404  0.00  0.00    +0.028 C 
BRANCH  17  19
ATOM     19  C   UNL     1       0.742  -0.511   1.242  0.00  0.00    +0.022 C 
BRANCH  19  21
ATOM     20  C   UNL     1      -0.019   1.526   0.010  0.00  0.00    +0.004 C 
ATOM     21  C   UNL     1       0.002  -0.004   0.002  0.00  0.00    -0.002 C 
ENDBRANCH  19  21
ENDBRANCH  17  19
ENDBRANCH  13  17
ENDBRANCH  12  15
ENDBRANCH   1  12
TORSDOF 5
