REMARK  Name = ZINC01633228
REMARK  6 active torsions:
REMARK  status: ('A' for Active; 'I' for Inactive)
REMARK    1  A    between atoms: C_3  and  O_26
REMARK    2  A    between atoms: C_9  and  O_25
REMARK    3  A    between atoms: C_10  and  C_11
REMARK    4  A    between atoms: C_12  and  O_24
REMARK    5  A    between atoms: C_17  and  C_22
REMARK    6  A    between atoms: C_18  and  O_21
REMARK                            x       y       z     vdW  Elec       q    Type
REMARK                         _______ _______ _______ _____ _____    ______ ____
ROOT
ATOM      1  C   UNL     1       2.463   3.937  -0.003  0.00  0.00    +0.036 A 
ATOM      2  C   UNL     1       3.107   4.219  -1.207  0.00  0.00    +0.125 A 
ATOM      3  C   UNL     1       4.314   4.917  -1.214  0.00  0.00    +0.046 A 
ATOM      4  C   UNL     1       4.890   5.337  -0.054  0.00  0.00    +0.012 A 
ATOM      5  C   UNL     1       4.271   5.072   1.180  0.00  0.00    -0.016 A 
ATOM      6  C   UNL     1       3.043   4.370   1.205  0.00  0.00    +0.007 A 
ATOM      7  C   UNL     1       2.403   4.106   2.494  0.00  0.00    +0.064 A 
ATOM      8  C   UNL     1       3.032   4.564   3.659  0.00  0.00    +0.128 A 
ATOM      9  C   UNL     1       4.240   5.256   3.579  0.00  0.00    +0.047 A 
ATOM     10  C   UNL     1       4.850   5.499   2.389  0.00  0.00    +0.012 A 
ENDROOT
BRANCH   1  20
ATOM     11  C   UNL     1      -2.485   3.857  -0.026  0.00  0.00    +0.012 A 
ATOM     12  C   UNL     1      -2.495   5.216  -0.053  0.00  0.00    +0.046 A 
ATOM     13  C   UNL     1      -1.302   5.943  -0.061  0.00  0.00    +0.117 A 
ATOM     14  C   UNL     1      -0.086   5.297  -0.043  0.00  0.00    +0.054 A 
ATOM     15  C   UNL     1      -0.048   3.896  -0.015  0.00  0.00    -0.003 A 
ATOM     16  C   UNL     1      -1.262   3.165  -0.006  0.00  0.00    -0.017 A 
ATOM     17  C   UNL     1      -1.225   1.760   0.015  0.00  0.00    +0.012 A 
ATOM     18  C   UNL     1      -0.031   1.106   0.039  0.00  0.00    +0.046 A 
ATOM     19  C   UNL     1       1.175   1.808   0.031  0.00  0.00    +0.125 A 
ATOM     20  C   UNL     1       1.183   3.197   0.004  0.00  0.00    +0.035 A 
BRANCH  19  21
ATOM     21  O   UNL     1       2.351   1.127   0.050  0.00  0.00    -0.506 OA
ATOM     22  H   UNL     1       2.695   0.913  -0.828  0.00  0.00    +0.292 HD
ENDBRANCH  19  21
BRANCH  13  23
ATOM     23  O   UNL     1      -1.341   7.301  -0.088  0.00  0.00    -0.507 OA
ATOM     24  H   UNL     1      -1.348   7.677  -0.979  0.00  0.00    +0.292 HD
ENDBRANCH  13  23
ENDBRANCH   1  20
BRANCH   8  25
ATOM     25  O   UNL     1       2.465   4.334   4.867  0.00  0.00    -0.506 OA
ATOM     26  H   UNL     1       2.741   3.505   5.280  0.00  0.00    +0.292 HD
ENDBRANCH   8  25
BRANCH   7  27
ATOM     27  C   UNL     1       1.137   3.379   2.565  0.00  0.00    +0.263 C 
ATOM     28  O   UNL     1       0.566   3.258   3.629  0.00  0.00    -0.296 OA
ENDBRANCH   7  27
BRANCH   2  29
ATOM     29  O   UNL     1       2.556   3.812  -2.379  0.00  0.00    -0.506 OA
ATOM     30  H   UNL     1       1.955   4.458  -2.776  0.00  0.00    +0.292 HD
ENDBRANCH   2  29
TORSDOF 6
