REMARK  Name = ZINC39266423
REMARK  6 active torsions:
REMARK  status: ('A' for Active; 'I' for Inactive)
REMARK    1  A    between atoms: C_4  and  C_7
REMARK    2  A    between atoms: C_7  and  O_8
REMARK    3  A    between atoms: O_8  and  C_9
REMARK    4  A    between atoms: C_16  and  C_31
REMARK    5  A    between atoms: N_18  and  C_21
REMARK    6  A    between atoms: C_21  and  C_22
REMARK                            x       y       z     vdW  Elec       q    Type
REMARK                         _______ _______ _______ _____ _____    ______ ____
ROOT
ATOM      1  C   UNL     1       5.386  -1.726   1.176  0.00  0.00    +0.404 C 
ATOM      2  O   UNL     1       6.059  -2.204   0.284  0.00  0.00    -0.226 OA
ATOM      3  N   UNL     1       5.773  -1.861   2.460  0.00  0.00    -0.251 N 
ATOM      4  C   UNL     1       5.085  -1.289   3.633  0.00  0.00    +0.112 C 
ATOM      5  C   UNL     1       5.505  -2.192   4.819  0.00  0.00    +0.022 C 
ATOM      6  C   UNL     1       6.982  -2.511   4.462  0.00  0.00    +0.039 C 
ATOM      7  C   UNL     1       6.946  -2.607   2.926  0.00  0.00    +0.139 C 
ATOM      8  C   UNL     1       8.261  -2.242   2.239  0.00  0.00    +0.139 C 
ATOM      9  N   UNL     1       8.229  -3.640   1.791  0.00  0.00    -0.281 N 
ATOM     10  C   UNL     1       7.069  -4.006   2.382  0.00  0.00    +0.243 C 
ATOM     11  O   UNL     1       6.412  -5.023   2.447  0.00  0.00    -0.273 OA
ENDROOT
BRANCH   8  12
ATOM     12  C   UNL     1       8.118  -1.232   1.130  0.00  0.00    -0.024 A 
ATOM     13  C   UNL     1       7.748   0.067   1.422  0.00  0.00    +0.005 A 
ATOM     14  C   UNL     1       7.616   0.994   0.405  0.00  0.00    +0.000 A 
ATOM     15  C   UNL     1       7.855   0.621  -0.905  0.00  0.00    +0.000 A 
ATOM     16  C   UNL     1       8.226  -0.678  -1.197  0.00  0.00    +0.000 A 
ATOM     17  C   UNL     1       8.362  -1.603  -0.179  0.00  0.00    +0.005 A 
ENDBRANCH   8  12
BRANCH   1  18
ATOM     18  O   UNL     1       4.253  -1.060   0.881  0.00  0.00    -0.445 OA
BRANCH  18  19
ATOM     19  C   UNL     1       3.903  -0.955  -0.500  0.00  0.00    +0.269 C 
BRANCH  19  23
ATOM     20  C   UNL     1       0.253   1.231  -0.884  0.00  0.00    +0.000 A 
ATOM     21  C   UNL     1       1.464   1.899  -0.900  0.00  0.00    +0.000 A 
ATOM     22  C   UNL     1       2.645   1.191  -0.776  0.00  0.00    +0.007 A 
ATOM     23  C   UNL     1       2.615  -0.184  -0.635  0.00  0.00    -0.010 A 
ATOM     24  C   UNL     1       1.405  -0.851  -0.618  0.00  0.00    +0.007 A 
ATOM     25  C   UNL     1       0.224  -0.144  -0.743  0.00  0.00    +0.000 A 
ENDBRANCH  19  23
ENDBRANCH  18  19
ENDBRANCH   1  18
BRANCH   9  26
ATOM     26  C   UNL     1       9.164  -4.403   0.961  0.00  0.00    +0.204 C 
BRANCH  26  27
ATOM     27  C   UNL     1      10.107  -5.176   1.846  0.00  0.00    +0.233 C 
ATOM     28  O   UNL     1      10.008  -5.098   3.052  0.00  0.00    -0.274 OA
ATOM     29  N   UNL     1      11.061  -5.955   1.297  0.00  0.00    -0.290 N 
ATOM     30  C   UNL     1      11.994  -6.728   2.134  0.00  0.00    +0.127 C 
ATOM     31  C   UNL     1      11.793  -8.213   1.827  0.00  0.00    +0.123 C 
ATOM     32  N   UNL     1      11.748  -8.442   0.390  0.00  0.00    -0.313 N 
ATOM     33  C   UNL     1      11.449  -7.510  -0.516  0.00  0.00    +0.230 C 
ATOM     34  O   UNL     1      11.365  -7.840  -1.680  0.00  0.00    -0.274 OA
ATOM     35  C   UNL     1      11.207  -6.072  -0.161  0.00  0.00    +0.203 C 
ATOM     36  H   UNL     1      11.949  -9.335   0.069  0.00  0.00    +0.149 HD
ENDBRANCH  26  27
ENDBRANCH   9  26
TORSDOF 6
