REMARK  Name = ZINC33715537
REMARK  7 active torsions:
REMARK  status: ('A' for Active; 'I' for Inactive)
REMARK    1  A    between atoms: C_1  and  C_2
REMARK    2  A    between atoms: C_8  and  C_20
REMARK    3  A    between atoms: N_9  and  C_10
REMARK    4  A    between atoms: C_13  and  O_18
REMARK    5  A    between atoms: C_14  and  O_16
REMARK    6  A    between atoms: O_16  and  C_17
REMARK    7  A    between atoms: O_18  and  C_19
REMARK                            x       y       z     vdW  Elec       q    Type
REMARK                         _______ _______ _______ _____ _____    ______ ____
ROOT
ATOM      1  C   UNL     1       0.335   1.527  -0.057  0.00  0.00    +0.008 C 
ATOM      2  C   UNL     1       0.340  -0.003  -0.060  0.00  0.00    -0.001 C 
ATOM      3  C   UNL     1       0.784  -0.509   1.315  0.00  0.00    +0.058 C 
ATOM      4  C   UNL     1       0.626  -2.007   1.367  0.00  0.00    +0.035 A 
ATOM      5  C   UNL     1      -0.212  -2.706   0.504  0.00  0.00    +0.039 A 
ATOM      6  C   UNL     1      -0.101  -4.110   0.849  0.00  0.00    +0.039 A 
ATOM      7  C   UNL     1       0.783  -4.171   1.884  0.00  0.00    +0.055 A 
ATOM      8  N   UNL     1       1.209  -2.895   2.183  0.00  0.00    -0.312 N 
ATOM      9  C   UNL     1      -1.012  -2.026  -0.522  0.00  0.00    +0.165 C 
ATOM     10  O   UNL     1      -1.587  -2.628  -1.404  0.00  0.00    -0.292 OA
ATOM     11  C   UNL     1      -1.066  -0.510  -0.397  0.00  0.00    +0.083 C 
ENDROOT
BRANCH   7  12
ATOM     12  C   UNL     1       1.215  -5.405   2.575  0.00  0.00    -0.001 A 
ATOM     13  C   UNL     1       1.089  -6.642   1.942  0.00  0.00    +0.011 A 
ATOM     14  C   UNL     1       1.497  -7.790   2.590  0.00  0.00    +0.016 A 
ATOM     15  C   UNL     1       2.021  -7.717   3.869  0.00  0.00    +0.018 A 
ATOM     16  C   UNL     1       2.143  -6.493   4.504  0.00  0.00    +0.016 A 
ATOM     17  C   UNL     1       1.743  -5.338   3.865  0.00  0.00    +0.011 A 
ATOM     18 BR   UNL     1       2.572  -9.296   4.753  0.00  0.00    -0.050 Br
ENDBRANCH   7  12
BRANCH   8  19
ATOM     19  C   UNL     1       2.123  -2.572   3.197  0.00  0.00    +0.051 A 
ATOM     20  C   UNL     1       1.699  -1.865   4.314  0.00  0.00    +0.030 A 
ATOM     21  C   UNL     1       2.597  -1.546   5.313  0.00  0.00    +0.051 A 
ATOM     22  C   UNL     1       3.924  -1.930   5.203  0.00  0.00    +0.162 A 
ATOM     23  C   UNL     1       4.352  -2.639   4.084  0.00  0.00    +0.163 A 
ATOM     24  C   UNL     1       3.450  -2.964   3.085  0.00  0.00    +0.075 A 
BRANCH  23  25
ATOM     25  O   UNL     1       5.654  -3.017   3.975  0.00  0.00    -0.491 OA
ATOM     26  C   UNL     1       6.022  -3.742   2.800  0.00  0.00    +0.277 C 
ENDBRANCH  23  25
BRANCH  22  27
ATOM     27  O   UNL     1       4.808  -1.616   6.188  0.00  0.00    -0.491 OA
ATOM     28  C   UNL     1       4.300  -0.888   7.308  0.00  0.00    +0.277 C 
ENDBRANCH  22  27
ENDBRANCH   8  19
TORSDOF 4
