REMARK  Name = ZINC02375764
REMARK  8 active torsions:
REMARK  status: ('A' for Active; 'I' for Inactive)
REMARK    1  A    between atoms: C_1  and  O_2
REMARK    2  A    between atoms: O_2  and  C_3
REMARK    3  A    between atoms: C_3  and  C_5
REMARK    4  A    between atoms: C_5  and  C_7
REMARK    5  A    between atoms: C_5  and  N_18
REMARK    6  A    between atoms: C_7  and  C_8
REMARK    7  A    between atoms: N_18  and  C_19
REMARK    8  A    between atoms: N_26  and  C_29
REMARK                            x       y       z     vdW  Elec       q    Type
REMARK                         _______ _______ _______ _____ _____    ______ ____
ROOT
ATOM      1  N   UNL     1       1.272  -3.069  -2.304  0.00  0.00    -0.336 N 
ATOM      2  H   UNL     1       2.209  -3.320  -2.290  0.00  0.00    +0.146 HD
ENDROOT
BRANCH   1   3
ATOM      3  C   UNL     1       0.626  -2.938  -3.479  0.00  0.00    +0.086 C 
ATOM      4  C   UNL     1       1.325  -3.043  -4.668  0.00  0.00    +0.113 C 
ATOM      5  C   UNL     1       2.794  -3.156  -4.688  0.00  0.00    +0.258 C 
ATOM      6  O   UNL     1       3.435  -3.161  -3.654  0.00  0.00    -0.270 OA
ATOM      7  N   UNL     1       3.409  -3.255  -5.885  0.00  0.00    -0.235 N 
ATOM      8  C   UNL     1       2.715  -3.252  -7.032  0.00  0.00    +0.320 C 
ATOM      9  O   UNL     1       3.330  -3.344  -8.076  0.00  0.00    -0.251 OA
ATOM     10  N   UNL     1       1.380  -3.152  -7.087  0.00  0.00    -0.190 N 
ATOM     11  C   UNL     1       0.633  -3.052  -5.968  0.00  0.00    +0.265 C 
ATOM     12  O   UNL     1      -0.579  -2.967  -6.032  0.00  0.00    -0.269 OA
ATOM     13  H   UNL     1       4.376  -3.330  -5.916  0.00  0.00    +0.159 HD
BRANCH  10  14
ATOM     14  C   UNL     1       0.744  -3.157  -8.337  0.00  0.00    +0.046 A 
ATOM     15  C   UNL     1       0.218  -1.982  -8.855  0.00  0.00    +0.025 A 
ATOM     16  C   UNL     1      -0.407  -1.990 -10.086  0.00  0.00    +0.017 A 
ATOM     17  C   UNL     1      -0.510  -3.168 -10.803  0.00  0.00    +0.018 A 
ATOM     18  C   UNL     1       0.012  -4.342 -10.289  0.00  0.00    +0.017 A 
ATOM     19  C   UNL     1       0.644  -4.338  -9.061  0.00  0.00    +0.025 A 
ATOM     20 BR   UNL     1      -1.368  -3.176 -12.489  0.00  0.00    -0.050 Br
ENDBRANCH  10  14
ENDBRANCH   1   3
BRANCH   1  21
ATOM     21  C   UNL     1       0.559  -2.833  -1.046  0.00  0.00    +0.184 C 
BRANCH  21  22
ATOM     22  C   UNL     1       0.578  -1.360  -0.726  0.00  0.00    +0.328 C 
ATOM     23  O   UNL     1       1.130  -0.587  -1.473  0.00  0.00    -0.249 OA
BRANCH  22  25
ATOM     24  C   UNL     1       0.037   0.500   0.627  0.00  0.00    +0.280 C 
ATOM     25  O   UNL     1      -0.019  -0.907   0.387  0.00  0.00    -0.467 OA
ENDBRANCH  22  25
ENDBRANCH  21  22
BRANCH  21  26
ATOM     26  C   UNL     1       1.244  -3.608   0.082  0.00  0.00    +0.071 C 
BRANCH  26  27
ATOM     27  C   UNL     1       1.118  -5.087  -0.176  0.00  0.00    -0.020 A 
ATOM     28  C   UNL     1       0.171  -5.905   0.311  0.00  0.00    +0.087 A 
ATOM     29  N   UNL     1       0.379  -7.180  -0.139  0.00  0.00    -0.360 N 
ATOM     30  H   UNL     1      -0.175  -7.945   0.079  0.00  0.00    +0.165 HD
ATOM     31  C   UNL     1       1.493  -7.215  -0.948  0.00  0.00    +0.047 A 
ATOM     32  C   UNL     1       2.001  -5.904  -1.012  0.00  0.00    +0.003 A 
ATOM     33  C   UNL     1       3.139  -5.634  -1.774  0.00  0.00    +0.010 A 
ATOM     34  C   UNL     1       3.752  -6.646  -2.459  0.00  0.00    +0.001 A 
ATOM     35  C   UNL     1       3.253  -7.939  -2.402  0.00  0.00    +0.002 A 
ATOM     36  C   UNL     1       2.137  -8.230  -1.649  0.00  0.00    +0.026 A 
ENDBRANCH  26  27
ENDBRANCH  21  26
ENDBRANCH   1  21
TORSDOF 7
