REMARK  Name = ZINC00923990
REMARK  8 active torsions:
REMARK  status: ('A' for Active; 'I' for Inactive)
REMARK    1  A    between atoms: C_1  and  C_2
REMARK    2  A    between atoms: C_6  and  C_8
REMARK    3  A    between atoms: C_8  and  C_9
REMARK    4  A    between atoms: C_9  and  N_10
REMARK    5  A    between atoms: N_10  and  C_11
REMARK    6  A    between atoms: N_10  and  S_27
REMARK    7  A    between atoms: C_11  and  C_12
REMARK    8  A    between atoms: S_27  and  C_30
REMARK                            x       y       z     vdW  Elec       q    Type
REMARK                         _______ _______ _______ _____ _____    ______ ____
ROOT
ATOM      1  N   UNL     1      -0.266   7.250  -1.397  0.00  0.00    -0.172 NA
ENDROOT
BRANCH   1   2
ATOM      2  S   UNL     1       1.090   8.128  -1.762  0.00  0.00    +0.061 S 
ATOM      3  O   UNL     1       0.923   9.404  -1.159  0.00  0.00    -0.153 OA
ATOM      4  O   UNL     1       2.203   7.292  -1.480  0.00  0.00    -0.153 OA
BRANCH   2   5
ATOM      5  C   UNL     1       1.087   8.392  -3.505  0.00  0.00    +0.106 A 
ATOM      6  C   UNL     1       1.706   7.482  -4.342  0.00  0.00    +0.030 A 
ATOM      7  C   UNL     1       1.699   7.685  -5.709  0.00  0.00    +0.022 A 
ATOM      8  C   UNL     1       1.081   8.805  -6.239  0.00  0.00    +0.041 A 
ATOM      9  C   UNL     1       0.467   9.717  -5.400  0.00  0.00    +0.022 A 
ATOM     10  C   UNL     1       0.470   9.510  -4.033  0.00  0.00    +0.030 A 
ATOM     11 CL   UNL     1       1.078   9.064  -7.955  0.00  0.00    -0.084 Cl
ENDBRANCH   2   5
ENDBRANCH   1   2
BRANCH   1  12
ATOM     12  C   UNL     1      -0.183   5.794  -1.267  0.00  0.00    +0.114 C 
BRANCH  12  13
ATOM     13  C   UNL     1       0.082   5.426   0.194  0.00  0.00    +0.052 C 
BRANCH  13  19
ATOM     14  C   UNL     1      -2.421   1.184   1.081  0.00  0.00    +0.044 C 
ATOM     15  C   UNL     1      -1.131   1.898   0.770  0.00  0.00    -0.050 A 
ATOM     16  C   UNL     1       0.040   1.176   0.624  0.00  0.00    +0.003 A 
ATOM     17  C   UNL     1       1.222   1.830   0.333  0.00  0.00    +0.001 A 
ATOM     18  C   UNL     1       1.236   3.205   0.194  0.00  0.00    +0.004 A 
ATOM     19  C   UNL     1       0.067   3.927   0.346  0.00  0.00    -0.046 A 
ATOM     20  C   UNL     1      -1.116   3.273   0.637  0.00  0.00    +0.007 A 
ENDBRANCH  13  19
ENDBRANCH  12  13
ENDBRANCH   1  12
BRANCH   1  21
ATOM     21  C   UNL     1      -1.549   7.931  -1.204  0.00  0.00    +0.150 C 
BRANCH  21  22
ATOM     22  C   UNL     1      -1.783   8.154   0.268  0.00  0.00    +0.033 A 
ATOM     23  C   UNL     1      -1.407   9.324   0.843  0.00  0.00    +0.020 A 
ATOM     24  C   UNL     1      -1.648   9.511   2.273  0.00  0.00    +0.003 A 
ATOM     25  C   UNL     1      -1.282  10.699   2.918  0.00  0.00    +0.059 A 
ATOM     26  C   UNL     1      -1.523  10.845   4.266  0.00  0.00    +0.167 A 
ATOM     27  C   UNL     1      -2.131   9.812   4.991  0.00  0.00    +0.168 A 
ATOM     28  C   UNL     1      -2.495   8.636   4.362  0.00  0.00    +0.075 A 
ATOM     29  C   UNL     1      -2.260   8.473   3.003  0.00  0.00    +0.053 A 
ATOM     30  N   UNL     1      -2.618   7.306   2.358  0.00  0.00    -0.322 N 
ATOM     31  H   UNL     1      -3.048   6.568   2.877  0.00  0.00    +0.169 HD
ATOM     32  C   UNL     1      -2.397   7.148   1.041  0.00  0.00    +0.254 A 
ATOM     33  O   UNL     1      -2.732   6.106   0.504  0.00  0.00    -0.268 OA
ATOM     34  O   UNL     1      -2.253  10.210   6.291  0.00  0.00    -0.453 OA
ATOM     35  C   UNL     1      -2.095  11.640   6.274  0.00  0.00    +0.466 C 
ATOM     36  O   UNL     1      -1.270  11.882   5.119  0.00  0.00    -0.453 OA
ENDBRANCH  21  22
ENDBRANCH   1  21
TORSDOF 7
