REMARK  Name = ZINC01249005
REMARK  7 active torsions:
REMARK  status: ('A' for Active; 'I' for Inactive)
REMARK    1  A    between atoms: C_4  and  C_7
REMARK    2  A    between atoms: C_7  and  O_8
REMARK    3  A    between atoms: O_8  and  C_9
REMARK    4  A    between atoms: C_9  and  C_11
REMARK    5  A    between atoms: C_12  and  N_31
REMARK    6  A    between atoms: C_14  and  C_26
REMARK    7  A    between atoms: C_16  and  C_20
REMARK                            x       y       z     vdW  Elec       q    Type
REMARK                         _______ _______ _______ _____ _____    ______ ____
ROOT
ATOM      1  C   UNL     1      -3.454   0.375   2.655  0.00  0.00    +0.119 A 
ATOM      2  C   UNL     1      -2.205   0.142   2.110  0.00  0.00    +0.056 A 
ATOM      3  C   UNL     1      -1.984  -1.041   1.379  0.00  0.00    +0.040 A 
ATOM      4  C   UNL     1      -0.779  -1.468   0.732  0.00  0.00    +0.031 A 
ATOM      5  C   UNL     1      -0.777  -2.679   0.052  0.00  0.00    +0.040 A 
ATOM      6  C   UNL     1      -1.934  -3.455   0.002  0.00  0.00    +0.073 A 
ATOM      7  N   UNL     1      -3.045  -3.044   0.603  0.00  0.00    -0.239 NA
ATOM      8  C   UNL     1      -3.095  -1.906   1.258  0.00  0.00    +0.112 A 
ATOM      9  S   UNL     1      -4.379  -1.066   2.155  0.00  0.00    -0.060 S 
ENDROOT
BRANCH   6  10
ATOM     10  C   UNL     1      -1.924  -4.747  -0.727  0.00  0.00    +0.000 A 
ATOM     11  C   UNL     1      -0.763  -5.181  -1.365  0.00  0.00    +0.010 A 
ATOM     12  C   UNL     1      -0.758  -6.386  -2.037  0.00  0.00    +0.001 A 
ATOM     13  C   UNL     1      -1.906  -7.157  -2.088  0.00  0.00    +0.000 A 
ATOM     14  C   UNL     1      -3.062  -6.729  -1.461  0.00  0.00    +0.001 A 
ATOM     15  C   UNL     1      -3.077  -5.528  -0.781  0.00  0.00    +0.010 A 
ENDBRANCH   6  10
BRANCH   4  16
ATOM     16  C   UNL     1       0.438  -0.640   0.791  0.00  0.00    +0.136 A 
ATOM     17  C   UNL     1       1.140  -0.172  -0.278  0.00  0.00    +0.050 A 
ATOM     18  C   UNL     1       2.220   0.567   0.238  0.00  0.00    +0.042 A 
ATOM     19  C   UNL     1       2.128   0.516   1.583  0.00  0.00    +0.196 A 
ATOM     20  O   UNL     1       1.051  -0.213   1.913  0.00  0.00    -0.463 OA
ENDBRANCH   4  16
BRANCH   2  21
ATOM     21  N   UNL     1      -1.180   1.061   2.284  0.00  0.00    -0.356 N 
ATOM     22  H   UNL     1      -1.168   1.632   3.069  0.00  0.00    +0.142 HD
ATOM     23  H   UNL     1      -0.475   1.133   1.622  0.00  0.00    +0.142 HD
ENDBRANCH   2  21
BRANCH   1  24
ATOM     24  C   UNL     1      -3.889   1.481   3.419  0.00  0.00    +0.348 C 
ATOM     25  O   UNL     1      -3.118   2.389   3.671  0.00  0.00    -0.244 OA
BRANCH  24  26
ATOM     26  O   UNL     1      -5.161   1.531   3.870  0.00  0.00    -0.456 OA
BRANCH  26  27
ATOM     27  C   UNL     1      -5.533   2.679   4.636  0.00  0.00    +0.268 C 
BRANCH  27  31
ATOM     28  C   UNL     1      -9.627   2.342   5.809  0.00  0.00    +0.000 A 
ATOM     29  C   UNL     1      -8.631   1.835   6.622  0.00  0.00    +0.000 A 
ATOM     30  C   UNL     1      -7.306   1.944   6.243  0.00  0.00    +0.007 A 
ATOM     31  C   UNL     1      -6.977   2.560   5.050  0.00  0.00    -0.010 A 
ATOM     32  C   UNL     1      -7.973   3.072   4.239  0.00  0.00    +0.007 A 
ATOM     33  C   UNL     1      -9.298   2.959   4.616  0.00  0.00    +0.000 A 
ENDBRANCH  27  31
ENDBRANCH  26  27
ENDBRANCH  24  26
ENDBRANCH   1  24
TORSDOF 7
