REMARK  Name = ZINC13040217
REMARK  7 active torsions:
REMARK  status: ('A' for Active; 'I' for Inactive)
REMARK    1  A    between atoms: C_1  and  C_2
REMARK    2  A    between atoms: C_8  and  N_10
REMARK    3  A    between atoms: C_11  and  C_13
REMARK    4  A    between atoms: C_13  and  N_14
REMARK    5  A    between atoms: N_17  and  S_20
REMARK    6  A    between atoms: S_20  and  C_23
REMARK    7  A    between atoms: C_26  and  C_29
REMARK                            x       y       z     vdW  Elec       q    Type
REMARK                         _______ _______ _______ _____ _____    ______ ____
ROOT
ATOM      1  N   UNL     1       4.723   0.698   3.753  0.00  0.00    -0.291 NA
ATOM      2  C   UNL     1       4.846  -0.652   4.317  0.00  0.00    +0.102 C 
ATOM      3  C   UNL     1       5.209  -0.551   5.802  0.00  0.00    +0.125 C 
ATOM      4  N   UNL     1       6.409   0.289   5.933  0.00  0.00    -0.174 NA
ATOM      5  C   UNL     1       6.413   1.605   5.275  0.00  0.00    +0.125 C 
ATOM      6  C   UNL     1       6.002   1.418   3.811  0.00  0.00    +0.102 C 
ENDROOT
BRANCH   4   7
ATOM      7  S   UNL     1       7.722  -0.232   6.798  0.00  0.00    +0.061 S 
ATOM      8  O   UNL     1       8.428   0.931   7.206  0.00  0.00    -0.153 OA
ATOM      9  O   UNL     1       7.240  -1.195   7.726  0.00  0.00    -0.153 OA
BRANCH   7  10
ATOM     10  C   UNL     1       8.774  -1.095   5.679  0.00  0.00    +0.105 A 
ATOM     11  C   UNL     1       8.613  -2.454   5.486  0.00  0.00    +0.029 A 
ATOM     12  C   UNL     1       9.438  -3.130   4.607  0.00  0.00    +0.006 A 
ATOM     13  C   UNL     1      10.426  -2.447   3.922  0.00  0.00    -0.044 A 
ATOM     14  C   UNL     1      10.587  -1.088   4.115  0.00  0.00    +0.006 A 
ATOM     15  C   UNL     1       9.758  -0.411   4.990  0.00  0.00    +0.029 A 
BRANCH  13  16
ATOM     16  C   UNL     1      11.327  -3.185   2.965  0.00  0.00    +0.019 C 
ATOM     17  C   UNL     1      12.780  -3.046   3.424  0.00  0.00    +0.008 C 
ATOM     18  C   UNL     1      13.695  -3.795   2.452  0.00  0.00    +0.001 C 
ATOM     19  C   UNL     1      13.543  -3.202   1.050  0.00  0.00    +0.000 C 
ATOM     20  C   UNL     1      12.090  -3.341   0.592  0.00  0.00    +0.001 C 
ATOM     21  C   UNL     1      11.175  -2.593   1.563  0.00  0.00    +0.008 C 
ENDBRANCH  13  16
ENDBRANCH   7  10
ENDBRANCH   4   7
BRANCH   1  22
ATOM     22  C   UNL     1       4.209   0.649   2.377  0.00  0.00    +0.180 C 
BRANCH  22  24
ATOM     23  N   UNL     1       2.116  -0.004   1.231  0.00  0.00    -0.311 N 
ATOM     24  C   UNL     1       2.795   0.128   2.388  0.00  0.00    +0.227 C 
ATOM     25  O   UNL     1       2.268  -0.174   3.438  0.00  0.00    -0.274 OA
ATOM     26  H   UNL     1       2.538   0.237   0.392  0.00  0.00    +0.149 HD
BRANCH  23  33
ATOM     27  C   UNL     1      -0.019   1.526   0.010  0.00  0.00    +0.009 C 
ATOM     28  C   UNL     1       0.002  -0.004   0.002  0.00  0.00    +0.006 C 
ATOM     29  C   UNL     1      -1.433  -0.534   0.013  0.00  0.00    +0.005 C 
ATOM     30  C   UNL     1      -1.413  -2.063   0.004  0.00  0.00    +0.000 C 
ATOM     31  C   UNL     1      -0.673  -2.570   1.244  0.00  0.00    +0.002 C 
ATOM     32  C   UNL     1       0.763  -2.041   1.233  0.00  0.00    +0.022 C 
ATOM     33  C   UNL     1       0.742  -0.511   1.242  0.00  0.00    +0.076 C 
ENDBRANCH  23  33
ENDBRANCH  22  24
ENDBRANCH   1  22
TORSDOF 6
