REMARK  Name = ZINC63658925
REMARK  11 active torsions:
REMARK  status: ('A' for Active; 'I' for Inactive)
REMARK    1  A    between atoms: C_1  and  C_2
REMARK    2  A    between atoms: C_4  and  C_13
REMARK    3  A    between atoms: C_13  and  C_14
REMARK    4  A    between atoms: C_14  and  N_15
REMARK    5  A    between atoms: N_15  and  C_16
REMARK    6  A    between atoms: N_15  and  C_22
REMARK    7  A    between atoms: C_16  and  C_17
REMARK    8  A    between atoms: C_22  and  N_24
REMARK    9  A    between atoms: N_24  and  C_25
REMARK   10  A    between atoms: C_29  and  O_31
REMARK   11  A    between atoms: O_31  and  C_32
REMARK                            x       y       z     vdW  Elec       q    Type
REMARK                         _______ _______ _______ _____ _____    ______ ____
ROOT
ATOM      1  N   UNL     1      -5.008  -1.011  -1.457  0.00  0.00    -0.305 N 
ENDROOT
BRANCH   1   2
ATOM      2  C   UNL     1      -5.825   0.051  -1.313  0.00  0.00    +0.138 C 
ATOM      3  S   UNL     1      -5.849   0.919   0.162  0.00  0.00    -0.018 S 
BRANCH   2   4
ATOM      4  N   UNL     1      -6.622   0.430  -2.332  0.00  0.00    -0.297 N 
ATOM      5  H   UNL     1      -6.551  -0.010  -3.193  0.00  0.00    +0.154 HD
BRANCH   4   6
ATOM      6  C   UNL     1      -7.552   1.459  -2.146  0.00  0.00    +0.036 A 
ATOM      7  C   UNL     1      -7.737   2.416  -3.136  0.00  0.00    +0.023 A 
ATOM      8  C   UNL     1      -8.655   3.432  -2.953  0.00  0.00    +0.005 A 
ATOM      9  C   UNL     1      -9.393   3.498  -1.786  0.00  0.00    +0.046 A 
ATOM     10  C   UNL     1      -9.212   2.545  -0.793  0.00  0.00    +0.122 A 
ATOM     11  C   UNL     1      -8.295   1.521  -0.976  0.00  0.00    +0.069 A 
BRANCH  10  12
ATOM     12  O   UNL     1      -9.937   2.611   0.354  0.00  0.00    -0.495 OA
ATOM     13  C   UNL     1     -10.868   3.689   0.471  0.00  0.00    +0.277 C 
ENDBRANCH  10  12
ENDBRANCH   4   6
ENDBRANCH   2   4
ENDBRANCH   1   2
BRANCH   1  14
ATOM     14  C   UNL     1      -4.141  -1.423  -0.350  0.00  0.00    +0.111 C 
BRANCH  14  15
ATOM     15  C   UNL     1      -2.797  -0.700  -0.458  0.00  0.00    +0.052 C 
BRANCH  15  18
ATOM     16  C   UNL     1      -0.479   0.860   1.185  0.00  0.00    +0.035 C 
ATOM     17  C   UNL     1      -0.495  -0.653   0.954  0.00  0.00    +0.103 C 
ATOM     18  C   UNL     1      -1.906  -1.123   0.680  0.00  0.00    -0.037 C 
ATOM     19  C   UNL     1      -2.205  -2.002   1.665  0.00  0.00    +0.001 A 
ATOM     20  C   UNL     1      -3.405  -2.795   1.958  0.00  0.00    +0.030 A 
ATOM     21  C   UNL     1      -3.407  -3.605   3.042  0.00  0.00    +0.042 A 
ATOM     22  C   UNL     1      -2.294  -3.705   3.889  0.00  0.00    +0.022 A 
ATOM     23  C   UNL     1      -1.157  -3.008   3.685  0.00  0.00    +0.027 A 
ATOM     24  C   UNL     1      -1.044  -2.126   2.575  0.00  0.00    +0.043 A 
ATOM     25  N   UNL     1      -0.063  -1.354   2.168  0.00  0.00    -0.378 N 
ATOM     26 CL   UNL     1      -4.825  -4.544   3.392  0.00  0.00    -0.084 Cl
ATOM     27  H   UNL     1       0.801  -1.262   2.598  0.00  0.00    +0.160 HD
ENDBRANCH  15  18
ENDBRANCH  14  15
ENDBRANCH   1  14
BRANCH   1  28
ATOM     28  C   UNL     1      -4.987  -1.754  -2.719  0.00  0.00    +0.181 C 
BRANCH  28  29
ATOM     29  C   UNL     1      -6.006  -2.863  -2.666  0.00  0.00    +0.122 A 
ATOM     30  C   UNL     1      -7.292  -2.769  -3.053  0.00  0.00    +0.046 A 
ATOM     31  C   UNL     1      -7.879  -4.036  -2.832  0.00  0.00    +0.041 A 
ATOM     32  C   UNL     1      -6.918  -4.828  -2.323  0.00  0.00    +0.195 A 
ATOM     33  O   UNL     1      -5.784  -4.114  -2.231  0.00  0.00    -0.466 OA
ENDBRANCH  28  29
ENDBRANCH   1  28
TORSDOF 9
