REMARK  Name = ZINC06871541
REMARK  5 active torsions:
REMARK  status: ('A' for Active; 'I' for Inactive)
REMARK    1  A    between atoms: C_1  and  N_2
REMARK    2  A    between atoms: N_2  and  C_3
REMARK    3  A    between atoms: N_2  and  C_4
REMARK    4  A    between atoms: C_7  and  C_10
REMARK    5  A    between atoms: C_17  and  C_29
REMARK                            x       y       z     vdW  Elec       q    Type
REMARK                         _______ _______ _______ _____ _____    ______ ____
ROOT
ATOM      1  C   UNL     1       2.106   1.788   1.244  0.00  0.00    +0.116 C 
ATOM      2  C   UNL     1       1.284   2.135   0.001  0.00  0.00    +0.124 C 
ATOM      3  C   UNL     1       1.043   3.623  -0.025  0.00  0.00    +0.145 C 
ATOM      4  O   UNL     1       1.830   4.365  -0.561  0.00  0.00    -0.297 OA
ATOM      5  C   UNL     1      -0.205   4.166   0.634  0.00  0.00    +0.088 C 
ATOM      6  C   UNL     1      -1.407   3.453   0.005  0.00  0.00    +0.057 C 
ATOM      7  C   UNL     1      -1.190   1.971   0.033  0.00  0.00    +0.001 C 
ATOM      8  C   UNL     1      -0.017   1.385   0.013  0.00  0.00    +0.017 C 
ATOM      9  N   UNL     1       0.008  -0.015   0.009  0.00  0.00    -0.316 N 
ATOM     10  C   UNL     1       0.249  -0.700   1.205  0.00  0.00    +0.052 A 
ATOM     11  C   UNL     1      -0.701  -1.526   1.774  0.00  0.00    +0.025 A 
ATOM     12  C   UNL     1      -0.413  -2.199   2.949  0.00  0.00    +0.002 A 
ATOM     13  C   UNL     1       0.822  -2.049   3.552  0.00  0.00    +0.002 A 
ATOM     14  C   UNL     1       1.777  -1.218   2.994  0.00  0.00    +0.025 A 
ATOM     15  C   UNL     1       1.494  -0.533   1.826  0.00  0.00    +0.049 A 
ATOM     16  N   UNL     1       2.415   0.355   1.260  0.00  0.00    -0.335 N 
ATOM     17  H   UNL     1      -0.141  -0.505  -0.815  0.00  0.00    +0.152 HD
ATOM     18  H   UNL     1       3.247   0.028   0.884  0.00  0.00    +0.147 HD
ENDROOT
BRANCH   1  22
ATOM     19  C   UNL     1      -0.125   2.798   4.746  0.00  0.00    +0.029 A 
ATOM     20  C   UNL     1      -0.672   1.947   3.794  0.00  0.00    +0.023 A 
ATOM     21  C   UNL     1       0.052   1.623   2.663  0.00  0.00    +0.007 A 
ATOM     22  C   UNL     1       1.319   2.144   2.478  0.00  0.00    -0.026 A 
ATOM     23  C   UNL     1       1.869   2.986   3.428  0.00  0.00    +0.007 A 
ATOM     24  C   UNL     1       1.148   3.319   4.558  0.00  0.00    +0.023 A 
BRANCH  19  26
ATOM     25  C   UNL     1      -2.198   2.577   6.088  0.00  0.00    +0.129 C 
ATOM     26  N   UNL     1      -0.855   3.128   5.891  0.00  0.00    -0.336 N 
ATOM     27  C   UNL     1      -0.277   4.025   6.894  0.00  0.00    +0.129 C 
ENDBRANCH  19  26
ENDBRANCH   1  22
BRANCH   6  28
ATOM     28  C   UNL     1      -2.652   3.788   0.785  0.00  0.00    -0.003 A 
ATOM     29  C   UNL     1      -3.784   4.401   0.364  0.00  0.00    +0.012 A 
ATOM     30  C   UNL     1      -4.813   4.603   1.265  0.00  0.00    +0.008 A 
ATOM     31  C   UNL     1      -4.654   4.191   2.546  0.00  0.00    +0.045 A 
ATOM     32  S   UNL     1      -3.015   3.485   2.507  0.00  0.00    -0.101 S 
ENDBRANCH   6  28
TORSDOF 3
