REMARK  Name = ZINC59645299
REMARK  9 active torsions:
REMARK  status: ('A' for Active; 'I' for Inactive)
REMARK    1  A    between atoms: C_1  and  C_2
REMARK    2  A    between atoms: C_2  and  O_3
REMARK    3  A    between atoms: O_3  and  C_4
REMARK    4  A    between atoms: C_5  and  O_23
REMARK    5  A    between atoms: C_7  and  C_11
REMARK    6  A    between atoms: N_12  and  N_13
REMARK    7  A    between atoms: C_14  and  C_16
REMARK    8  A    between atoms: C_16  and  C_17
REMARK    9  A    between atoms: O_23  and  C_24
REMARK                            x       y       z     vdW  Elec       q    Type
REMARK                         _______ _______ _______ _____ _____    ______ ____
ROOT
ATOM      1  C   UNL     1       1.104  -6.016  -1.847  0.00  0.00    +0.138 C 
ATOM      2  N   UNL     1       0.177  -6.666  -2.482  0.00  0.00    -0.188 NA
ENDROOT
BRANCH   1   6
ATOM      3  C   UNL     1       0.777  -1.810  -1.336  0.00  0.00    +0.176 A 
ATOM      4  C   UNL     1       1.879  -2.488  -0.821  0.00  0.00    +0.163 A 
ATOM      5  C   UNL     1       1.989  -3.856  -0.985  0.00  0.00    +0.059 A 
ATOM      6  C   UNL     1       0.992  -4.557  -1.668  0.00  0.00    -0.001 A 
ATOM      7  C   UNL     1      -0.111  -3.872  -2.183  0.00  0.00    +0.028 A 
ATOM      8  C   UNL     1      -0.216  -2.507  -2.010  0.00  0.00    +0.064 A 
ATOM      9 BR   UNL     1      -1.714  -1.581  -2.700  0.00  0.00    -0.046 Br
BRANCH   4  10
ATOM     10  O   UNL     1       2.848  -1.803  -0.156  0.00  0.00    -0.491 OA
ATOM     11  C   UNL     1       3.951  -2.562   0.346  0.00  0.00    +0.277 C 
ENDBRANCH   4  10
BRANCH   3  12
ATOM     12  O   UNL     1       0.671  -0.465  -1.174  0.00  0.00    -0.487 OA
BRANCH  12  14
ATOM     13  C   UNL     1      -0.019   1.526   0.010  0.00  0.00    +0.048 C 
ATOM     14  C   UNL     1       0.002  -0.004   0.002  0.00  0.00    +0.226 C 
ENDBRANCH  12  14
ENDBRANCH   3  12
ENDBRANCH   1   6
BRANCH   2  15
ATOM     15  N   UNL     1       0.284  -8.052  -2.651  0.00  0.00    -0.207 N 
ATOM     16  C   UNL     1      -0.678  -8.727  -3.311  0.00  0.00    +0.238 C 
ATOM     17  O   UNL     1      -1.637  -8.133  -3.758  0.00  0.00    -0.274 OA
ATOM     18  H   UNL     1       1.051  -8.527  -2.294  0.00  0.00    +0.177 HD
BRANCH  16  19
ATOM     19  C   UNL     1      -0.564 -10.218  -3.493  0.00  0.00    +0.153 C 
BRANCH  19  20
ATOM     20  C   UNL     1      -1.759 -10.724  -4.258  0.00  0.00    +0.059 A 
ATOM     21  C   UNL     1      -1.618 -11.448  -5.394  0.00  0.00    +0.072 A 
ATOM     22  S   UNL     1      -3.327 -11.744  -5.816  0.00  0.00    -0.061 S 
ATOM     23  C   UNL     1      -4.031 -10.928  -4.523  0.00  0.00    +0.156 A 
ATOM     24  N   UNL     1      -2.993 -10.486  -3.846  0.00  0.00    -0.230 NA
ATOM     25  N   UNL     1      -5.378 -10.766  -4.237  0.00  0.00    -0.338 N 
ATOM     26  H   UNL     1      -6.048 -11.152  -4.824  0.00  0.00    +0.144 HD
ATOM     27  H   UNL     1      -5.650 -10.268  -3.451  0.00  0.00    +0.144 HD
ENDBRANCH  19  20
ENDBRANCH  16  19
ENDBRANCH   2  15
TORSDOF 7
