REMARK  Name = ZINC10071823
REMARK  9 active torsions:
REMARK  status: ('A' for Active; 'I' for Inactive)
REMARK    1  A    between atoms: C_2  and  C_3
REMARK    2  A    between atoms: C_3  and  N_4
REMARK    3  A    between atoms: C_7  and  C_10
REMARK    4  A    between atoms: C_10  and  O_12
REMARK    5  A    between atoms: O_12  and  C_13
REMARK    6  A    between atoms: C_13  and  C_15
REMARK    7  A    between atoms: C_13  and  C_21
REMARK    8  A    between atoms: N_23  and  C_24
REMARK    9  A    between atoms: C_28  and  N_30
REMARK                            x       y       z     vdW  Elec       q    Type
REMARK                         _______ _______ _______ _____ _____    ______ ____
ROOT
ATOM      1  C   UNL     1       1.107  -6.191  -1.857  0.00  0.00    +0.292 C 
ENDROOT
BRANCH   1   2
ATOM      2  C   UNL     1      -0.082  -6.694  -2.636  0.00  0.00    +0.002 A 
ATOM      3  C   UNL     1      -1.338  -6.169  -2.396  0.00  0.00    +0.008 A 
ATOM      4  C   UNL     1      -2.427  -6.627  -3.114  0.00  0.00    +0.000 A 
ATOM      5  C   UNL     1      -2.261  -7.617  -4.065  0.00  0.00    +0.000 A 
ATOM      6  C   UNL     1      -1.006  -8.144  -4.302  0.00  0.00    +0.000 A 
ATOM      7  C   UNL     1       0.084  -7.683  -3.587  0.00  0.00    +0.008 A 
ENDBRANCH   1   2
BRANCH   1   8
ATOM      8  C   UNL     1       1.199  -6.932  -0.549  0.00  0.00    +0.263 C 
ATOM      9  O   UNL     1       1.049  -6.337   0.497  0.00  0.00    -0.271 OA
ATOM     10  N   UNL     1       1.450  -8.257  -0.541  0.00  0.00    -0.282 N 
ATOM     11  H   UNL     1       1.503  -8.745  -1.377  0.00  0.00    +0.155 HD
BRANCH  10  12
ATOM     12  C   UNL     1       1.632  -8.927   0.674  0.00  0.00    +0.036 A 
ATOM     13  C   UNL     1       2.533  -9.980   0.759  0.00  0.00    +0.025 A 
ATOM     14  C   UNL     1       2.715 -10.637   1.961  0.00  0.00    +0.024 A 
ATOM     15  C   UNL     1       1.991 -10.253   3.077  0.00  0.00    +0.071 A 
ATOM     16  C   UNL     1       1.088  -9.208   2.993  0.00  0.00    +0.146 A 
ATOM     17  C   UNL     1       0.907  -8.544   1.795  0.00  0.00    +0.057 A 
ATOM     18 CL   UNL     1       2.217 -11.085   4.584  0.00  0.00    -0.081 Cl
BRANCH  16  19
ATOM     19  N   UNL     1       0.316  -8.801   4.188  0.00  0.00    +0.058 N 
ATOM     20  O   UNL     1      -0.478  -7.880   4.116  0.00  0.00    -0.126 OA
ATOM     21  O   UNL     1       0.476  -9.386   5.245  0.00  0.00    -0.126 OA
ENDBRANCH  16  19
ENDBRANCH  10  12
ENDBRANCH   1   8
BRANCH   1  22
ATOM     22  O   UNL     1       0.950  -4.771  -1.599  0.00  0.00    -0.442 OA
BRANCH  22  23
ATOM     23  C   UNL     1       1.453  -3.922  -2.519  0.00  0.00    +0.359 C 
ATOM     24  O   UNL     1       2.007  -4.358  -3.509  0.00  0.00    -0.243 OA
BRANCH  23  28
ATOM     25  N   UNL     1       0.017  -0.001   0.001  0.00  0.00    -0.320 N 
ATOM     26  C   UNL     1       0.608  -0.682  -1.051  0.00  0.00    +0.159 A 
ATOM     27  N   UNL     1       0.730  -1.981  -1.236  0.00  0.00    -0.218 NA
ATOM     28  C   UNL     1       1.331  -2.470  -2.323  0.00  0.00    +0.157 A 
ATOM     29  C   UNL     1       1.839  -1.597  -3.253  0.00  0.00    +0.083 A 
ATOM     30  S   UNL     1       1.411  -0.030  -2.507  0.00  0.00    -0.060 S 
ATOM     31  H   UNL     1      -0.385  -0.494   0.733  0.00  0.00    +0.148 HD
BRANCH  25  32
ATOM     32  C   UNL     1      -0.001   1.464   0.007  0.00  0.00    +0.130 C 
BRANCH  32  34
ATOM     33  C   UNL     1      -0.088   2.788   2.056  0.00  0.00    +0.005 C 
ATOM     34  C   UNL     1      -0.696   1.952   1.251  0.00  0.00    -0.016 C 
ENDBRANCH  32  34
ENDBRANCH  25  32
ENDBRANCH  23  28
ENDBRANCH  22  23
ENDBRANCH   1  22
TORSDOF 9
