REMARK  Name = ZINC08518549
REMARK  2 active torsions:
REMARK  status: ('A' for Active; 'I' for Inactive)
REMARK    1  A    between atoms: C_4  and  C_7
REMARK    2  A    between atoms: C_12  and  C_18
REMARK                            x       y       z     vdW  Elec       q    Type
REMARK                         _______ _______ _______ _____ _____    ______ ____
ROOT
ATOM      1  C   UNL     1       3.711  -0.707  -0.038  0.00  0.00    +0.032 C 
ATOM      2  C   UNL     1       3.791  -1.586  -1.288  0.00  0.00    +0.060 C 
ATOM      3  C   UNL     1       5.086  -2.359  -1.282  0.00  0.00    +0.021 C 
ATOM      4  C   UNL     1       5.661  -2.721  -0.113  0.00  0.00    +0.037 C 
ATOM      5  C   UNL     1       6.958  -3.501  -0.164  0.00  0.00    +0.140 C 
ATOM      6  N   UNL     1       7.500  -3.805  -1.500  0.00  0.00    -0.288 N 
ATOM      7  C   UNL     1       6.815  -3.375  -2.578  0.00  0.00    +0.304 C 
ATOM      8  O   UNL     1       7.252  -3.619  -3.686  0.00  0.00    -0.252 OA
ATOM      9  N   UNL     1       5.671  -2.690  -2.472  0.00  0.00    -0.273 N 
ATOM     10  C   UNL     1       5.095  -2.394   1.125  0.00  0.00    +0.163 C 
ATOM     11  O   UNL     1       5.643  -2.751   2.149  0.00  0.00    -0.292 OA
ATOM     12  C   UNL     1       3.817  -1.599   1.204  0.00  0.00    +0.088 C 
ATOM     13  H   UNL     1       8.327  -4.301  -1.601  0.00  0.00    +0.151 HD
ATOM     14  H   UNL     1       5.229  -2.411  -3.290  0.00  0.00    +0.156 HD
ENDROOT
BRANCH   1  18
ATOM     15  C   UNL     1      -0.017   1.378   0.010  0.00  0.00    +0.000 A 
ATOM     16  C   UNL     1       1.171   2.086   0.002  0.00  0.00    +0.000 A 
ATOM     17  C   UNL     1       2.377   1.411  -0.013  0.00  0.00    +0.004 A 
ATOM     18  C   UNL     1       2.396   0.029  -0.020  0.00  0.00    -0.044 A 
ATOM     19  C   UNL     1       1.208  -0.679  -0.012  0.00  0.00    +0.004 A 
ATOM     20  C   UNL     1       0.002  -0.004   0.002  0.00  0.00    +0.000 A 
ENDBRANCH   1  18
BRANCH   5  21
ATOM     21  C   UNL     1       6.745  -4.806   0.558  0.00  0.00    -0.023 A 
ATOM     22  C   UNL     1       6.113  -5.856  -0.082  0.00  0.00    +0.006 A 
ATOM     23  C   UNL     1       5.917  -7.053   0.580  0.00  0.00    +0.000 A 
ATOM     24  C   UNL     1       6.354  -7.201   1.883  0.00  0.00    +0.000 A 
ATOM     25  C   UNL     1       6.987  -6.152   2.524  0.00  0.00    +0.000 A 
ATOM     26  C   UNL     1       7.187  -4.956   1.859  0.00  0.00    +0.006 A 
ENDBRANCH   5  21
TORSDOF 2
