REMARK  Name = ZINC60037601
REMARK  7 active torsions:
REMARK  status: ('A' for Active; 'I' for Inactive)
REMARK    1  A    between atoms: C_7  and  C_11
REMARK    2  A    between atoms: C_14  and  S_23
REMARK    3  A    between atoms: N_15  and  C_16
REMARK    4  A    between atoms: C_16  and  C_17
REMARK    5  A    between atoms: S_23  and  C_24
REMARK    6  A    between atoms: C_24  and  C_25
REMARK    7  A    between atoms: C_25  and  C_26
REMARK                            x       y       z     vdW  Elec       q    Type
REMARK                         _______ _______ _______ _____ _____    ______ ____
ROOT
ATOM      1  C   UNL     1       0.693  -3.288   0.173  0.00  0.00    +0.167 A 
ATOM      2  N   UNL     1      -0.620  -3.235   0.193  0.00  0.00    -0.128 NA
ATOM      3  N   UNL     1      -1.110  -4.394  -0.066  0.00  0.00    -0.122 NA
ATOM      4  C   UNL     1      -0.143  -5.259  -0.267  0.00  0.00    +0.192 A 
ATOM      5  N   UNL     1       1.039  -4.585  -0.128  0.00  0.00    -0.300 N 
ENDROOT
BRANCH   1  12
ATOM      6  C   UNL     1       0.897   0.011   3.481  0.00  0.00    +0.001 A 
ATOM      7  C   UNL     1       1.970   0.875   3.308  0.00  0.00    +0.002 A 
ATOM      8  C   UNL     1       2.838   0.714   2.250  0.00  0.00    +0.026 A 
ATOM      9  C   UNL     1       2.640  -0.325   1.345  0.00  0.00    +0.047 A 
ATOM     10  C   UNL     1       1.552  -1.196   1.526  0.00  0.00    +0.010 A 
ATOM     11  C   UNL     1       0.685  -1.015   2.603  0.00  0.00    +0.011 A 
ATOM     12  C   UNL     1       1.621  -2.167   0.421  0.00  0.00    +0.044 A 
ATOM     13  C   UNL     1       2.704  -1.831  -0.325  0.00  0.00    +0.095 A 
ATOM     14  N   UNL     1       3.315  -0.737   0.217  0.00  0.00    -0.360 N 
ATOM     15  H   UNL     1       4.110  -0.311  -0.140  0.00  0.00    +0.165 HD
ENDBRANCH   1  12
BRANCH   5  16
ATOM     16  C   UNL     1       2.391  -5.131  -0.268  0.00  0.00    +0.157 C 
BRANCH  16  17
ATOM     17  C   UNL     1       2.928  -5.523   1.111  0.00  0.00    +0.138 C 
ATOM     18  C   UNL     1       4.396  -5.986   0.989  0.00  0.00    +0.035 C 
ATOM     19  C   UNL     1       4.449  -7.178   1.983  0.00  0.00    +0.031 C 
ATOM     20  C   UNL     1       3.022  -7.761   1.820  0.00  0.00    +0.160 C 
ATOM     21  O   UNL     1       2.168  -6.619   1.635  0.00  0.00    -0.375 OA
ENDBRANCH  16  17
ENDBRANCH   5  16
BRANCH   4  22
ATOM     22  S   UNL     1      -0.333  -6.968  -0.652  0.00  0.00    -0.086 S 
BRANCH  22  23
ATOM     23  C   UNL     1      -2.131  -7.211  -0.697  0.00  0.00    +0.085 C 
BRANCH  23  24
ATOM     24  C   UNL     1      -2.440  -8.673  -1.025  0.00  0.00    +0.085 C 
BRANCH  24  25
ATOM     25  C   UNL     1      -3.933  -8.874  -1.063  0.00  0.00    +0.111 A 
ATOM     26  N   UNL     1      -4.409 -10.117  -1.335  0.00  0.00    -0.310 N 
ATOM     27  H   UNL     1      -3.788 -10.844  -1.499  0.00  0.00    +0.170 HD
ATOM     28  C   UNL     1      -5.741 -10.351  -1.380  0.00  0.00    +0.259 A 
ATOM     29  O   UNL     1      -6.181 -11.459  -1.622  0.00  0.00    -0.267 OA
ATOM     30  C   UNL     1      -6.636  -9.212  -1.124  0.00  0.00    +0.065 A 
ATOM     31  C   UNL     1      -8.023  -9.346  -1.147  0.00  0.00    +0.015 A 
ATOM     32  C   UNL     1      -8.815  -8.246  -0.901  0.00  0.00    +0.001 A 
ATOM     33  C   UNL     1      -8.242  -7.009  -0.631  0.00  0.00    +0.002 A 
ATOM     34  C   UNL     1      -6.875  -6.856  -0.604  0.00  0.00    +0.028 A 
ATOM     35  C   UNL     1      -6.051  -7.957  -0.850  0.00  0.00    +0.078 A 
ATOM     36  N   UNL     1      -4.698  -7.852  -0.828  0.00  0.00    -0.234 NA
ENDBRANCH  24  25
ENDBRANCH  23  24
ENDBRANCH  22  23
ENDBRANCH   4  22
TORSDOF 7
