REMARK  Name = ZINC04724547
REMARK  10 active torsions:
REMARK  status: ('A' for Active; 'I' for Inactive)
REMARK    1  A    between atoms: C_1  and  C_2
REMARK    2  A    between atoms: C_2  and  C_22
REMARK    3  A    between atoms: N_3  and  N_4
REMARK    4  A    between atoms: C_5  and  C_7
REMARK    5  A    between atoms: C_10  and  C_12
REMARK    6  A    between atoms: C_15  and  C_18
REMARK    7  A    between atoms: C_18  and  C_19
REMARK    8  A    between atoms: C_18  and  C_20
REMARK    9  A    between atoms: C_18  and  C_21
REMARK   10  A    between atoms: C_23  and  C_24
REMARK                            x       y       z     vdW  Elec       q    Type
REMARK                         _______ _______ _______ _____ _____    ______ ____
ROOT
ATOM      1  N   UNL     1      -4.209   5.036   0.378  0.00  0.00    -0.207 N 
ATOM      2  C   UNL     1      -5.464   4.593   0.591  0.00  0.00    +0.236 C 
ATOM      3  O   UNL     1      -6.377   5.385   0.695  0.00  0.00    -0.274 OA
ATOM      4  H   UNL     1      -3.478   4.403   0.295  0.00  0.00    +0.177 HD
ENDROOT
BRANCH   1   7
ATOM      5  C   UNL     1      -2.455   8.324   0.190  0.00  0.00    +0.067 C 
ATOM      6  C   UNL     1      -2.735   6.844   0.170  0.00  0.00    +0.056 C 
ATOM      7  N   UNL     1      -3.958   6.411   0.278  0.00  0.00    -0.185 NA
BRANCH   6   8
ATOM      8  C   UNL     1      -1.666   5.922   0.034  0.00  0.00    +0.025 C 
ATOM      9  C   UNL     1      -0.392   6.364   0.019  0.00  0.00    +0.010 C 
BRANCH   9  10
ATOM     10  C   UNL     1       0.721   5.402   0.002  0.00  0.00    -0.021 A 
ATOM     11  C   UNL     1       0.460   4.028   0.000  0.00  0.00    +0.012 A 
ATOM     12  C   UNL     1       1.504   3.128  -0.016  0.00  0.00    +0.050 A 
ATOM     13  C   UNL     1       2.816   3.581  -0.031  0.00  0.00    +0.166 A 
ATOM     14  C   UNL     1       3.085   4.950  -0.030  0.00  0.00    +0.167 A 
ATOM     15  C   UNL     1       2.043   5.858  -0.008  0.00  0.00    +0.057 A 
ATOM     16  O   UNL     1       4.438   5.128  -0.046  0.00  0.00    -0.453 OA
ATOM     17  C   UNL     1       4.987   3.867  -0.470  0.00  0.00    +0.466 C 
ATOM     18  O   UNL     1       4.002   2.905  -0.048  0.00  0.00    -0.453 OA
ENDBRANCH   9  10
ENDBRANCH   6   8
ENDBRANCH   1   7
BRANCH   2  19
ATOM     19  C   UNL     1      -5.733   3.115   0.699  0.00  0.00    +0.085 C 
ATOM     20  C   UNL     1      -6.149   2.570   2.067  0.00  0.00    +0.022 C 
ATOM     21  C   UNL     1      -7.179   2.675   0.940  0.00  0.00    +0.032 C 
BRANCH  21  22
ATOM     22  C   UNL     1      -8.224   3.755   1.051  0.00  0.00    -0.044 A 
ATOM     23  C   UNL     1      -8.129   4.710   2.045  0.00  0.00    +0.004 A 
ATOM     24  C   UNL     1      -9.085   5.703   2.144  0.00  0.00    +0.004 A 
ATOM     25  C   UNL     1     -10.143   5.735   1.254  0.00  0.00    -0.042 A 
ATOM     26  C   UNL     1     -10.242   4.776   0.263  0.00  0.00    +0.004 A 
ATOM     27  C   UNL     1      -9.282   3.786   0.161  0.00  0.00    +0.004 A 
BRANCH  25  28
ATOM     28  C   UNL     1     -11.189   6.814   1.365  0.00  0.00    -0.013 C 
ATOM     29  C   UNL     1     -12.558   6.176   1.603  0.00  0.00    +0.015 C 
ATOM     30  C   UNL     1     -10.846   7.738   2.535  0.00  0.00    +0.015 C 
ATOM     31  C   UNL     1     -11.223   7.626   0.068  0.00  0.00    +0.015 C 
ENDBRANCH  25  28
ENDBRANCH  21  22
ENDBRANCH   2  19
TORSDOF 6
