REMARK  Name = ZINC52771994
REMARK  10 active torsions:
REMARK  status: ('A' for Active; 'I' for Inactive)
REMARK    1  A    between atoms: C_1  and  C_2
REMARK    2  A    between atoms: C_2  and  O_3
REMARK    3  A    between atoms: O_3  and  C_4
REMARK    4  A    between atoms: C_11  and  C_13
REMARK    5  A    between atoms: C_13  and  C_15
REMARK    6  A    between atoms: C_13  and  N_16
REMARK    7  A    between atoms: C_17  and  C_19
REMARK    8  A    between atoms: C_24  and  S_25
REMARK    9  A    between atoms: S_25  and  C_26
REMARK   10  A    between atoms: C_26  and  C_27
REMARK                            x       y       z     vdW  Elec       q    Type
REMARK                         _______ _______ _______ _____ _____    ______ ____
ROOT
ATOM      1  N   UNL     1       2.579  -1.306  -6.341  0.00  0.00    -0.302 N 
ATOM      2  C   UNL     1       2.691  -1.184  -7.678  0.00  0.00    +0.246 C 
ATOM      3  O   UNL     1       3.324  -2.006  -8.313  0.00  0.00    -0.270 OA
ATOM      4  H   UNL     1       2.074  -0.651  -5.834  0.00  0.00    +0.150 HD
ENDROOT
BRANCH   2   5
ATOM      5  C   UNL     1       2.045  -0.055  -8.372  0.00  0.00    +0.050 A 
ATOM      6  C   UNL     1       1.321   0.895  -7.646  0.00  0.00    +0.014 A 
ATOM      7  C   UNL     1       0.720   1.947  -8.300  0.00  0.00    +0.001 A 
ATOM      8  C   UNL     1       0.828   2.071  -9.676  0.00  0.00    +0.001 A 
ATOM      9  C   UNL     1       1.538   1.143 -10.408  0.00  0.00    +0.015 A 
ATOM     10  C   UNL     1       2.158   0.076  -9.765  0.00  0.00    +0.020 A 
BRANCH  10  11
ATOM     11  S   UNL     1       3.074  -1.107 -10.695  0.00  0.00    -0.115 S 
BRANCH  11  12
ATOM     12  C   UNL     1       2.934  -0.523 -12.407  0.00  0.00    +0.169 C 
BRANCH  12  13
ATOM     13  C   UNL     1       3.683  -1.460 -13.320  0.00  0.00    +0.221 C 
ATOM     14  O   UNL     1       4.255  -2.425 -12.861  0.00  0.00    -0.275 OA
ATOM     15  N   UNL     1       3.718  -1.224 -14.646  0.00  0.00    -0.329 N 
ATOM     16  H   UNL     1       3.260  -0.451 -15.014  0.00  0.00    +0.145 HD
ATOM     17  H   UNL     1       4.200  -1.826 -15.234  0.00  0.00    +0.145 HD
ENDBRANCH  12  13
ENDBRANCH  11  12
ENDBRANCH  10  11
ENDBRANCH   2   5
BRANCH   1  18
ATOM     18  C   UNL     1       3.221  -2.429  -5.652  0.00  0.00    +0.136 C 
ATOM     19  C   UNL     1       4.679  -2.076  -5.351  0.00  0.00    +0.036 C 
BRANCH  18  27
ATOM     20  C   UNL     1       0.777  -1.811  -1.336  0.00  0.00    +0.163 A 
ATOM     21  C   UNL     1       0.244  -2.667  -0.390  0.00  0.00    +0.049 A 
ATOM     22  C   UNL     1       0.346  -4.042  -0.543  0.00  0.00    +0.004 A 
ATOM     23  C   UNL     1       0.980  -4.573  -1.645  0.00  0.00    +0.012 A 
ATOM     24  C   UNL     1       1.522  -3.721  -2.608  0.00  0.00    +0.024 A 
ATOM     25  C   UNL     1       1.417  -2.330  -2.460  0.00  0.00    +0.177 A 
ATOM     26  O   UNL     1       2.015  -1.766  -3.529  0.00  0.00    -0.454 OA
ATOM     27  C   UNL     1       2.495  -2.707  -4.361  0.00  0.00    +0.126 A 
ATOM     28  C   UNL     1       2.244  -3.928  -3.870  0.00  0.00    +0.055 A 
BRANCH  20  29
ATOM     29  O   UNL     1       0.671  -0.465  -1.174  0.00  0.00    -0.489 OA
BRANCH  29  31
ATOM     30  C   UNL     1      -0.019   1.526   0.010  0.00  0.00    +0.048 C 
ATOM     31  C   UNL     1       0.002  -0.004   0.002  0.00  0.00    +0.226 C 
ENDBRANCH  29  31
ENDBRANCH  20  29
ENDBRANCH  18  27
ENDBRANCH   1  18
TORSDOF 8
