REMARK  Name = ZINC67059880
REMARK  3 active torsions:
REMARK  status: ('A' for Active; 'I' for Inactive)
REMARK    1  A    between atoms: C_3  and  C_11
REMARK    2  A    between atoms: N_19  and  C_20
REMARK    3  A    between atoms: C_20  and  C_21
REMARK                            x       y       z     vdW  Elec       q    Type
REMARK                         _______ _______ _______ _____ _____    ______ ____
ROOT
ATOM      1  C   UNL     1       3.670   2.195  -0.023  0.00  0.00    +0.111 C 
ATOM      2  C   UNL     1       4.165   2.372  -1.474  0.00  0.00    +0.029 C 
ATOM      3  C   UNL     1       4.736   3.815  -1.472  0.00  0.00    +0.021 C 
ATOM      4  C   UNL     1       3.757   4.535  -0.512  0.00  0.00    +0.110 C 
ATOM      5  N   UNL     1       3.449   3.538   0.533  0.00  0.00    -0.278 N 
ATOM      6  C   UNL     1       3.034   3.810   1.786  0.00  0.00    +0.303 C 
ATOM      7  O   UNL     1       2.808   2.902   2.563  0.00  0.00    -0.253 OA
ATOM      8  N   UNL     1       2.869   5.089   2.178  0.00  0.00    -0.295 N 
ATOM      9  H   UNL     1       3.048   5.813   1.558  0.00  0.00    +0.151 HD
ENDROOT
BRANCH   1  12
ATOM     10  C   UNL     1      -0.017   1.378   0.010  0.00  0.00    +0.004 A 
ATOM     11  C   UNL     1       1.170   2.088   0.002  0.00  0.00    +0.009 A 
ATOM     12  C   UNL     1       2.378   1.418  -0.014  0.00  0.00    +0.018 A 
ATOM     13  C   UNL     1       2.404   0.031  -0.023  0.00  0.00    +0.167 A 
ATOM     14  C   UNL     1       1.212  -0.683  -0.013  0.00  0.00    +0.162 A 
ATOM     15  C   UNL     1       0.002  -0.004   0.002  0.00  0.00    +0.049 A 
ATOM     16  O   UNL     1       1.214  -2.044  -0.013  0.00  0.00    -0.485 OA
ATOM     17  C   UNL     1       2.434  -2.685  -0.404  0.00  0.00    +0.270 C 
ATOM     18  C   UNL     1       3.594  -1.997   0.328  0.00  0.00    +0.270 C 
ATOM     19  O   UNL     1       3.602  -0.615  -0.043  0.00  0.00    -0.485 OA
ENDBRANCH   1  12
BRANCH   8  20
ATOM     20  C   UNL     1       2.417   5.385   3.540  0.00  0.00    +0.141 C 
BRANCH  20  21
ATOM     21  C   UNL     1       2.314   6.878   3.721  0.00  0.00    -0.023 A 
ATOM     22  C   UNL     1       3.400   7.607   4.169  0.00  0.00    +0.013 A 
ATOM     23  C   UNL     1       3.274   8.948   4.321  0.00  0.00    +0.045 A 
ATOM     24  S   UNL     1       1.580   9.218   3.826  0.00  0.00    -0.105 S 
ATOM     25  C   UNL     1       1.157   7.526   3.443  0.00  0.00    +0.050 A 
ENDBRANCH  20  21
ENDBRANCH   8  20
TORSDOF 3
