REMARK  Name = ZINC23379426
REMARK  5 active torsions:
REMARK  status: ('A' for Active; 'I' for Inactive)
REMARK    1  A    between atoms: C_6  and  C_11
REMARK    2  A    between atoms: C_20  and  C_28
REMARK    3  A    between atoms: C_21  and  N_27
REMARK    4  A    between atoms: C_22  and  C_23
REMARK    5  A    between atoms: C_22  and  C_25
REMARK                            x       y       z     vdW  Elec       q    Type
REMARK                         _______ _______ _______ _____ _____    ______ ____
ROOT
ATOM      1  C   UNL     1       2.195   1.508  -1.053  0.00  0.00    +0.066 C 
ATOM      2  C   UNL     1       1.242   2.013   0.032  0.00  0.00    +0.030 C 
ATOM      3  C   UNL     1       1.006   3.501  -0.066  0.00  0.00    +0.009 C 
ATOM      4  C   UNL     1      -0.325   3.826  -0.740  0.00  0.00    +0.005 C 
ATOM      5  C   UNL     1      -1.450   3.163   0.067  0.00  0.00    +0.027 C 
ATOM      6  C   UNL     1      -1.222   1.674   0.029  0.00  0.00    -0.022 C 
ATOM      7  C   UNL     1      -0.002   1.177  -0.008  0.00  0.00    -0.029 C 
ATOM      8  C   UNL     1       0.183  -0.296  -0.101  0.00  0.00    +0.074 C 
ATOM      9  C   UNL     1       1.397  -0.790  -0.450  0.00  0.00    +0.054 C 
ATOM     10  C   UNL     1       2.594   0.068  -0.729  0.00  0.00    +0.188 C 
ENDROOT
BRANCH   1  16
ATOM     11  C   UNL     1      -1.143   0.647  -6.514  0.00  0.00    +0.001 A 
ATOM     12  C   UNL     1      -1.282  -0.481  -5.707  0.00  0.00    +0.001 A 
ATOM     13  C   UNL     1      -0.671  -0.552  -4.492  0.00  0.00    +0.008 A 
ATOM     14  C   UNL     1       0.110   0.526  -4.042  0.00  0.00    -0.018 A 
ATOM     15  C   UNL     1       0.760   0.487  -2.797  0.00  0.00    +0.012 A 
ATOM     16  C   UNL     1       1.504   1.552  -2.392  0.00  0.00    -0.040 A 
ATOM     17  C   UNL     1       1.641   2.679  -3.199  0.00  0.00    +0.004 A 
ATOM     18  C   UNL     1       1.031   2.751  -4.413  0.00  0.00    +0.009 A 
ATOM     19  C   UNL     1       0.250   1.673  -4.863  0.00  0.00    -0.018 A 
ATOM     20  C   UNL     1      -0.395   1.710  -6.111  0.00  0.00    +0.008 A 
ENDBRANCH   1  16
BRANCH   9  21
ATOM     21  N   UNL     1       1.537  -2.146  -0.552  0.00  0.00    -0.358 N 
ATOM     22  H   UNL     1       2.508  -2.579  -0.833  0.00  0.00    +0.142 HD
ATOM     23  H   UNL     1       0.678  -2.804  -0.354  0.00  0.00    +0.142 HD
ENDBRANCH   9  21
BRANCH  10  24
ATOM     24  C   UNL     1       3.472   0.067   0.452  0.00  0.00    +0.091 C 
ATOM     25  N   UNL     1       4.149   0.067   1.364  0.00  0.00    -0.194 NA
ENDBRANCH  10  24
BRANCH  10  26
ATOM     26  C   UNL     1       3.330  -0.493  -1.874  0.00  0.00    +0.091 C 
ATOM     27  N   UNL     1       3.898  -0.927  -2.757  0.00  0.00    -0.194 NA
ENDBRANCH  10  26
BRANCH   8  28
ATOM     28  C   UNL     1      -0.908  -1.181   0.175  0.00  0.00    +0.101 C 
ATOM     29  N   UNL     1      -1.773  -1.884   0.394  0.00  0.00    -0.191 NA
ENDBRANCH   8  28
TORSDOF 5
