REMARK  Name = ZINC01129556
REMARK  6 active torsions:
REMARK  status: ('A' for Active; 'I' for Inactive)
REMARK    1  A    between atoms: C_8  and  C_10
REMARK    2  A    between atoms: C_10  and  C_12
REMARK    3  A    between atoms: C_13  and  O_32
REMARK    4  A    between atoms: N_16  and  C_26
REMARK    5  A    between atoms: C_17  and  C_19
REMARK    6  A    between atoms: C_26  and  C_27
REMARK                            x       y       z     vdW  Elec       q    Type
REMARK                         _______ _______ _______ _____ _____    ______ ____
ROOT
ATOM      1  C   UNL     1      -0.302   6.521  -1.363  0.00  0.00    +0.074 C 
ATOM      2  C   UNL     1      -1.342   7.382  -1.274  0.00  0.00    +0.188 C 
ATOM      3  C   UNL     1      -1.940   7.285   0.073  0.00  0.00    +0.283 C 
ATOM      4  O   UNL     1      -2.892   7.932   0.461  0.00  0.00    -0.267 OA
ATOM      5  N   UNL     1      -1.274   6.374   0.806  0.00  0.00    -0.276 N 
ATOM      6  C   UNL     1      -0.199   5.823  -0.027  0.00  0.00    +0.145 C 
ENDROOT
BRANCH   6   7
ATOM      7  C   UNL     1      -0.389   4.338  -0.202  0.00  0.00    -0.022 A 
ATOM      8  C   UNL     1       0.686   3.482  -0.055  0.00  0.00    +0.007 A 
ATOM      9  C   UNL     1       0.513   2.120  -0.216  0.00  0.00    +0.020 A 
ATOM     10  C   UNL     1      -0.737   1.614  -0.524  0.00  0.00    +0.041 A 
ATOM     11  C   UNL     1      -1.812   2.472  -0.676  0.00  0.00    +0.020 A 
ATOM     12  C   UNL     1      -1.639   3.833  -0.509  0.00  0.00    +0.007 A 
ATOM     13 CL   UNL     1      -0.956  -0.096  -0.726  0.00  0.00    -0.084 Cl
ENDBRANCH   6   7
BRANCH   1  14
ATOM     14  C   UNL     1       0.560   6.307  -2.531  0.00  0.00    +0.230 C 
ATOM     15  O   UNL     1       0.094   5.835  -3.553  0.00  0.00    -0.284 OA
BRANCH  14  23
ATOM     16  C   UNL     1       6.447   7.641  -2.764  0.00  0.00    +0.001 A 
ATOM     17  C   UNL     1       6.235   7.944  -1.426  0.00  0.00    +0.004 A 
ATOM     18  C   UNL     1       4.987   7.797  -0.859  0.00  0.00    +0.047 A 
ATOM     19  C   UNL     1       3.925   7.341  -1.632  0.00  0.00    +0.136 A 
ATOM     20  C   UNL     1       4.146   7.035  -2.989  0.00  0.00    +0.021 A 
ATOM     21  C   UNL     1       5.420   7.191  -3.543  0.00  0.00    +0.011 A 
ATOM     22  C   UNL     1       2.856   6.591  -3.510  0.00  0.00    +0.061 A 
ATOM     23  C   UNL     1       1.984   6.660  -2.467  0.00  0.00    +0.176 A 
ATOM     24  O   UNL     1       2.625   7.108  -1.368  0.00  0.00    -0.452 OA
ENDBRANCH  14  23
ENDBRANCH   1  14
BRANCH   2  25
ATOM     25  O   UNL     1      -1.768   8.201  -2.264  0.00  0.00    -0.502 OA
ATOM     26  H   UNL     1      -2.551   8.733  -1.942  0.00  0.00    +0.292 HD
ENDBRANCH   2  25
BRANCH   5  27
ATOM     27  C   UNL     1      -1.571   5.999   2.191  0.00  0.00    +0.183 C 
BRANCH  27  28
ATOM     28  C   UNL     1      -0.793   6.885   3.129  0.00  0.00    +0.122 A 
ATOM     29  C   UNL     1      -1.213   8.061   3.630  0.00  0.00    +0.046 A 
ATOM     30  C   UNL     1      -0.176   8.546   4.460  0.00  0.00    +0.041 A 
ATOM     31  C   UNL     1       0.818   7.641   4.410  0.00  0.00    +0.195 A 
ATOM     32  O   UNL     1       0.439   6.637   3.603  0.00  0.00    -0.466 OA
ENDBRANCH  27  28
ENDBRANCH   5  27
TORSDOF 6
