REMARK  Name = ZINC37785276
REMARK  6 active torsions:
REMARK  status: ('A' for Active; 'I' for Inactive)
REMARK    1  A    between atoms: C_1  and  C_2
REMARK    2  A    between atoms: C_5  and  O_23
REMARK    3  A    between atoms: C_8  and  C_22
REMARK    4  A    between atoms: C_11  and  N_13
REMARK    5  A    between atoms: N_13  and  C_14
REMARK    6  A    between atoms: N_19  and  C_21
REMARK                            x       y       z     vdW  Elec       q    Type
REMARK                         _______ _______ _______ _____ _____    ______ ____
ROOT
ATOM      1  C   UNL     1      -0.889   0.775  -0.120  0.00  0.00    +0.044 C 
ATOM      2  C   UNL     1      -0.724  -0.683   0.223  0.00  0.00    -0.046 A 
ATOM      3  C   UNL     1      -1.083  -1.651  -0.696  0.00  0.00    +0.007 A 
ATOM      4  C   UNL     1      -0.933  -2.988  -0.385  0.00  0.00    +0.046 A 
ATOM      5  C   UNL     1      -0.422  -3.357   0.850  0.00  0.00    +0.122 A 
ATOM      6  C   UNL     1      -0.061  -2.383   1.774  0.00  0.00    +0.018 A 
ATOM      7  C   UNL     1      -0.208  -1.047   1.456  0.00  0.00    -0.033 A 
ATOM      8  C   UNL     1       0.257  -0.191   2.615  0.00  0.00    +0.019 C 
ATOM      9  C   UNL     1       0.298  -1.143   3.829  0.00  0.00    +0.035 C 
ATOM     10  C   UNL     1       0.511  -2.518   3.168  0.00  0.00    +0.105 C 
ATOM     11  C   UNL     1      -0.733   0.948   2.864  0.00  0.00    +0.012 C 
ENDROOT
BRANCH  10  12
ATOM     12  N   UNL     1      -0.197  -3.565   3.909  0.00  0.00    -0.336 N 
ATOM     13  H   UNL     1      -0.949  -3.334   4.476  0.00  0.00    +0.147 HD
BRANCH  12  14
ATOM     14  C   UNL     1       0.213  -4.902   3.799  0.00  0.00    +0.044 A 
ATOM     15  C   UNL     1       1.308  -5.239   2.983  0.00  0.00    +0.030 A 
ATOM     16  C   UNL     1       1.692  -6.544   2.888  0.00  0.00    +0.072 A 
ATOM     17  C   UNL     1       0.988  -7.524   3.607  0.00  0.00    +0.251 A 
ATOM     18  O   UNL     1       1.324  -8.696   3.529  0.00  0.00    -0.268 OA
ATOM     19  N   UNL     1      -0.056  -7.175   4.382  0.00  0.00    -0.316 N 
ATOM     20  C   UNL     1      -0.442  -5.875   4.486  0.00  0.00    +0.111 A 
ATOM     21  C   UNL     1      -0.782  -8.207   5.127  0.00  0.00    +0.152 C 
ENDBRANCH  12  14
ENDBRANCH  10  12
BRANCH   5  22
ATOM     22  O   UNL     1      -0.274  -4.672   1.158  0.00  0.00    -0.506 OA
ATOM     23  H   UNL     1       0.587  -5.039   0.913  0.00  0.00    +0.292 HD
ENDBRANCH   5  22
TORSDOF 3
