REMARK  Name = ZINC14164316
REMARK  8 active torsions:
REMARK  status: ('A' for Active; 'I' for Inactive)
REMARK    1  A    between atoms: C_1  and  C_2
REMARK    2  A    between atoms: C_3  and  C_26
REMARK    3  A    between atoms: C_4  and  C_16
REMARK    4  A    between atoms: C_26  and  O_28
REMARK    5  A    between atoms: O_28  and  C_29
REMARK    6  A    between atoms: C_29  and  C_30
REMARK    7  A    between atoms: C_30  and  O_31
REMARK    8  A    between atoms: O_31  and  C_32
REMARK                            x       y       z     vdW  Elec       q    Type
REMARK                         _______ _______ _______ _____ _____    ______ ____
ROOT
ATOM      1  C   UNL     1      -4.850   3.673   2.439  0.00  0.00    +0.061 C 
ATOM      2  C   UNL     1      -3.999   3.764   1.198  0.00  0.00    +0.020 C 
ATOM      3  C   UNL     1      -2.718   4.139   1.320  0.00  0.00    +0.080 C 
ATOM      4  C   UNL     1      -1.777   4.251   0.152  0.00  0.00    +0.161 C 
ATOM      5  N   UNL     1      -2.536   4.193  -1.098  0.00  0.00    -0.300 N 
ATOM      6  C   UNL     1      -2.142   4.478  -2.373  0.00  0.00    +0.071 A 
ATOM      7  C   UNL     1      -0.937   4.910  -2.916  0.00  0.00    +0.028 A 
ATOM      8  C   UNL     1      -0.895   5.101  -4.287  0.00  0.00    +0.002 A 
ATOM      9  C   UNL     1      -1.997   4.876  -5.094  0.00  0.00    +0.002 A 
ATOM     10  C   UNL     1      -3.207   4.447  -4.579  0.00  0.00    +0.030 A 
ATOM     11  C   UNL     1      -3.273   4.247  -3.196  0.00  0.00    +0.091 A 
ATOM     12  N   UNL     1      -4.277   3.843  -2.393  0.00  0.00    -0.214 NA
ATOM     13  C   UNL     1      -3.858   3.810  -1.157  0.00  0.00    +0.202 A 
ATOM     14  N   UNL     1      -4.562   3.459  -0.015  0.00  0.00    -0.288 N 
ATOM     15  H   UNL     1      -5.423   3.015  -0.072  0.00  0.00    +0.155 HD
ENDROOT
BRANCH   4  16
ATOM     16  C   UNL     1      -0.790   3.113   0.192  0.00  0.00    +0.005 A 
ATOM     17  C   UNL     1      -1.079   1.803   0.141  0.00  0.00    +0.089 A 
ATOM     18  N   UNL     1       0.074   1.068   0.205  0.00  0.00    -0.360 N 
ATOM     19  H   UNL     1       0.118   0.099   0.187  0.00  0.00    +0.165 HD
ATOM     20  C   UNL     1       1.161   1.908   0.293  0.00  0.00    +0.047 A 
ATOM     21  C   UNL     1       0.668   3.226   0.288  0.00  0.00    +0.005 A 
ATOM     22  C   UNL     1       1.554   4.302   0.367  0.00  0.00    +0.010 A 
ATOM     23  C   UNL     1       2.898   4.069   0.449  0.00  0.00    +0.001 A 
ATOM     24  C   UNL     1       3.389   2.770   0.453  0.00  0.00    +0.002 A 
ATOM     25  C   UNL     1       2.532   1.694   0.376  0.00  0.00    +0.026 A 
ENDBRANCH   4  16
BRANCH   3  26
ATOM     26  C   UNL     1      -2.227   4.446   2.609  0.00  0.00    +0.339 C 
ATOM     27  O   UNL     1      -2.986   4.469   3.560  0.00  0.00    -0.245 OA
BRANCH  26  28
ATOM     28  O   UNL     1      -0.916   4.712   2.786  0.00  0.00    -0.459 OA
BRANCH  28  29
ATOM     29  C   UNL     1      -0.489   5.013   4.116  0.00  0.00    +0.260 C 
BRANCH  29  30
ATOM     30  C   UNL     1       1.017   5.285   4.120  0.00  0.00    +0.200 C 
BRANCH  30  31
ATOM     31  O   UNL     1       1.290   6.463   3.359  0.00  0.00    -0.380 OA
ATOM     32  C   UNL     1       2.675   6.808   3.298  0.00  0.00    +0.194 C 
ENDBRANCH  30  31
ENDBRANCH  29  30
ENDBRANCH  28  29
ENDBRANCH  26  28
ENDBRANCH   3  26
TORSDOF 6
