REMARK  Name = ZINC16888621
REMARK  10 active torsions:
REMARK  status: ('A' for Active; 'I' for Inactive)
REMARK    1  A    between atoms: C_1  and  C_2
REMARK    2  A    between atoms: C_2  and  C_3
REMARK    3  A    between atoms: C_3  and  C_4
REMARK    4  A    between atoms: C_4  and  N_5
REMARK    5  A    between atoms: C_7  and  C_15
REMARK    6  A    between atoms: C_15  and  C_16
REMARK    7  A    between atoms: C_16  and  C_18
REMARK    8  A    between atoms: C_16  and  N_19
REMARK    9  A    between atoms: C_20  and  C_22
REMARK   10  A    between atoms: C_22  and  C_27
REMARK                            x       y       z     vdW  Elec       q    Type
REMARK                         _______ _______ _______ _____ _____    ______ ____
ROOT
ATOM      1  C   UNL     1       2.865   6.090  -2.308  0.00  0.00    +0.074 C 
ATOM      2  C   UNL     1       2.639   5.350  -3.627  0.00  0.00    +0.028 C 
ENDROOT
BRANCH   1   3
ATOM      3  N   UNL     1       2.033   5.490  -1.262  0.00  0.00    -0.312 N 
ATOM      4  C   UNL     1       0.752   5.881  -1.113  0.00  0.00    +0.224 C 
ATOM      5  O   UNL     1       0.261   6.663  -1.899  0.00  0.00    -0.275 OA
ATOM      6  H   UNL     1       2.404   4.811  -0.677  0.00  0.00    +0.149 HD
BRANCH   4   7
ATOM      7  C   UNL     1      -0.071   5.346   0.031  0.00  0.00    +0.072 C 
ATOM      8  C   UNL     1       0.565   5.754   1.376  0.00  0.00    +0.021 C 
ATOM      9  C   UNL     1      -0.199   7.038   1.783  0.00  0.00    +0.001 C 
ATOM     10  C   UNL     1      -1.649   6.731   1.333  0.00  0.00    +0.001 C 
ATOM     11  C   UNL     1      -1.478   5.967   0.004  0.00  0.00    +0.021 C 
BRANCH   7  12
ATOM     12  C   UNL     1      -0.167   3.845  -0.061  0.00  0.00    -0.032 A 
ATOM     13  C   UNL     1       0.330   3.187  -1.170  0.00  0.00    +0.004 A 
ATOM     14  C   UNL     1       0.242   1.810  -1.254  0.00  0.00    +0.000 A 
ATOM     15  C   UNL     1      -0.343   1.091  -0.228  0.00  0.00    +0.000 A 
ATOM     16  C   UNL     1      -0.845   1.750   0.879  0.00  0.00    +0.000 A 
ATOM     17  C   UNL     1      -0.752   3.126   0.965  0.00  0.00    +0.004 A 
ENDBRANCH   7  12
ENDBRANCH   4   7
ENDBRANCH   1   3
BRANCH   1  18
ATOM     18  C   UNL     1       4.339   5.985  -1.910  0.00  0.00    +0.059 C 
BRANCH  18  21
ATOM     19  N   UNL     1       5.137   8.504   0.654  0.00  0.00    -0.346 N 
ATOM     20  C   UNL     1       5.042   8.078  -0.643  0.00  0.00    +0.090 A 
ATOM     21  C   UNL     1       4.587   6.815  -0.677  0.00  0.00    -0.020 A 
ATOM     22  C   UNL     1       4.383   6.396   0.712  0.00  0.00    +0.004 A 
ATOM     23  C   UNL     1       4.745   7.497   1.508  0.00  0.00    +0.049 A 
ATOM     24  C   UNL     1       4.656   7.399   2.892  0.00  0.00    +0.027 A 
ATOM     25  C   UNL     1       4.216   6.229   3.471  0.00  0.00    +0.017 A 
ATOM     26  C   UNL     1       3.858   5.141   2.686  0.00  0.00    +0.019 A 
ATOM     27  C   UNL     1       3.939   5.217   1.313  0.00  0.00    +0.025 A 
ATOM     28 BR   UNL     1       3.258   3.546   3.506  0.00  0.00    -0.050 Br
BRANCH  19  29
ATOM     29  C   UNL     1       5.594   9.832   1.071  0.00  0.00    +0.122 C 
BRANCH  29  30
ATOM     30  C   UNL     1       7.090   9.780   1.390  0.00  0.00    +0.021 C 
BRANCH  30  32
ATOM     31  C   UNL     1       9.062  11.114   2.145  0.00  0.00    +0.004 C 
ATOM     32  C   UNL     1       7.567  11.166   1.826  0.00  0.00    -0.002 C 
ENDBRANCH  30  32
ENDBRANCH  29  30
ENDBRANCH  19  29
ENDBRANCH  18  21
ENDBRANCH   1  18
TORSDOF 8
