REMARK  Name = ZINC11592141
REMARK  8 active torsions:
REMARK  status: ('A' for Active; 'I' for Inactive)
REMARK    1  A    between atoms: C_1  and  C_2
REMARK    2  A    between atoms: C_5  and  C_8
REMARK    3  A    between atoms: C_11  and  C_14
REMARK    4  A    between atoms: C_19  and  C_21
REMARK    5  A    between atoms: C_21  and  S_22
REMARK    6  A    between atoms: S_22  and  C_23
REMARK    7  A    between atoms: C_26  and  C_29
REMARK    8  A    between atoms: N_27  and  N_28
REMARK                            x       y       z     vdW  Elec       q    Type
REMARK                         _______ _______ _______ _____ _____    ______ ____
ROOT
ATOM      1  C   UNL     1       2.475   3.713  -0.001  0.00  0.00    +0.069 C 
ATOM      2  N   UNL     1       1.260   3.287   0.008  0.00  0.00    -0.181 NA
ATOM      3  N   UNL     1       1.143   1.899   0.001  0.00  0.00    -0.181 N 
ATOM      4  C   UNL     1       2.491   1.308  -0.009  0.00  0.00    +0.173 C 
ATOM      5  C   UNL     1       3.424   2.536  -0.017  0.00  0.00    +0.090 C 
ATOM      6  C   UNL     1      -0.014   1.209   0.009  0.00  0.00    +0.246 C 
ATOM      7  O   UNL     1       0.002  -0.004   0.002  0.00  0.00    -0.273 OA
ENDROOT
BRANCH   1  12
ATOM      8  C   UNL     1       4.052   9.245   0.017  0.00  0.00    +0.044 C 
ATOM      9  C   UNL     1       3.639   7.795   0.013  0.00  0.00    -0.050 A 
ATOM     10  C   UNL     1       2.296   7.462   0.024  0.00  0.00    +0.004 A 
ATOM     11  C   UNL     1       1.911   6.138   0.019  0.00  0.00    +0.010 A 
ATOM     12  C   UNL     1       2.880   5.132   0.004  0.00  0.00    -0.002 A 
ATOM     13  C   UNL     1       4.234   5.476  -0.001  0.00  0.00    +0.010 A 
ATOM     14  C   UNL     1       4.604   6.804  -0.003  0.00  0.00    +0.004 A 
ENDBRANCH   1  12
BRANCH   4  15
ATOM     15  C   UNL     1       2.698   0.480  -1.251  0.00  0.00    +0.128 A 
ATOM     16  C   UNL     1       3.360  -0.689  -1.315  0.00  0.00    +0.046 A 
ATOM     17  C   UNL     1       3.311  -1.114  -2.663  0.00  0.00    +0.041 A 
ATOM     18  C   UNL     1       2.622  -0.179  -3.341  0.00  0.00    +0.195 A 
ATOM     19  O   UNL     1       2.248   0.781  -2.480  0.00  0.00    -0.466 OA
ENDBRANCH   4  15
BRANCH   6  20
ATOM     20  C   UNL     1      -1.330   1.945   0.019  0.00  0.00    +0.175 C 
BRANCH  20  21
ATOM     21  S   UNL     1      -2.689   0.750   0.019  0.00  0.00    -0.075 S 
BRANCH  21  22
ATOM     22  C   UNL     1      -4.064   1.851   0.031  0.00  0.00    +0.209 A 
ATOM     23  N   UNL     1      -4.011   3.164   0.044  0.00  0.00    -0.121 NA
ATOM     24  N   UNL     1      -5.198   3.655   0.048  0.00  0.00    -0.126 NA
ATOM     25  C   UNL     1      -6.086   2.685   0.046  0.00  0.00    +0.188 A 
ATOM     26  N   UNL     1      -5.386   1.499   0.036  0.00  0.00    -0.223 N 
BRANCH  25  27
ATOM     27  C   UNL     1      -7.550   2.837   0.054  0.00  0.00    +0.058 A 
ATOM     28  C   UNL     1      -8.302   3.947   0.346  0.00  0.00    +0.019 A 
ATOM     29  C   UNL     1      -9.674   3.850   0.282  0.00  0.00    +0.008 A 
ATOM     30  C   UNL     1     -10.239   2.662  -0.055  0.00  0.00    +0.046 A 
ATOM     31  S   UNL     1      -8.809   1.624  -0.305  0.00  0.00    -0.093 S 
ENDBRANCH  25  27
BRANCH  26  32
ATOM     32  N   UNL     1      -5.903   0.234   0.031  0.00  0.00    -0.295 N 
ATOM     33  H   UNL     1      -6.035  -0.106   0.971  0.00  0.00    +0.163 HD
ATOM     34  H   UNL     1      -6.766   0.199  -0.491  0.00  0.00    +0.163 HD
ENDBRANCH  26  32
ENDBRANCH  21  22
ENDBRANCH  20  21
ENDBRANCH   6  20
TORSDOF 7
