REMARK  Name = ZINC22101600
REMARK  10 active torsions:
REMARK  status: ('A' for Active; 'I' for Inactive)
REMARK    1  A    between atoms: C_1  and  C_2
REMARK    2  A    between atoms: C_2  and  N_3
REMARK    3  A    between atoms: C_13  and  S_14
REMARK    4  A    between atoms: S_14  and  C_15
REMARK    5  A    between atoms: C_15  and  C_17
REMARK    6  A    between atoms: C_15  and  C_18
REMARK    7  A    between atoms: C_18  and  C_20
REMARK    8  A    between atoms: C_21  and  N_30
REMARK    9  A    between atoms: N_22  and  C_29
REMARK   10  A    between atoms: N_25  and  C_28
REMARK                            x       y       z     vdW  Elec       q    Type
REMARK                         _______ _______ _______ _____ _____    ______ ____
ROOT
ATOM      1  C   UNL     1      -0.005   1.061  -0.028  0.00  0.00    +0.122 C 
ATOM      2  C   UNL     1      -0.743   1.531   1.227  0.00  0.00    +0.028 C 
ENDROOT
BRANCH   1   3
ATOM      3  C   UNL     1       1.403   1.599  -0.014  0.00  0.00    +0.185 C 
ATOM      4  O   UNL     1       1.665   2.631  -0.599  0.00  0.00    -0.291 OA
BRANCH   3   5
ATOM      5  C   UNL     1       2.417   0.905   0.679  0.00  0.00    +0.121 A 
ATOM      6  C   UNL     1       3.759   1.316   0.605  0.00  0.00    +0.116 A 
ATOM      7  N   UNL     1       4.705   0.615   1.297  0.00  0.00    -0.284 N 
ATOM      8  C   UNL     1       4.377  -0.459   2.034  0.00  0.00    +0.333 A 
ATOM      9  O   UNL     1       5.256  -1.052   2.628  0.00  0.00    -0.246 OA
ATOM     10  N   UNL     1       3.113  -0.901   2.139  0.00  0.00    -0.263 N 
ATOM     11  C   UNL     1       2.105  -0.275   1.497  0.00  0.00    +0.269 A 
ATOM     12  O   UNL     1       0.961  -0.679   1.594  0.00  0.00    -0.267 OA
ATOM     13  C   UNL     1       2.825  -2.079   2.960  0.00  0.00    +0.157 C 
ATOM     14  C   UNL     1       6.105   1.038   1.230  0.00  0.00    +0.155 C 
BRANCH   6  15
ATOM     15  N   UNL     1       4.110   2.398  -0.142  0.00  0.00    -0.344 N 
ATOM     16  H   UNL     1       5.163   2.712  -0.194  0.00  0.00    +0.144 HD
ATOM     17  H   UNL     1       3.341   2.959  -0.693  0.00  0.00    +0.144 HD
ENDBRANCH   6  15
ENDBRANCH   3   5
ENDBRANCH   1   3
BRANCH   1  18
ATOM     18  S   UNL     1      -0.868   1.667  -1.499  0.00  0.00    -0.076 S 
BRANCH  18  29
ATOM     19  N   UNL     1      -3.350   0.983  -2.295  0.00  0.00    -0.288 N 
ATOM     20  C   UNL     1      -4.530   0.325  -2.221  0.00  0.00    +0.262 A 
ATOM     21  O   UNL     1      -5.395   0.484  -3.063  0.00  0.00    -0.267 OA
ATOM     22  C   UNL     1      -4.732  -0.583  -1.085  0.00  0.00    +0.066 A 
ATOM     23  C   UNL     1      -5.916  -1.302  -0.917  0.00  0.00    +0.030 A 
ATOM     24  C   UNL     1      -6.051  -2.140   0.168  0.00  0.00    +0.019 A 
ATOM     25  C   UNL     1      -5.020  -2.273   1.091  0.00  0.00    +0.017 A 
ATOM     26  C   UNL     1      -3.853  -1.579   0.946  0.00  0.00    +0.029 A 
ATOM     27  C   UNL     1      -3.686  -0.720  -0.144  0.00  0.00    +0.079 A 
ATOM     28  N   UNL     1      -2.543  -0.015  -0.323  0.00  0.00    -0.223 NA
ATOM     29  C   UNL     1      -2.387   0.789  -1.345  0.00  0.00    +0.173 A 
ATOM     30 BR   UNL     1      -7.652  -3.118   0.404  0.00  0.00    -0.050 Br
BRANCH  19  32
ATOM     31  C   UNL     1      -2.464   1.141  -4.569  0.00  0.00    +0.027 C 
ATOM     32  C   UNL     1      -3.099   1.904  -3.406  0.00  0.00    +0.124 C 
ENDBRANCH  19  32
ENDBRANCH  18  29
ENDBRANCH   1  18
TORSDOF 6
