REMARK  Name = ZINC04673368
REMARK  7 active torsions:
REMARK  status: ('A' for Active; 'I' for Inactive)
REMARK    1  A    between atoms: C_1  and  C_2
REMARK    2  A    between atoms: C_3  and  N_15
REMARK    3  A    between atoms: N_6  and  C_9
REMARK    4  A    between atoms: N_7  and  C_8
REMARK    5  A    between atoms: C_16  and  C_17
REMARK    6  A    between atoms: C_16  and  C_18
REMARK    7  A    between atoms: C_23  and  O_24
REMARK                            x       y       z     vdW  Elec       q    Type
REMARK                         _______ _______ _______ _____ _____    ______ ____
ROOT
ATOM      1  C   UNL     1      -1.655  -3.359  -0.070  0.00  0.00    +0.067 C 
ATOM      2  C   UNL     1      -0.747  -2.157  -0.052  0.00  0.00    +0.064 A 
ATOM      3  C   UNL     1       0.618  -2.189  -0.066  0.00  0.00    +0.151 A 
ATOM      4  C   UNL     1       1.077  -0.793  -0.039  0.00  0.00    +0.298 A 
ATOM      5  O   UNL     1       2.232  -0.408  -0.042  0.00  0.00    -0.264 OA
ATOM      6  N   UNL     1      -0.028  -0.020  -0.011  0.00  0.00    -0.215 N 
ATOM      7  N   UNL     1      -1.149  -0.856  -0.013  0.00  0.00    -0.282 N 
ATOM      8  C   UNL     1      -2.542  -0.403   0.018  0.00  0.00    +0.171 C 
ENDROOT
BRANCH   6   9
ATOM      9  C   UNL     1      -0.049   1.378   0.020  0.00  0.00    +0.067 A 
ATOM     10  C   UNL     1      -0.861   2.082  -0.860  0.00  0.00    +0.028 A 
ATOM     11  C   UNL     1      -0.883   3.462  -0.824  0.00  0.00    +0.002 A 
ATOM     12  C   UNL     1      -0.090   4.144   0.081  0.00  0.00    +0.000 A 
ATOM     13  C   UNL     1       0.724   3.447   0.955  0.00  0.00    +0.002 A 
ATOM     14  C   UNL     1       0.747   2.066   0.927  0.00  0.00    +0.028 A 
ENDBRANCH   6   9
BRANCH   3  15
ATOM     15  N   UNL     1       1.406  -3.306  -0.098  0.00  0.00    -0.244 NA
ATOM     16  C   UNL     1       1.715  -3.918   1.011  0.00  0.00    +0.050 C 
ATOM     17  C   UNL     1       1.314  -3.323   2.336  0.00  0.00    +0.066 C 
BRANCH  16  18
ATOM     18  C   UNL     1       2.455  -5.189   0.968  0.00  0.00    +0.039 A 
ATOM     19  C   UNL     1       2.788  -5.848   2.155  0.00  0.00    +0.033 A 
ATOM     20  C   UNL     1       3.482  -7.039   2.107  0.00  0.00    +0.042 A 
ATOM     21  C   UNL     1       3.851  -7.585   0.887  0.00  0.00    +0.023 A 
ATOM     22  C   UNL     1       3.527  -6.942  -0.292  0.00  0.00    +0.047 A 
ATOM     23  C   UNL     1       2.825  -5.748  -0.264  0.00  0.00    +0.126 A 
ATOM     24 CL   UNL     1       3.897  -7.858   3.581  0.00  0.00    -0.084 Cl
BRANCH  23  25
ATOM     25  O   UNL     1       2.502  -5.120  -1.423  0.00  0.00    -0.506 OA
ATOM     26  H   UNL     1       3.171  -4.494  -1.731  0.00  0.00    +0.292 HD
ENDBRANCH  23  25
ENDBRANCH  16  18
ENDBRANCH   3  15
TORSDOF 4
