REMARK  Name = ZINC64025456
REMARK  10 active torsions:
REMARK  status: ('A' for Active; 'I' for Inactive)
REMARK    1  A    between atoms: C_1  and  C_2
REMARK    2  A    between atoms: N_5  and  S_8
REMARK    3  A    between atoms: S_8  and  N_11
REMARK    4  A    between atoms: N_11  and  C_12
REMARK    5  A    between atoms: C_12  and  C_13
REMARK    6  A    between atoms: C_13  and  C_15
REMARK    7  A    between atoms: C_13  and  C_24
REMARK    8  A    between atoms: C_18  and  N_21
REMARK    9  A    between atoms: N_21  and  C_22
REMARK   10  A    between atoms: N_21  and  C_23
REMARK                            x       y       z     vdW  Elec       q    Type
REMARK                         _______ _______ _______ _____ _____    ______ ____
ROOT
ATOM      1  C   UNL     1       5.767  -1.494   1.011  0.00  0.00    +0.063 C 
ENDROOT
BRANCH   1   2
ATOM      2  C   UNL     1       5.982  -0.620  -0.197  0.00  0.00    -0.033 C 
ATOM      3  C   UNL     1       6.793  -0.873  -1.250  0.00  0.00    -0.000 A 
ATOM      4  C   UNL     1       7.685  -1.993  -1.571  0.00  0.00    +0.010 A 
ATOM      5  C   UNL     1       8.387  -1.962  -2.727  0.00  0.00    +0.001 A 
ATOM      6  C   UNL     1       8.284  -0.889  -3.623  0.00  0.00    +0.002 A 
ATOM      7  C   UNL     1       7.486   0.176  -3.397  0.00  0.00    +0.026 A 
ATOM      8  C   UNL     1       6.702   0.248  -2.212  0.00  0.00    +0.043 A 
ATOM      9  N   UNL     1       5.867   1.158  -1.772  0.00  0.00    -0.380 N 
ATOM     10  C   UNL     1       5.329   0.714  -0.482  0.00  0.00    +0.145 C 
ATOM     11  H   UNL     1       5.641   1.985  -2.226  0.00  0.00    +0.160 HD
ENDBRANCH   1   2
BRANCH   1  12
ATOM     12  C   UNL     1       6.157  -0.738   2.255  0.00  0.00    -0.039 A 
ATOM     13  C   UNL     1       5.507   0.439   2.579  0.00  0.00    +0.006 A 
ATOM     14  C   UNL     1       5.862   1.135   3.717  0.00  0.00    +0.023 A 
ATOM     15  C   UNL     1       6.873   0.652   4.538  0.00  0.00    +0.029 A 
ATOM     16  C   UNL     1       7.524  -0.530   4.210  0.00  0.00    +0.023 A 
ATOM     17  C   UNL     1       7.160  -1.224   3.072  0.00  0.00    +0.006 A 
BRANCH  15  18
ATOM     18  N   UNL     1       7.235   1.354   5.690  0.00  0.00    -0.336 N 
ATOM     19  C   UNL     1       6.548   2.601   6.034  0.00  0.00    +0.129 C 
ATOM     20  C   UNL     1       8.302   0.843   6.554  0.00  0.00    +0.129 C 
ENDBRANCH  15  18
ENDBRANCH   1  12
BRANCH   1  21
ATOM     21  C   UNL     1       4.292  -1.891   1.098  0.00  0.00    +0.119 C 
BRANCH  21  22
ATOM     22  N   UNL     1       3.943  -2.728  -0.053  0.00  0.00    -0.179 NA
ATOM     23  H   UNL     1       4.535  -2.768  -0.821  0.00  0.00    +0.149 HD
BRANCH  22  24
ATOM     24  S   UNL     1       2.539  -3.606  -0.043  0.00  0.00    +0.097 S 
ATOM     25  O   UNL     1       2.499  -4.295   1.199  0.00  0.00    -0.141 OA
ATOM     26  O   UNL     1       2.474  -4.282  -1.291  0.00  0.00    -0.141 OA
BRANCH  24  31
ATOM     27  C   UNL     1      -0.019   1.526   0.010  0.00  0.00    +0.007 C 
ATOM     28  C   UNL     1       0.002  -0.004   0.002  0.00  0.00    -0.012 C 
ATOM     29  C   UNL     1       0.717  -0.497  -1.258  0.00  0.00    +0.020 C 
ATOM     30  C   UNL     1       0.705  -2.029  -1.280  0.00  0.00    +0.111 C 
ATOM     31  N   UNL     1       1.285  -2.525  -0.025  0.00  0.00    -0.167 NA
ATOM     32  C   UNL     1       0.731  -2.043   1.248  0.00  0.00    +0.111 C 
ATOM     33  C   UNL     1       0.742  -0.511   1.242  0.00  0.00    +0.020 C 
ENDBRANCH  24  31
ENDBRANCH  22  24
ENDBRANCH  21  22
ENDBRANCH   1  21
TORSDOF 7
