REMARK  Name = ZINC59088871
REMARK  13 active torsions:
REMARK  status: ('A' for Active; 'I' for Inactive)
REMARK    1  A    between atoms: C_1  and  C_2
REMARK    2  A    between atoms: C_2  and  C_3
REMARK    3  A    between atoms: C_2  and  C_4
REMARK    4  A    between atoms: C_9  and  N_10
REMARK    5  A    between atoms: N_10  and  C_11
REMARK    6  A    between atoms: C_11  and  N_13
REMARK    7  A    between atoms: N_13  and  C_14
REMARK    8  A    between atoms: N_13  and  C_22
REMARK    9  A    between atoms: C_14  and  C_15
REMARK   10  A    between atoms: C_24  and  C_30
REMARK   11  A    between atoms: C_24  and  C_31
REMARK   12  A    between atoms: C_26  and  C_28
REMARK   13  A    between atoms: C_26  and  C_29
REMARK                            x       y       z     vdW  Elec       q    Type
REMARK                         _______ _______ _______ _____ _____    ______ ____
ROOT
ATOM      1  N   UNL     1      -0.649  -2.148  -4.522  0.00  0.00    -0.305 N 
ENDROOT
BRANCH   1   2
ATOM      2  C   UNL     1       0.794  -1.909  -4.397  0.00  0.00    +0.073 C 
ATOM      3  C   UNL     1       1.335  -2.707  -3.209  0.00  0.00    +0.009 C 
ATOM      4  C   UNL     1       2.835  -2.459  -3.058  0.00  0.00    -0.072 C 
ATOM      5  N   UNL     1       3.150  -1.041  -2.968  0.00  0.00    +0.386 N 
ATOM      6  C   UNL     1       2.524  -0.147  -3.929  0.00  0.00    -0.072 C 
ATOM      7  C   UNL     1       1.038  -0.424  -4.129  0.00  0.00    +0.009 C 
ATOM      8  C   UNL     1       3.245  -0.172  -5.279  0.00  0.00    -0.010 C 
ATOM      9  C   UNL     1       2.651   1.293  -3.376  0.00  0.00    -0.010 C 
ATOM     10  C   UNL     1       3.601  -3.147  -4.187  0.00  0.00    -0.010 C 
ATOM     11  C   UNL     1       3.278  -3.121  -1.733  0.00  0.00    -0.010 C 
ATOM     12  H   UNL     1       2.911  -0.719  -2.026  0.00  0.00    -0.084 HD
ATOM     13  H   UNL     1       4.165  -0.931  -3.039  0.00  0.00    -0.084 HD
ENDBRANCH   1   2
BRANCH   1  14
ATOM     14  C   UNL     1      -1.478  -1.810  -3.515  0.00  0.00    +0.138 C 
ATOM     15  S   UNL     1      -3.171  -1.979  -3.706  0.00  0.00    -0.018 S 
BRANCH  14  16
ATOM     16  N   UNL     1      -0.974  -1.338  -2.357  0.00  0.00    -0.296 N 
ATOM     17  H   UNL     1      -0.022  -1.170  -2.275  0.00  0.00    +0.154 HD
BRANCH  16  23
ATOM     18  C   UNL     1      -1.684   0.076  -0.533  0.00  0.00    -0.024 A 
ATOM     19  C   UNL     1      -2.528   0.321   0.532  0.00  0.00    +0.006 A 
ATOM     20  C   UNL     1      -3.509  -0.595   0.864  0.00  0.00    +0.000 A 
ATOM     21  C   UNL     1      -3.648  -1.760   0.131  0.00  0.00    +0.002 A 
ATOM     22  C   UNL     1      -2.806  -2.011  -0.935  0.00  0.00    +0.023 A 
ATOM     23  C   UNL     1      -1.824  -1.089  -1.274  0.00  0.00    +0.036 A 
BRANCH  18  25
ATOM     24  C   UNL     1      -1.271   2.385  -1.339  0.00  0.00    +0.012 C 
ATOM     25  C   UNL     1      -0.615   1.076  -0.893  0.00  0.00    +0.015 C 
ATOM     26  C   UNL     1       0.270   1.339   0.326  0.00  0.00    +0.012 C 
ENDBRANCH  18  25
ENDBRANCH  16  23
ENDBRANCH  14  16
ENDBRANCH   1  14
BRANCH   1  27
ATOM     27  C   UNL     1      -1.188  -2.755  -5.742  0.00  0.00    +0.145 C 
BRANCH  27  28
ATOM     28  C   UNL     1      -1.538  -1.672  -6.730  0.00  0.00    +0.005 A 
ATOM     29  C   UNL     1      -2.849  -1.255  -6.863  0.00  0.00    +0.008 A 
ATOM     30  C   UNL     1      -3.170  -0.261  -7.769  0.00  0.00    +0.000 A 
ATOM     31  C   UNL     1      -2.180   0.317  -8.543  0.00  0.00    +0.003 A 
ATOM     32  C   UNL     1      -0.869  -0.098  -8.410  0.00  0.00    +0.038 A 
ATOM     33  C   UNL     1      -0.545  -1.090  -7.499  0.00  0.00    +0.128 A 
ATOM     34  F   UNL     1       0.737  -1.493  -7.366  0.00  0.00    -0.205 F 
ENDBRANCH  27  28
ENDBRANCH   1  27
TORSDOF 7
