REMARK  Name = ZINC39736963
REMARK  7 active torsions:
REMARK  status: ('A' for Active; 'I' for Inactive)
REMARK    1  A    between atoms: C_1  and  C_2
REMARK    2  A    between atoms: C_7  and  C_12
REMARK    3  A    between atoms: C_12  and  C_24
REMARK    4  A    between atoms: C_13  and  C_14
REMARK    5  A    between atoms: C_16  and  O_22
REMARK    6  A    between atoms: C_17  and  O_21
REMARK    7  A    between atoms: O_22  and  C_23
REMARK                            x       y       z     vdW  Elec       q    Type
REMARK                         _______ _______ _______ _____ _____    ______ ____
ROOT
ATOM      1  C   UNL     1       1.316  -5.063   1.979  0.00  0.00    +0.072 C 
ATOM      2  C   UNL     1       1.214  -6.265   2.585  0.00  0.00    +0.027 C 
ENDROOT
BRANCH   1   9
ATOM      3  C   UNL     1       0.294   1.695   0.515  0.00  0.00    +0.044 C 
ATOM      4  C   UNL     1       0.176   0.194   0.453  0.00  0.00    -0.048 A 
ATOM      5  C   UNL     1      -0.083  -0.412  -0.790  0.00  0.00    +0.005 A 
ATOM      6  C   UNL     1      -0.205  -1.746  -0.937  0.00  0.00    +0.027 A 
ATOM      7  C   UNL     1      -0.065  -2.620   0.236  0.00  0.00    +0.060 A 
ATOM      8  N   UNL     1      -0.132  -3.911   0.391  0.00  0.00    -0.359 N 
ATOM      9  C   UNL     1       0.094  -4.197   1.813  0.00  0.00    +0.216 C 
ATOM     10  N   UNL     1       0.302  -2.899   2.468  0.00  0.00    -0.359 N 
ATOM     11  C   UNL     1       0.210  -1.980   1.551  0.00  0.00    +0.061 A 
ATOM     12  C   UNL     1       0.327  -0.515   1.589  0.00  0.00    +0.030 A 
ATOM     13  H   UNL     1      -0.300  -4.565  -0.306  0.00  0.00    +0.162 HD
ATOM     14  H   UNL     1       0.476  -2.753   3.411  0.00  0.00    +0.162 HD
ENDBRANCH   1   9
BRANCH   2  15
ATOM     15  C   UNL     1       2.425  -7.044   2.881  0.00  0.00    -0.006 A 
ATOM     16  C   UNL     1       3.619  -6.389   3.208  0.00  0.00    +0.058 A 
ATOM     17  C   UNL     1       4.753  -7.125   3.485  0.00  0.00    +0.162 A 
ATOM     18  C   UNL     1       4.709  -8.519   3.439  0.00  0.00    +0.160 A 
ATOM     19  C   UNL     1       3.527  -9.170   3.115  0.00  0.00    +0.065 A 
ATOM     20  C   UNL     1       2.388  -8.442   2.843  0.00  0.00    +0.029 A 
ATOM     21 BR   UNL     1       0.777  -9.334   2.410  0.00  0.00    -0.050 Br
BRANCH  18  22
ATOM     22  O   UNL     1       5.827  -9.241   3.712  0.00  0.00    -0.503 OA
ATOM     23  H   UNL     1       5.929  -9.471   4.646  0.00  0.00    +0.292 HD
ENDBRANCH  18  22
BRANCH  17  24
ATOM     24  O   UNL     1       5.914  -6.492   3.802  0.00  0.00    -0.491 OA
ATOM     25  C   UNL     1       5.887  -5.064   3.830  0.00  0.00    +0.277 C 
ENDBRANCH  17  24
ENDBRANCH   2  15
BRANCH   1  26
ATOM     26  C   UNL     1       2.586  -4.610   1.495  0.00  0.00    +0.099 C 
ATOM     27  N   UNL     1       3.592  -4.251   1.110  0.00  0.00    -0.191 NA
ENDBRANCH   1  26
TORSDOF 5
