REMARK  Name = ZINC09950779
REMARK  7 active torsions:
REMARK  status: ('A' for Active; 'I' for Inactive)
REMARK    1  A    between atoms: C_1  and  C_2
REMARK    2  A    between atoms: C_2  and  C_26
REMARK    3  A    between atoms: N_5  and  C_9
REMARK    4  A    between atoms: C_9  and  N_65
REMARK    5  A    between atoms: N_12  and  S_15
REMARK    6  A    between atoms: S_15  and  C_18
REMARK    7  A    between atoms: C_19  and  C_20
REMARK                            x       y       z     vdW  Elec       q    Type
REMARK                         _______ _______ _______ _____ _____    ______ ____
ROOT
ATOM      1  C   UNL     1       2.755   5.550   2.728  0.00  0.00    +0.043 C 
ENDROOT
BRANCH   1   6
ATOM      2  C   UNL     1       1.049   4.141  -1.417  0.00  0.00    +0.047 C 
ATOM      3  C   UNL     1       1.142   3.599   0.010  0.00  0.00    +0.135 C 
ATOM      4  C   UNL     1       2.368   4.149   0.711  0.00  0.00    +0.249 C 
ATOM      5  O   UNL     1       3.527   3.996   0.388  0.00  0.00    -0.272 OA
ATOM      6  N   UNL     1       1.903   4.844   1.768  0.00  0.00    -0.241 N 
ATOM      7  C   UNL     1       0.567   4.810   1.831  0.00  0.00    +0.308 C 
ATOM      8  O   UNL     1      -0.083   5.363   2.696  0.00  0.00    -0.252 OA
ATOM      9  N   UNL     1       0.023   4.094   0.830  0.00  0.00    -0.281 N 
ATOM     10  H   UNL     1      -0.922   3.935   0.678  0.00  0.00    +0.152 HD
BRANCH   3  11
ATOM     11  C   UNL     1       1.167   2.092   0.002  0.00  0.00    -0.015 A 
ATOM     12  C   UNL     1       2.375   1.420  -0.012  0.00  0.00    +0.006 A 
ATOM     13  C   UNL     1       2.396   0.039  -0.020  0.00  0.00    +0.004 A 
ATOM     14  C   UNL     1       1.210  -0.676  -0.013  0.00  0.00    -0.044 A 
ATOM     15  C   UNL     1       0.002  -0.004   0.002  0.00  0.00    -0.044 A 
ATOM     16  C   UNL     1      -0.017   1.381   0.010  0.00  0.00    +0.010 A 
ATOM     17  C   UNL     1      -1.137  -1.000   0.007  0.00  0.00    +0.036 C 
ATOM     18  C   UNL     1      -0.501  -2.340   0.433  0.00  0.00    +0.009 C 
ATOM     19  C   UNL     1       0.965  -2.169  -0.020  0.00  0.00    +0.036 C 
ENDBRANCH   3  11
ENDBRANCH   1   6
BRANCH   1  25
ATOM     20  C   UNL     1       4.024   6.982   1.244  0.00  0.00    -0.059 C 
ATOM     21  C   UNL     1       4.095   8.398   0.663  0.00  0.00    +0.091 C 
ATOM     22  N   UNL     1       4.257   9.351   1.772  0.00  0.00    -0.181 NA
ATOM     23  C   UNL     1       3.321   9.268   2.903  0.00  0.00    +0.091 C 
ATOM     24  C   UNL     1       3.280   7.817   3.396  0.00  0.00    -0.059 C 
ATOM     25  N   UNL     1       2.946   6.937   2.255  0.00  0.00    +0.392 N 
ATOM     26  H   UNL     1       2.073   7.266   1.826  0.00  0.00    -0.079 HD
BRANCH  22  27
ATOM     27  S   UNL     1       5.462  10.486   1.747  0.00  0.00    +0.054 S 
ATOM     28  O   UNL     1       5.801  10.689   0.382  0.00  0.00    -0.153 OA
ATOM     29  O   UNL     1       5.038  11.547   2.593  0.00  0.00    -0.153 OA
BRANCH  27  30
ATOM     30  C   UNL     1       6.874   9.764   2.515  0.00  0.00    +0.153 C 
ATOM     31  C   UNL     1       7.973   9.544   1.807  0.00  0.00    +0.028 C 
BRANCH  31  32
ATOM     32  C   UNL     1       9.158   8.938   2.451  0.00  0.00    -0.024 A 
ATOM     33  C   UNL     1       9.124   8.602   3.805  0.00  0.00    +0.008 A 
ATOM     34  C   UNL     1      10.231   8.031   4.399  0.00  0.00    +0.001 A 
ATOM     35  C   UNL     1      11.377   7.803   3.658  0.00  0.00    +0.000 A 
ATOM     36  C   UNL     1      11.419   8.139   2.317  0.00  0.00    +0.001 A 
ATOM     37  C   UNL     1      10.316   8.705   1.710  0.00  0.00    +0.008 A 
ENDBRANCH  31  32
ENDBRANCH  27  30
ENDBRANCH  22  27
ENDBRANCH   1  25
TORSDOF 6
