REMARK  Name = ZINC05757517
REMARK  6 active torsions:
REMARK  status: ('A' for Active; 'I' for Inactive)
REMARK    1  A    between atoms: C_1  and  C_2
REMARK    2  A    between atoms: C_3  and  O_30
REMARK    3  A    between atoms: C_6  and  C_27
REMARK    4  A    between atoms: C_27  and  C_29
REMARK    5  A    between atoms: O_30  and  C_31
REMARK    6  A    between atoms: C_31  and  C_33
REMARK                            x       y       z     vdW  Elec       q    Type
REMARK                         _______ _______ _______ _____ _____    ______ ____
ROOT
ATOM      1  C   UNL     1       5.550   9.546   2.159  0.00  0.00    +0.045 C 
ATOM      2  C   UNL     1       4.472   9.299   1.135  0.00  0.00    -0.008 C 
ATOM      3  C   UNL     1       3.272   9.888   1.189  0.00  0.00    +0.135 C 
ATOM      4  C   UNL     1       2.326   9.497   0.053  0.00  0.00    +0.182 C 
ATOM      5  C   UNL     1       3.050   9.878  -1.253  0.00  0.00    +0.048 C 
ATOM      6  C   UNL     1       4.423   9.206  -1.315  0.00  0.00    +0.041 C 
ATOM      7  C   UNL     1       4.658   8.354  -0.052  0.00  0.00    +0.139 C 
ATOM      8  N   UNL     1       3.530   7.399   0.017  0.00  0.00    -0.238 N 
ATOM      9  N   UNL     1       2.266   8.019   0.077  0.00  0.00    -0.235 N 
ATOM     10  C   UNL     1       1.122   7.335   0.150  0.00  0.00    +0.274 A 
ATOM     11  O   UNL     1       0.056   7.916   0.200  0.00  0.00    -0.266 OA
ATOM     12  C   UNL     1       1.178   5.855   0.169  0.00  0.00    +0.054 A 
ATOM     13  C   UNL     1       0.038   5.089   0.245  0.00  0.00    +0.022 A 
ATOM     14  C   UNL     1       0.145   3.686   0.257  0.00  0.00    -0.017 A 
ATOM     15  C   UNL     1      -1.010   2.886   0.331  0.00  0.00    +0.008 A 
ATOM     16  C   UNL     1      -0.895   1.530   0.334  0.00  0.00    +0.001 A 
ATOM     17  C   UNL     1       0.355   0.917   0.278  0.00  0.00    +0.001 A 
ATOM     18  C   UNL     1       1.495   1.658   0.207  0.00  0.00    +0.008 A 
ATOM     19  C   UNL     1       1.417   3.062   0.194  0.00  0.00    -0.017 A 
ATOM     20  C   UNL     1       2.588   3.838   0.118  0.00  0.00    +0.022 A 
ATOM     21  C   UNL     1       2.493   5.210   0.104  0.00  0.00    +0.054 A 
ATOM     22  C   UNL     1       3.693   6.075   0.024  0.00  0.00    +0.274 A 
ATOM     23  O   UNL     1       4.805   5.587  -0.034  0.00  0.00    -0.266 OA
ENDROOT
BRANCH   5  24
ATOM     24  C   UNL     1       2.223   9.430  -2.431  0.00  0.00    -0.074 C 
ATOM     25  C   UNL     1       1.793  10.310  -3.301  0.00  0.00    +0.008 C 
ATOM     26  C   UNL     1       1.892   7.971  -2.608  0.00  0.00    +0.039 C 
ENDBRANCH   5  24
BRANCH   3  27
ATOM     27  O   UNL     1       2.923  10.759   2.169  0.00  0.00    -0.428 OA
BRANCH  27  28
ATOM     28  C   UNL     1       1.947  10.375   3.007  0.00  0.00    +0.309 C 
ATOM     29  O   UNL     1       1.487   9.261   2.929  0.00  0.00    -0.251 OA
ATOM     30  C   UNL     1       1.425  11.334   4.046  0.00  0.00    +0.136 C 
ENDBRANCH  27  28
ENDBRANCH   3  27
TORSDOF 3
