REMARK  Name = ZINC39361060
REMARK  6 active torsions:
REMARK  status: ('A' for Active; 'I' for Inactive)
REMARK    1  A    between atoms: C_1  and  C_2
REMARK    2  A    between atoms: C_6  and  C_15
REMARK    3  A    between atoms: C_13  and  C_14
REMARK    4  A    between atoms: C_15  and  C_16
REMARK    5  A    between atoms: C_16  and  N_17
REMARK    6  A    between atoms: C_18  and  C_20
REMARK                            x       y       z     vdW  Elec       q    Type
REMARK                         _______ _______ _______ _____ _____    ______ ____
ROOT
ATOM      1  C   UNL     1      -1.068  -6.397  -3.123  0.00  0.00    +0.105 C 
ENDROOT
BRANCH   1   2
ATOM      2  N   UNL     1      -2.186  -6.897  -3.927  0.00  0.00    -0.315 N 
ATOM      3  C   UNL     1      -2.295  -8.216  -4.184  0.00  0.00    +0.227 C 
ATOM      4  O   UNL     1      -1.467  -8.988  -3.749  0.00  0.00    -0.275 OA
ATOM      5  H   UNL     1      -2.847  -6.279  -4.275  0.00  0.00    +0.149 HD
BRANCH   3   6
ATOM      6  C   UNL     1      -3.445  -8.729  -5.011  0.00  0.00    +0.188 C 
ATOM      7  C   UNL     1      -3.329 -10.248  -5.175  0.00  0.00    +0.063 C 
ATOM      8  C   UNL     1      -2.252 -10.574  -6.178  0.00  0.00    -0.004 A 
ATOM      9  C   UNL     1      -1.698 -11.845  -6.165  0.00  0.00    +0.007 A 
ATOM     10  C   UNL     1      -0.714 -12.188  -7.070  0.00  0.00    +0.000 A 
ATOM     11  C   UNL     1      -0.275 -11.261  -7.998  0.00  0.00    +0.004 A 
ATOM     12  C   UNL     1      -0.820  -9.994  -8.016  0.00  0.00    +0.046 A 
ATOM     13  C   UNL     1      -1.809  -9.645  -7.103  0.00  0.00    +0.135 A 
ATOM     14  O   UNL     1      -2.307  -8.378  -7.142  0.00  0.00    -0.425 OA
ATOM     15  C   UNL     1      -3.399  -8.113  -6.395  0.00  0.00    +0.325 C 
ATOM     16  O   UNL     1      -4.297  -7.419  -6.809  0.00  0.00    -0.250 OA
ENDBRANCH   3   6
ENDBRANCH   1   2
BRANCH   1  17
ATOM     17  C   UNL     1      -1.179  -4.878  -2.983  0.00  0.00    +0.035 C 
BRANCH  17  23
ATOM     18  C   UNL     1       5.491  -2.734  -4.373  0.00  0.00    +0.044 C 
ATOM     19  C   UNL     1       4.138  -2.590  -3.725  0.00  0.00    -0.047 A 
ATOM     20  C   UNL     1       3.370  -3.694  -3.537  0.00  0.00    +0.013 A 
ATOM     21  C   UNL     1       2.058  -3.542  -2.906  0.00  0.00    -0.007 A 
ATOM     22  C   UNL     1       1.253  -4.622  -2.697  0.00  0.00    -0.005 C 
ATOM     23  C   UNL     1      -0.089  -4.371  -2.037  0.00  0.00    +0.100 C 
ATOM     24  C   UNL     1      -0.424  -2.945  -1.664  0.00  0.00    +0.224 C 
ATOM     25  O   UNL     1      -1.487  -2.687  -1.132  0.00  0.00    -0.275 OA
ATOM     26  N   UNL     1       0.442  -1.979  -1.919  0.00  0.00    -0.284 N 
ATOM     27  C   UNL     1       1.623  -2.194  -2.499  0.00  0.00    +0.041 A 
ATOM     28  C   UNL     1       2.495  -1.117  -2.740  0.00  0.00    +0.027 A 
ATOM     29  C   UNL     1       3.703  -1.325  -3.325  0.00  0.00    -0.046 A 
ATOM     30  C   UNL     1       4.608  -0.143  -3.558  0.00  0.00    +0.044 C 
ATOM     31  H   UNL     1       0.207  -1.071  -1.673  0.00  0.00    +0.155 HD
ENDBRANCH  17  23
ENDBRANCH   1  17
TORSDOF 4
