REMARK  Name = ZINC07499750
REMARK  6 active torsions:
REMARK  status: ('A' for Active; 'I' for Inactive)
REMARK    1  A    between atoms: C_1  and  C_2
REMARK    2  A    between atoms: C_15  and  C_17
REMARK    3  A    between atoms: C_17  and  N_47
REMARK    4  A    between atoms: C_18  and  C_20
REMARK    5  A    between atoms: C_18  and  C_21
REMARK    6  A    between atoms: C_18  and  N_47
REMARK                            x       y       z     vdW  Elec       q    Type
REMARK                         _______ _______ _______ _____ _____    ______ ____
ROOT
ATOM      1  C   UNL     1       9.071   2.560   1.470  0.00  0.00    +0.029 C 
ATOM      2  C   UNL     1       7.933   2.549   2.493  0.00  0.00    +0.087 C 
ATOM      3  C   UNL     1       8.467   3.023   3.841  0.00  0.00    +0.118 C 
ATOM      4  C   UNL     1       7.321   3.392   4.747  0.00  0.00    +0.219 C 
ATOM      5  O   UNL     1       7.000   2.644   5.646  0.00  0.00    -0.275 OA
ATOM      6  N   UNL     1       6.650   4.549   4.564  0.00  0.00    -0.284 N 
ATOM      7  C   UNL     1       6.945   5.377   3.474  0.00  0.00    +0.055 A 
ATOM      8  C   UNL     1       7.131   6.738   3.647  0.00  0.00    +0.025 A 
ATOM      9  C   UNL     1       7.367   7.545   2.548  0.00  0.00    +0.002 A 
ATOM     10  C   UNL     1       7.418   6.996   1.279  0.00  0.00    +0.002 A 
ATOM     11  C   UNL     1       7.245   5.636   1.101  0.00  0.00    +0.025 A 
ATOM     12  C   UNL     1       7.016   4.820   2.197  0.00  0.00    +0.058 A 
ATOM     13  N   UNL     1       6.861   3.436   2.038  0.00  0.00    -0.268 N 
ATOM     14  C   UNL     1       5.742   2.930   1.482  0.00  0.00    +0.203 C 
ATOM     15  O   UNL     1       5.620   1.731   1.350  0.00  0.00    -0.277 OA
ATOM     16  H   UNL     1       5.958   4.809   5.192  0.00  0.00    +0.155 HD
ENDROOT
BRANCH  14  17
ATOM     17  C   UNL     1       4.644   3.856   1.024  0.00  0.00    +0.016 C 
BRANCH  17  18
ATOM     18  N   UNL     1       3.543   3.055   0.457  0.00  0.00    +0.389 N 
ATOM     19  H   UNL     1       3.183   2.416   1.176  0.00  0.00    -0.084 HD
ATOM     20  H   UNL     1       3.895   2.510  -0.339  0.00  0.00    -0.084 HD
BRANCH  18  21
ATOM     21  C   UNL     1       2.452   3.936  -0.001  0.00  0.00    -0.042 C 
ATOM     22  C   UNL     1       2.748   4.420  -1.422  0.00  0.00    -0.009 C 
BRANCH  21  23
ATOM     23  C   UNL     1       1.157   3.165   0.008  0.00  0.00    -0.043 A 
ATOM     24  C   UNL     1       1.175   1.783   0.000  0.00  0.00    +0.003 A 
ATOM     25  C   UNL     1      -0.013   1.076   0.008  0.00  0.00    +0.000 A 
ATOM     26  C   UNL     1      -1.219   1.750   0.017  0.00  0.00    +0.001 A 
ATOM     27  C   UNL     1      -1.239   3.132   0.031  0.00  0.00    +0.020 A 
ATOM     28  C   UNL     1      -0.050   3.841   0.023  0.00  0.00    +0.043 A 
ATOM     29 CL   UNL     1      -0.074   5.576   0.033  0.00  0.00    -0.083 Cl
ENDBRANCH  21  23
ENDBRANCH  18  21
ENDBRANCH  17  18
ENDBRANCH  14  17
TORSDOF 4
