REMARK  Name = ZINC33590285
REMARK  8 active torsions:
REMARK  status: ('A' for Active; 'I' for Inactive)
REMARK    1  A    between atoms: C_1  and  C_2
REMARK    2  A    between atoms: C_5  and  O_9
REMARK    3  A    between atoms: C_6  and  C_8
REMARK    4  A    between atoms: O_9  and  C_10
REMARK    5  A    between atoms: C_11  and  C_22
REMARK    6  A    between atoms: C_18  and  C_21
REMARK    7  A    between atoms: C_23  and  C_24
REMARK    8  A    between atoms: C_23  and  C_26
REMARK                            x       y       z     vdW  Elec       q    Type
REMARK                         _______ _______ _______ _____ _____    ______ ____
ROOT
ATOM      1  C   UNL     1      -2.192  -4.413  -0.084  0.00  0.00    +0.235 A 
ATOM      2  C   UNL     1      -2.241  -3.003   0.022  0.00  0.00    +0.103 A 
ATOM      3  C   UNL     1      -3.502  -2.364  -0.082  0.00  0.00    +0.269 A 
ATOM      4  O   UNL     1      -3.591  -1.152  -0.001  0.00  0.00    -0.266 OA
ATOM      5  N   UNL     1      -4.603  -3.123  -0.272  0.00  0.00    -0.267 N 
ATOM      6  C   UNL     1      -5.820  -2.518  -0.373  0.00  0.00    +0.096 A 
ATOM      7  C   UNL     1      -6.942  -3.249  -0.562  0.00  0.00    +0.019 A 
ATOM      8  C   UNL     1      -6.864  -4.644  -0.659  0.00  0.00    +0.008 A 
ATOM      9  C   UNL     1      -5.650  -5.258  -0.560  0.00  0.00    -0.007 A 
ATOM     10  C   UNL     1      -4.495  -4.482  -0.362  0.00  0.00    +0.147 A 
ATOM     11  N   UNL     1      -3.312  -5.092  -0.266  0.00  0.00    -0.194 NA
ATOM     12  C   UNL     1      -5.548  -6.758  -0.663  0.00  0.00    +0.047 C 
ENDROOT
BRANCH   2  13
ATOM     13  C   UNL     1      -1.063  -2.252   0.221  0.00  0.00    +0.041 C 
ATOM     14  C   UNL     1      -0.003  -2.384  -0.658  0.00  0.00    +0.095 C 
BRANCH  14  15
ATOM     15  C   UNL     1       1.274  -1.707  -0.376  0.00  0.00    +0.150 A 
ATOM     16  N   UNL     1       2.390  -1.765  -1.171  0.00  0.00    -0.337 N 
ATOM     17  H   UNL     1       2.373  -2.351  -2.102  0.00  0.00    +0.167 HD
ATOM     18  C   UNL     1       3.367  -1.001  -0.559  0.00  0.00    +0.066 A 
ATOM     19  C   UNL     1       4.680  -0.685  -0.878  0.00  0.00    +0.028 A 
ATOM     20  C   UNL     1       5.415   0.126  -0.039  0.00  0.00    +0.002 A 
ATOM     21  C   UNL     1       4.850   0.629   1.124  0.00  0.00    +0.002 A 
ATOM     22  C   UNL     1       3.550   0.328   1.458  0.00  0.00    +0.030 A 
ATOM     23  C   UNL     1       2.790  -0.493   0.618  0.00  0.00    +0.089 A 
ATOM     24  N   UNL     1       1.518  -0.957   0.675  0.00  0.00    -0.227 NA
ENDBRANCH  14  15
BRANCH  14  25
ATOM     25  C   UNL     1      -0.147  -3.178  -1.841  0.00  0.00    +0.103 C 
ATOM     26  N   UNL     1      -0.261  -3.808  -2.779  0.00  0.00    -0.191 NA
ENDBRANCH  14  25
ENDBRANCH   2  13
BRANCH   1  27
ATOM     27  O   UNL     1      -1.009  -5.062   0.004  0.00  0.00    -0.437 OA
BRANCH  27  32
ATOM     28  C   UNL     1      -1.034 -10.678  -0.426  0.00  0.00    +0.044 C 
ATOM     29  C   UNL     1      -1.027  -9.175  -0.311  0.00  0.00    -0.050 A 
ATOM     30  C   UNL     1      -0.810  -8.398  -1.434  0.00  0.00    +0.007 A 
ATOM     31  C   UNL     1      -0.804  -7.021  -1.331  0.00  0.00    +0.047 A 
ATOM     32  C   UNL     1      -1.015  -6.417  -0.100  0.00  0.00    +0.133 A 
ATOM     33  C   UNL     1      -1.228  -7.199   1.026  0.00  0.00    -0.008 A 
ATOM     34  C   UNL     1      -1.239  -8.576   0.917  0.00  0.00    +0.010 A 
ATOM     35  C   UNL     1      -1.452  -6.547   2.366  0.00  0.00    +0.047 C 
ENDBRANCH  27  32
ENDBRANCH   1  27
TORSDOF 5
