REMARK  Name = ZINC60582962
REMARK  9 active torsions:
REMARK  status: ('A' for Active; 'I' for Inactive)
REMARK    1  A    between atoms: C_1  and  C_2
REMARK    2  A    between atoms: C_2  and  C_3
REMARK    3  A    between atoms: C_2  and  S_13
REMARK    4  A    between atoms: N_5  and  C_6
REMARK    5  A    between atoms: N_5  and  C_7
REMARK    6  A    between atoms: S_13  and  C_14
REMARK    7  A    between atoms: C_15  and  C_23
REMARK    8  A    between atoms: C_17  and  C_21
REMARK    9  A    between atoms: C_18  and  N_20
REMARK                            x       y       z     vdW  Elec       q    Type
REMARK                         _______ _______ _______ _____ _____    ______ ____
ROOT
ATOM      1  S   UNL     1      -1.700  -0.632   0.015  0.00  0.00    -0.092 S 
ENDROOT
BRANCH   1   2
ATOM      2  C   UNL     1      -2.365  -0.093  -1.525  0.00  0.00    +0.117 A 
ATOM      3  C   UNL     1      -3.699  -0.406  -1.856  0.00  0.00    +0.085 A 
ATOM      4  C   UNL     1      -4.215   0.026  -3.079  0.00  0.00    +0.043 A 
ATOM      5  C   UNL     1      -3.381   0.755  -3.930  0.00  0.00    +0.092 A 
ATOM      6  C   UNL     1      -2.058   1.027  -3.527  0.00  0.00    +0.135 A 
ATOM      7  N   UNL     1      -1.606   0.605  -2.357  0.00  0.00    -0.224 NA
BRANCH   6   8
ATOM      8  N   UNL     1      -1.226   1.746  -4.360  0.00  0.00    -0.342 N 
ATOM      9  H   UNL     1      -1.552   2.062  -5.218  0.00  0.00    +0.144 HD
ATOM     10  H   UNL     1      -0.314   1.937  -4.088  0.00  0.00    +0.144 HD
ENDBRANCH   6   8
BRANCH   5  11
ATOM     11  C   UNL     1      -3.863   1.220  -5.196  0.00  0.00    +0.103 C 
ATOM     12  N   UNL     1      -4.246   1.589  -6.200  0.00  0.00    -0.191 NA
ENDBRANCH   5  11
BRANCH   3  13
ATOM     13  C   UNL     1      -4.514  -1.157  -0.949  0.00  0.00    +0.102 C 
ATOM     14  N   UNL     1      -5.160  -1.753  -0.230  0.00  0.00    -0.191 NA
ENDBRANCH   3  13
ENDBRANCH   1   2
BRANCH   1  16
ATOM     15  C   UNL     1      -0.019   1.526   0.010  0.00  0.00    +0.029 C 
ATOM     16  C   UNL     1       0.002  -0.004   0.002  0.00  0.00    +0.136 C 
BRANCH  16  17
ATOM     17  C   UNL     1       0.731  -0.503   1.223  0.00  0.00    +0.229 C 
ATOM     18  O   UNL     1       0.105  -0.891   2.187  0.00  0.00    -0.274 OA
ATOM     19  N   UNL     1       2.079  -0.519   1.244  0.00  0.00    -0.301 N 
ATOM     20  C   UNL     1       2.835  -0.050   0.080  0.00  0.00    +0.132 C 
BRANCH  19  21
ATOM     21  C   UNL     1       2.787  -1.004   2.431  0.00  0.00    +0.076 C 
ATOM     22  C   UNL     1       3.671   0.113   2.990  0.00  0.00    +0.022 C 
ATOM     23  C   UNL     1       4.411  -0.394   4.229  0.00  0.00    +0.002 C 
ATOM     24  C   UNL     1       5.283  -1.592   3.848  0.00  0.00    +0.000 C 
ATOM     25  C   UNL     1       4.399  -2.709   3.289  0.00  0.00    +0.002 C 
ATOM     26  C   UNL     1       3.659  -2.202   2.050  0.00  0.00    +0.022 C 
ENDBRANCH  19  21
ENDBRANCH  16  17
ENDBRANCH   1  16
TORSDOF 7
