REMARK  Name = ZINC15359172
REMARK  6 active torsions:
REMARK  status: ('A' for Active; 'I' for Inactive)
REMARK    1  A    between atoms: C_1  and  C_2
REMARK    2  A    between atoms: C_5  and  S_8
REMARK    3  A    between atoms: S_8  and  O_11
REMARK    4  A    between atoms: O_11  and  C_12
REMARK    5  A    between atoms: C_15  and  N_23
REMARK    6  A    between atoms: C_17  and  C_18
REMARK                            x       y       z     vdW  Elec       q    Type
REMARK                         _______ _______ _______ _____ _____    ______ ____
ROOT
ATOM      1  C   UNL     1       1.887   5.534   0.946  0.00  0.00    +0.165 A 
ATOM      2  C   UNL     1       2.343   6.842   0.939  0.00  0.00    +0.051 A 
ATOM      3  C   UNL     1       1.832   7.749   0.028  0.00  0.00    +0.036 A 
ATOM      4  C   UNL     1       0.868   7.356  -0.884  0.00  0.00    +0.127 A 
ATOM      5  C   UNL     1       0.407   6.056  -0.892  0.00  0.00    +0.045 A 
ATOM      6  C   UNL     1       0.915   5.132   0.022  0.00  0.00    +0.035 A 
ENDROOT
BRANCH   6   7
ATOM      7  C   UNL     1       0.425   3.737   0.018  0.00  0.00    +0.023 A 
ATOM      8  C   UNL     1      -0.864   3.276   0.028  0.00  0.00    +0.016 A 
ATOM      9  C   UNL     1      -1.080   1.915   0.017  0.00  0.00    +0.008 A 
ATOM     10  C   UNL     1      -0.013   1.076   0.008  0.00  0.00    +0.046 A 
ATOM     11  S   UNL     1       1.360   2.217   0.001  0.00  0.00    -0.097 S 
ENDBRANCH   6   7
BRANCH   4  12
ATOM     12  N   UNL     1       0.329   8.336  -1.854  0.00  0.00    +0.056 N 
ATOM     13  O   UNL     1      -0.520   7.993  -2.657  0.00  0.00    -0.126 OA
ATOM     14  O   UNL     1       0.734   9.485  -1.848  0.00  0.00    -0.126 OA
ENDBRANCH   4  12
BRANCH   1  15
ATOM     15  O   UNL     1       2.384   4.644   1.843  0.00  0.00    -0.342 OA
BRANCH  15  16
ATOM     16  S   UNL     1       3.611   3.889   1.352  0.00  0.00    +0.151 S 
ATOM     17  O   UNL     1       3.871   2.870   2.308  0.00  0.00    -0.131 OA
ATOM     18  O   UNL     1       3.390   3.606  -0.023  0.00  0.00    -0.131 OA
BRANCH  16  23
ATOM     19  C   UNL     1       8.273   7.712   1.597  0.00  0.00    +0.044 C 
ATOM     20  C   UNL     1       7.109   6.757   1.536  0.00  0.00    -0.050 A 
ATOM     21  C   UNL     1       6.805   5.966   2.628  0.00  0.00    +0.005 A 
ATOM     22  C   UNL     1       5.737   5.090   2.572  0.00  0.00    +0.031 A 
ATOM     23  C   UNL     1       4.973   5.006   1.424  0.00  0.00    +0.128 A 
ATOM     24  C   UNL     1       5.279   5.793   0.330  0.00  0.00    +0.031 A 
ATOM     25  C   UNL     1       6.344   6.673   0.388  0.00  0.00    +0.005 A 
ENDBRANCH  16  23
ENDBRANCH  15  16
ENDBRANCH   1  15
TORSDOF 5
