REMARK  Name = ZINC01816736
REMARK  11 active torsions:
REMARK  status: ('A' for Active; 'I' for Inactive)
REMARK    1  A    between atoms: C_1  and  C_2
REMARK    2  A    between atoms: C_2  and  O_3
REMARK    3  A    between atoms: O_3  and  C_4
REMARK    4  A    between atoms: C_4  and  C_6
REMARK    5  A    between atoms: C_10  and  N_11
REMARK    6  A    between atoms: C_12  and  C_14
REMARK    7  A    between atoms: C_14  and  S_15
REMARK    8  A    between atoms: S_15  and  C_16
REMARK    9  A    between atoms: C_17  and  C_31
REMARK   10  A    between atoms: C_18  and  C_26
REMARK   11  A    between atoms: C_25  and  N_65
REMARK                            x       y       z     vdW  Elec       q    Type
REMARK                         _______ _______ _______ _____ _____    ______ ____
ROOT
ATOM      1  S   UNL     1       5.017   5.409   2.373  0.00  0.00    -0.095 S 
ENDROOT
BRANCH   1   2
ATOM      2  C   UNL     1       3.983   4.920   1.032  0.00  0.00    +0.116 A 
ATOM      3  C   UNL     1       3.295   3.696   1.091  0.00  0.00    +0.092 A 
ATOM      4  C   UNL     1       2.482   3.331  -0.004  0.00  0.00    +0.012 A 
ATOM      5  C   UNL     1       2.392   4.215  -1.092  0.00  0.00    -0.033 A 
ATOM      6  C   UNL     1       3.092   5.397  -1.062  0.00  0.00    +0.043 A 
ATOM      7  N   UNL     1       3.854   5.708  -0.020  0.00  0.00    -0.244 NA
ATOM      8  C   UNL     1       3.019   6.382  -2.203  0.00  0.00    +0.037 C 
ATOM      9  C   UNL     1       2.470   5.694  -3.453  0.00  0.00    -0.073 C 
ATOM     10  C   UNL     1       1.528   3.823  -2.261  0.00  0.00    -0.041 C 
ATOM     11  C   UNL     1       0.473   4.606  -4.292  0.00  0.00    -0.096 C 
ATOM     12  N   UNL     1       1.216   5.008  -3.077  0.00  0.00    +0.381 N 
ATOM     13  H   UNL     1       0.633   5.651  -2.527  0.00  0.00    -0.082 HD
BRANCH   4  14
ATOM     14  C   UNL     1       1.742   2.057  -0.004  0.00  0.00    +0.021 A 
ATOM     15  C   UNL     1       2.228   0.774  -0.015  0.00  0.00    +0.016 A 
ATOM     16  C   UNL     1       1.335  -0.271  -0.012  0.00  0.00    +0.008 A 
ATOM     17  C   UNL     1       0.002  -0.004   0.002  0.00  0.00    +0.046 A 
ATOM     18  S   UNL     1      -0.022   1.781   0.012  0.00  0.00    -0.097 S 
ENDBRANCH   4  14
BRANCH   3  19
ATOM     19  C   UNL     1       3.418   2.837   2.231  0.00  0.00    +0.102 C 
ATOM     20  N   UNL     1       3.516   2.157   3.136  0.00  0.00    -0.191 NA
ENDBRANCH   3  19
ENDBRANCH   1   2
BRANCH   1  21
ATOM     21  C   UNL     1       5.601   7.006   1.752  0.00  0.00    +0.172 C 
BRANCH  21  23
ATOM     22  N   UNL     1       7.088   8.830   2.514  0.00  0.00    -0.279 N 
ATOM     23  C   UNL     1       6.528   7.629   2.763  0.00  0.00    +0.228 C 
ATOM     24  O   UNL     1       6.771   7.051   3.801  0.00  0.00    -0.275 OA
ATOM     25  H   UNL     1       6.894   9.293   1.684  0.00  0.00    +0.155 HD
BRANCH  22  30
ATOM     26  C   UNL     1       8.613  10.616   3.367  0.00  0.00    +0.091 A 
ATOM     27  C   UNL     1       9.452  10.991   4.492  0.00  0.00    -0.021 A 
ATOM     28  C   UNL     1       9.495  10.095   5.502  0.00  0.00    -0.004 A 
ATOM     29  S   UNL     1       8.436   8.775   4.981  0.00  0.00    -0.077 S 
ATOM     30  C   UNL     1       7.942   9.403   3.444  0.00  0.00    +0.086 A 
ATOM     31  C   UNL     1      10.274  10.207   6.776  0.00  0.00    +0.043 C 
ATOM     32  C   UNL     1      11.317  11.322   6.609  0.00  0.00    +0.005 C 
ATOM     33  C   UNL     1      10.629  12.556   6.018  0.00  0.00    +0.005 C 
ATOM     34  C   UNL     1      10.246  12.290   4.561  0.00  0.00    +0.037 C 
BRANCH  26  35
ATOM     35  C   UNL     1       8.476  11.487   2.197  0.00  0.00    +0.342 C 
ATOM     36  O   UNL     1       7.600  12.330   2.166  0.00  0.00    -0.245 OA
BRANCH  35  37
ATOM     37  O   UNL     1       9.321  11.353   1.155  0.00  0.00    -0.461 OA
BRANCH  37  39
ATOM     38  C   UNL     1      10.171  11.951  -1.048  0.00  0.00    +0.048 C 
ATOM     39  C   UNL     1       9.127  12.250   0.029  0.00  0.00    +0.229 C 
ENDBRANCH  37  39
ENDBRANCH  35  37
ENDBRANCH  26  35
ENDBRANCH  22  30
ENDBRANCH  21  23
ENDBRANCH   1  21
TORSDOF 9
