REMARK  Name = ZINC03249194
REMARK  6 active torsions:
REMARK  status: ('A' for Active; 'I' for Inactive)
REMARK    1  A    between atoms: C_1  and  O_2
REMARK    2  A    between atoms: O_2  and  C_3
REMARK    3  A    between atoms: C_7  and  N_9
REMARK    4  A    between atoms: N_11  and  N_22
REMARK    5  A    between atoms: C_12  and  C_15
REMARK    6  A    between atoms: N_22  and  C_23
REMARK                            x       y       z     vdW  Elec       q    Type
REMARK                         _______ _______ _______ _____ _____    ______ ____
ROOT
ATOM      1  N   UNL     1      -3.095   2.337  -2.051  0.00  0.00    -0.334 N 
ATOM      2  C   UNL     1      -2.473   2.375  -3.215  0.00  0.00    +0.169 A 
ATOM      3  N   UNL     1      -1.211   1.939  -3.540  0.00  0.00    -0.239 N 
ATOM      4  C   UNL     1      -0.779   2.080  -4.831  0.00  0.00    +0.078 A 
ATOM      5  C   UNL     1      -1.593   2.644  -5.748  0.00  0.00    +0.076 A 
ATOM      6  S   UNL     1      -3.050   3.009  -4.782  0.00  0.00    -0.058 S 
ATOM      7  H   UNL     1      -2.621   1.842  -1.191  0.00  0.00    +0.168 HD
ENDROOT
BRANCH   4   8
ATOM      8  C   UNL     1       0.570   1.617  -5.219  0.00  0.00    +0.001 A 
ATOM      9  C   UNL     1       1.623   1.679  -4.305  0.00  0.00    +0.011 A 
ATOM     10  C   UNL     1       2.878   1.240  -4.671  0.00  0.00    +0.016 A 
ATOM     11  C   UNL     1       3.098   0.749  -5.946  0.00  0.00    +0.018 A 
ATOM     12  C   UNL     1       2.059   0.690  -6.860  0.00  0.00    +0.016 A 
ATOM     13  C   UNL     1       0.798   1.120  -6.504  0.00  0.00    +0.011 A 
ATOM     14 BR   UNL     1       4.824   0.156  -6.443  0.00  0.00    -0.050 Br
ENDBRANCH   4   8
BRANCH   1  19
ATOM     15  C   UNL     1      -5.687   4.853  -1.497  0.00  0.00    +0.122 A 
ATOM     16  C   UNL     1      -6.830   4.076  -1.641  0.00  0.00    +0.046 A 
ATOM     17  C   UNL     1      -6.724   2.726  -1.920  0.00  0.00    +0.006 A 
ATOM     18  C   UNL     1      -5.483   2.142  -2.064  0.00  0.00    +0.026 A 
ATOM     19  C   UNL     1      -4.327   2.913  -1.916  0.00  0.00    +0.045 A 
ATOM     20  C   UNL     1      -4.436   4.277  -1.633  0.00  0.00    +0.071 A 
BRANCH  15  22
ATOM     21  C   UNL     1      -7.120   6.707  -1.095  0.00  0.00    +0.277 C 
ATOM     22  O   UNL     1      -5.798   6.179  -1.223  0.00  0.00    -0.495 OA
ENDBRANCH  15  22
ENDBRANCH   1  19
BRANCH   3  23
ATOM     23  N   UNL     1      -0.384   1.356  -2.571  0.00  0.00    -0.255 N 
ATOM     24  H   UNL     1       0.212   0.466  -2.819  0.00  0.00    +0.172 HD
BRANCH  23  25
ATOM     25  C   UNL     1      -0.318   1.902  -1.295  0.00  0.00    +0.020 C 
ATOM     26  C   UNL     1      -0.899   3.026  -0.934  0.00  0.00    -0.007 C 
ATOM     27  C   UNL     1      -0.627   3.331   0.521  0.00  0.00    +0.029 C 
ATOM     28  C   UNL     1       0.571   2.425   0.898  0.00  0.00    +0.010 C 
ATOM     29  C   UNL     1       0.430   1.285  -0.137  0.00  0.00    +0.052 C 
ENDBRANCH  23  25
ENDBRANCH   3  23
TORSDOF 5
