REMARK  Name = ZINC63375442
REMARK  8 active torsions:
REMARK  status: ('A' for Active; 'I' for Inactive)
REMARK    1  A    between atoms: C_1  and  C_2
REMARK    2  A    between atoms: C_2  and  C_3
REMARK    3  A    between atoms: C_3  and  C_5
REMARK    4  A    between atoms: C_3  and  N_6
REMARK    5  A    between atoms: C_7  and  C_9
REMARK    6  A    between atoms: C_14  and  N_15
REMARK    7  A    between atoms: C_31  and  C_36
REMARK    8  A    between atoms: C_39  and  C_42
REMARK                            x       y       z     vdW  Elec       q    Type
REMARK                         _______ _______ _______ _____ _____    ______ ____
ROOT
ATOM      1  N   UNL     1      -6.252   0.194   1.538  0.00  0.00    -0.192 N 
ATOM      2  C   UNL     1      -6.754  -1.014   1.207  0.00  0.00    +0.248 C 
ATOM      3  O   UNL     1      -6.594  -2.060   1.798  0.00  0.00    -0.273 OA
ATOM      4  C   UNL     1      -7.558  -0.791  -0.056  0.00  0.00    +0.169 C 
ATOM      5  C   UNL     1      -6.997  -1.662  -1.193  0.00  0.00    +0.065 C 
ATOM      6  C   UNL     1      -7.387  -0.983  -2.485  0.00  0.00    -0.034 C 
ATOM      7  C   UNL     1      -7.041  -1.245  -3.741  0.00  0.00    -0.001 A 
ATOM      8  C   UNL     1      -6.239  -2.330  -4.328  0.00  0.00    +0.010 A 
ATOM      9  C   UNL     1      -6.065  -2.285  -5.675  0.00  0.00    +0.001 A 
ATOM     10  C   UNL     1      -6.603  -1.281  -6.487  0.00  0.00    +0.002 A 
ATOM     11  C   UNL     1      -7.358  -0.250  -6.032  0.00  0.00    +0.026 A 
ATOM     12  C   UNL     1      -7.615  -0.192  -4.632  0.00  0.00    +0.043 A 
ATOM     13  N   UNL     1      -8.310   0.660  -3.938  0.00  0.00    -0.375 N 
ATOM     14  C   UNL     1      -8.310   0.229  -2.539  0.00  0.00    +0.131 C 
ATOM     15  C   UNL     1      -7.703   1.298  -1.621  0.00  0.00    +0.135 C 
ATOM     16  N   UNL     1      -7.303   0.630  -0.372  0.00  0.00    -0.264 N 
ATOM     17  C   UNL     1      -6.599   1.135   0.649  0.00  0.00    +0.317 C 
ATOM     18  O   UNL     1      -6.305   2.309   0.756  0.00  0.00    -0.252 OA
ATOM     19  H   UNL     1      -8.754   1.449  -4.289  0.00  0.00    +0.160 HD
ENDROOT
BRANCH  15  20
ATOM     20  C   UNL     1      -6.512   1.933  -2.290  0.00  0.00    -0.025 A 
ATOM     21  C   UNL     1      -5.290   1.287  -2.286  0.00  0.00    +0.006 A 
ATOM     22  C   UNL     1      -4.197   1.870  -2.900  0.00  0.00    +0.004 A 
ATOM     23  C   UNL     1      -4.327   3.099  -3.518  0.00  0.00    -0.050 A 
ATOM     24  C   UNL     1      -5.548   3.745  -3.523  0.00  0.00    +0.004 A 
ATOM     25  C   UNL     1      -6.642   3.160  -2.913  0.00  0.00    +0.006 A 
ATOM     26  C   UNL     1      -3.135   3.735  -4.187  0.00  0.00    +0.044 C 
ENDBRANCH  15  20
BRANCH   1  32
ATOM     27  C   UNL     1      -4.076   0.321   2.603  0.00  0.00    +0.059 A 
ATOM     28  C   UNL     1      -3.307   0.570   3.742  0.00  0.00    +0.015 A 
ATOM     29  C   UNL     1      -3.923   0.920   4.925  0.00  0.00    +0.001 A 
ATOM     30  C   UNL     1      -5.303   1.026   4.990  0.00  0.00    +0.002 A 
ATOM     31  C   UNL     1      -6.075   0.783   3.872  0.00  0.00    +0.025 A 
ATOM     32  C   UNL     1      -5.472   0.435   2.672  0.00  0.00    +0.058 A 
BRANCH  27  34
ATOM     33  N   UNL     1      -2.082  -0.162   1.273  0.00  0.00    -0.309 N 
ATOM     34  C   UNL     1      -3.424  -0.053   1.334  0.00  0.00    +0.246 C 
ATOM     35  O   UNL     1      -4.096  -0.264   0.344  0.00  0.00    -0.270 OA
ATOM     36  H   UNL     1      -1.545   0.006   2.063  0.00  0.00    +0.149 HD
BRANCH  33  37
ATOM     37  C   UNL     1      -1.433  -0.534   0.013  0.00  0.00    +0.070 C 
ATOM     38  C   UNL     1      -1.416  -2.058  -0.121  0.00  0.00    +0.028 C 
BRANCH  37  40
ATOM     39  C   UNL     1      -0.019   1.526   0.010  0.00  0.00    +0.005 C 
ATOM     40  C   UNL     1       0.002  -0.004   0.002  0.00  0.00    +0.018 C 
ENDBRANCH  37  40
ENDBRANCH  33  37
ENDBRANCH  27  34
ENDBRANCH   1  32
TORSDOF 5
