REMARK  Name = ZINC06059241
REMARK  4 active torsions:
REMARK  status: ('A' for Active; 'I' for Inactive)
REMARK    1  A    between atoms: N_9  and  N_10
REMARK    2  A    between atoms: C_11  and  C_13
REMARK    3  A    between atoms: C_13  and  O_14
REMARK    4  A    between atoms: O_14  and  C_15
REMARK                            x       y       z     vdW  Elec       q    Type
REMARK                         _______ _______ _______ _____ _____    ______ ____
ROOT
ATOM      1  N   UNL     1       5.967   3.542  -0.034  0.00  0.00    -0.203 N 
ATOM      2  C   UNL     1       4.715   4.040  -0.020  0.00  0.00    +0.270 C 
ATOM      3  O   UNL     1       4.538   5.239  -0.012  0.00  0.00    -0.270 OA
ATOM      4  H   UNL     1       6.127   2.454  -0.041  0.00  0.00    +0.177 HD
ENDROOT
BRANCH   1  13
ATOM      5  C   UNL     1      12.193   5.520  -0.079  0.00  0.00    +0.022 A 
ATOM      6  C   UNL     1      11.906   4.170  -0.084  0.00  0.00    +0.025 A 
ATOM      7  C   UNL     1      10.585   3.737  -0.075  0.00  0.00    +0.043 A 
ATOM      8  C   UNL     1       9.556   4.688  -0.067  0.00  0.00    +0.030 A 
ATOM      9  C   UNL     1       9.854   6.045  -0.055  0.00  0.00    +0.032 A 
ATOM     10  C   UNL     1      11.173   6.458  -0.065  0.00  0.00    +0.042 A 
ATOM     11 CL   UNL     1      11.552   8.152  -0.059  0.00  0.00    -0.084 Cl
ATOM     12  C   UNL     1       8.284   3.928  -0.053  0.00  0.00    +0.153 C 
ATOM     13  N   UNL     1       7.066   4.412  -0.039  0.00  0.00    -0.174 NA
ATOM     14  C   UNL     1       8.688   2.507  -0.065  0.00  0.00    +0.269 C 
ATOM     15  O   UNL     1       7.938   1.550  -0.064  0.00  0.00    -0.268 OA
ATOM     16  N   UNL     1      10.031   2.460  -0.077  0.00  0.00    -0.280 N 
ATOM     17  H   UNL     1      10.686   1.577  -0.088  0.00  0.00    +0.155 HD
ENDBRANCH   1  13
BRANCH   2  18
ATOM     18  C   UNL     1       3.533   3.105  -0.014  0.00  0.00    +0.326 C 
BRANCH  18  19
ATOM     19  O   UNL     1       2.323   3.865   0.001  0.00  0.00    -0.481 OA
BRANCH  19  20
ATOM     20  C   UNL     1       1.156   3.169   0.008  0.00  0.00    +0.140 A 
ATOM     21  C   UNL     1       1.175   1.782   0.000  0.00  0.00    +0.048 A 
ATOM     22  C   UNL     1      -0.013   1.076   0.008  0.00  0.00    +0.023 A 
ATOM     23  C   UNL     1      -1.221   1.751   0.017  0.00  0.00    +0.043 A 
ATOM     24  C   UNL     1      -1.242   3.134   0.031  0.00  0.00    +0.043 A 
ATOM     25  C   UNL     1      -0.057   3.845   0.023  0.00  0.00    +0.084 A 
ATOM     26 CL   UNL     1      -0.084   5.580   0.032  0.00  0.00    -0.080 Cl
ATOM     27 CL   UNL     1      -2.711   0.860   0.020  0.00  0.00    -0.083 Cl
ENDBRANCH  19  20
ENDBRANCH  18  19
ENDBRANCH   2  18
TORSDOF 4
