REMARK  Name = ZINC11696399
REMARK  7 active torsions:
REMARK  status: ('A' for Active; 'I' for Inactive)
REMARK    1  A    between atoms: C_1  and  C_2
REMARK    2  A    between atoms: C_2  and  C_3
REMARK    3  A    between atoms: C_6  and  S_9
REMARK    4  A    between atoms: S_9  and  N_12
REMARK    5  A    between atoms: N_12  and  C_13
REMARK    6  A    between atoms: C_16  and  C_19
REMARK    7  A    between atoms: C_27  and  C_29
REMARK                            x       y       z     vdW  Elec       q    Type
REMARK                         _______ _______ _______ _____ _____    ______ ____
ROOT
ATOM      1  C   UNL     1       2.118  -2.554  -2.462  0.00  0.00    +0.048 A 
ATOM      2  C   UNL     1       2.411  -1.224  -2.739  0.00  0.00    +0.025 A 
ATOM      3  C   UNL     1       3.406  -0.909  -3.640  0.00  0.00    +0.012 A 
ATOM      4  C   UNL     1       4.113  -1.928  -4.280  0.00  0.00    -0.000 A 
ATOM      5  C   UNL     1       3.813  -3.262  -4.004  0.00  0.00    +0.012 A 
ATOM      6  C   UNL     1       2.820  -3.570  -3.099  0.00  0.00    +0.025 A 
ENDROOT
BRANCH   4   7
ATOM      7  C   UNL     1       5.178  -1.593  -5.251  0.00  0.00    +0.066 A 
ATOM      8  C   UNL     1       6.235  -0.858  -4.856  0.00  0.00    +0.075 A 
ATOM      9  S   UNL     1       7.190  -0.750  -6.361  0.00  0.00    -0.057 S 
ATOM     10  C   UNL     1       6.097  -1.690  -7.404  0.00  0.00    +0.181 A 
ATOM     11  N   UNL     1       5.078  -2.034  -6.556  0.00  0.00    -0.255 N 
ATOM     12  C   UNL     1       4.065  -2.779  -7.090  0.00  0.00    +0.259 A 
ATOM     13  O   UNL     1       3.124  -3.120  -6.391  0.00  0.00    -0.267 OA
ATOM     14  C   UNL     1       4.107  -3.149  -8.434  0.00  0.00    +0.093 A 
ATOM     15  C   UNL     1       5.173  -2.760  -9.217  0.00  0.00    +0.046 A 
ATOM     16  N   UNL     1       6.143  -2.035  -8.667  0.00  0.00    -0.228 NA
ATOM     17  C   UNL     1       5.237  -3.148 -10.672  0.00  0.00    +0.066 C 
ENDBRANCH   4   7
BRANCH   1  18
ATOM     18  N   UNL     1       1.112  -2.869  -1.545  0.00  0.00    -0.216 N 
ATOM     19  H   UNL     1       0.180  -2.772  -1.796  0.00  0.00    +0.174 HD
BRANCH  18  20
ATOM     20  S   UNL     1       1.510  -3.410  -0.032  0.00  0.00    +0.072 S 
ATOM     21  O   UNL     1       2.441  -4.469  -0.211  0.00  0.00    -0.150 OA
ATOM     22  O   UNL     1       0.288  -3.581   0.673  0.00  0.00    -0.150 OA
BRANCH  20  26
ATOM     23  C   UNL     1       3.743  -0.062   2.042  0.00  0.00    -0.048 A 
ATOM     24  C   UNL     1       2.361  -0.087   2.060  0.00  0.00    +0.005 A 
ATOM     25  C   UNL     1       1.679  -1.109   1.427  0.00  0.00    +0.029 A 
ATOM     26  C   UNL     1       2.379  -2.107   0.775  0.00  0.00    +0.109 A 
ATOM     27  C   UNL     1       3.761  -2.082   0.755  0.00  0.00    +0.029 A 
ATOM     28  C   UNL     1       4.443  -1.059   1.388  0.00  0.00    +0.005 A 
BRANCH  23  30
ATOM     29  C   UNL     1       4.768   0.656   4.182  0.00  0.00    +0.009 C 
ATOM     30  C   UNL     1       4.486   1.052   2.732  0.00  0.00    +0.032 C 
ENDBRANCH  23  30
ENDBRANCH  20  26
ENDBRANCH  18  20
ENDBRANCH   1  18
TORSDOF 5
