REMARK  Name = ZINC02060243
REMARK  8 active torsions:
REMARK  status: ('A' for Active; 'I' for Inactive)
REMARK    1  A    between atoms: C_1  and  C_2
REMARK    2  A    between atoms: C_2  and  O_3
REMARK    3  A    between atoms: O_3  and  C_4
REMARK    4  A    between atoms: C_4  and  C_6
REMARK    5  A    between atoms: C_10  and  N_11
REMARK    6  A    between atoms: N_11  and  C_12
REMARK    7  A    between atoms: C_12  and  C_13
REMARK    8  A    between atoms: C_18  and  O_19
REMARK                            x       y       z     vdW  Elec       q    Type
REMARK                         _______ _______ _______ _____ _____    ______ ____
ROOT
ATOM      1  C   UNL     1      -1.272   5.179  -0.020  0.00  0.00    +0.090 A 
ATOM      2  C   UNL     1      -0.952   3.765   0.098  0.00  0.00    -0.021 A 
ATOM      3  C   UNL     1      -1.032   3.059  -1.049  0.00  0.00    -0.004 A 
ATOM      4  S   UNL     1      -1.524   4.238  -2.275  0.00  0.00    -0.078 S 
ATOM      5  C   UNL     1      -1.622   5.653  -1.280  0.00  0.00    +0.080 A 
ATOM      6  C   UNL     1      -0.761   1.597  -1.232  0.00  0.00    +0.043 C 
ATOM      7  C   UNL     1      -0.013   1.086   0.008  0.00  0.00    +0.005 C 
ATOM      8  C   UNL     1      -0.735   1.583   1.264  0.00  0.00    +0.005 C 
ATOM      9  C   UNL     1      -0.553   3.094   1.406  0.00  0.00    +0.037 C 
ENDROOT
BRANCH   1  10
ATOM     10  C   UNL     1      -1.226   6.068   1.140  0.00  0.00    +0.342 C 
ATOM     11  O   UNL     1      -0.195   6.649   1.421  0.00  0.00    -0.245 OA
BRANCH  10  12
ATOM     12  O   UNL     1      -2.328   6.243   1.899  0.00  0.00    -0.461 OA
BRANCH  12  14
ATOM     13  C   UNL     1      -3.551   7.196   3.753  0.00  0.00    +0.048 C 
ATOM     14  C   UNL     1      -2.212   7.125   3.018  0.00  0.00    +0.229 C 
ENDBRANCH  12  14
ENDBRANCH  10  12
ENDBRANCH   1  10
BRANCH   5  15
ATOM     15  N   UNL     1      -1.964   6.940  -1.647  0.00  0.00    -0.334 N 
ATOM     16  H   UNL     1      -1.980   7.646  -0.983  0.00  0.00    +0.147 HD
BRANCH  15  17
ATOM     17  C   UNL     1      -2.304   7.237  -3.041  0.00  0.00    +0.141 C 
BRANCH  17  18
ATOM     18  C   UNL     1      -2.637   8.700  -3.176  0.00  0.00    +0.014 A 
ATOM     19  C   UNL     1      -3.957   9.108  -3.215  0.00  0.00    +0.028 A 
ATOM     20  C   UNL     1      -4.264  10.451  -3.339  0.00  0.00    +0.043 A 
ATOM     21  C   UNL     1      -3.251  11.390  -3.424  0.00  0.00    +0.043 A 
ATOM     22  C   UNL     1      -1.930  10.986  -3.385  0.00  0.00    +0.084 A 
ATOM     23  C   UNL     1      -1.620   9.639  -3.254  0.00  0.00    +0.140 A 
ATOM     24 CL   UNL     1      -0.658  12.164  -3.490  0.00  0.00    -0.080 Cl
ATOM     25 CL   UNL     1      -5.923  10.960  -3.388  0.00  0.00    -0.083 Cl
BRANCH  23  26
ATOM     26  O   UNL     1      -0.321   9.240  -3.210  0.00  0.00    -0.505 OA
ATOM     27  H   UNL     1       0.060   9.045  -4.077  0.00  0.00    +0.292 HD
ENDBRANCH  23  26
ENDBRANCH  17  18
ENDBRANCH  15  17
ENDBRANCH   5  15
TORSDOF 7
