REMARK  Name = ZINC18024631
REMARK  4 active torsions:
REMARK  status: ('A' for Active; 'I' for Inactive)
REMARK    1  A    between atoms: C_1  and  S_2
REMARK    2  A    between atoms: S_2  and  C_3
REMARK    3  A    between atoms: C_6  and  N_9
REMARK    4  A    between atoms: C_10  and  C_11
REMARK                            x       y       z     vdW  Elec       q    Type
REMARK                         _______ _______ _______ _____ _____    ______ ____
ROOT
ATOM      1  N   UNL     1       2.838  -1.366  -4.992  0.00  0.00    -0.255 NA
ATOM      2  C   UNL     1       3.758  -2.289  -4.988  0.00  0.00    +0.119 C 
ENDROOT
BRANCH   2   3
ATOM      3  C   UNL     1       4.465  -2.629  -6.232  0.00  0.00    -0.003 A 
ATOM      4  C   UNL     1       4.155  -1.958  -7.420  0.00  0.00    +0.013 A 
ATOM      5  C   UNL     1       4.818  -2.278  -8.585  0.00  0.00    +0.050 A 
ATOM      6  C   UNL     1       5.795  -3.266  -8.585  0.00  0.00    +0.166 A 
ATOM      7  C   UNL     1       6.109  -3.939  -7.403  0.00  0.00    +0.167 A 
ATOM      8  C   UNL     1       5.452  -3.619  -6.231  0.00  0.00    +0.059 A 
ATOM      9  O   UNL     1       7.089  -4.851  -7.670  0.00  0.00    -0.453 OA
ATOM     10  C   UNL     1       7.083  -5.015  -9.100  0.00  0.00    +0.466 C 
ATOM     11  O   UNL     1       6.579  -3.757  -9.587  0.00  0.00    -0.453 OA
ENDBRANCH   2   3
BRANCH   1  15
ATOM     12  C   UNL     1       0.848  -0.411  -1.489  0.00  0.00    +0.008 A 
ATOM     13  C   UNL     1       1.314   0.602  -2.321  0.00  0.00    +0.017 A 
ATOM     14  C   UNL     1       1.977   0.288  -3.487  0.00  0.00    +0.029 A 
ATOM     15  C   UNL     1       2.181  -1.050  -3.834  0.00  0.00    +0.064 A 
ATOM     16  C   UNL     1       1.711  -2.066  -2.996  0.00  0.00    +0.029 A 
ATOM     17  C   UNL     1       1.054  -1.744  -1.829  0.00  0.00    +0.017 A 
BRANCH  12  19
ATOM     18  C   UNL     1      -0.022   1.810   0.012  0.00  0.00    +0.090 C 
ATOM     19  S   UNL     1       0.002  -0.004   0.002  0.00  0.00    -0.129 S 
ENDBRANCH  12  19
ENDBRANCH   1  15
TORSDOF 3
