REMARK  Name = ZINC10891951
REMARK  10 active torsions:
REMARK  status: ('A' for Active; 'I' for Inactive)
REMARK    1  A    between atoms: C_1  and  C_2
REMARK    2  A    between atoms: C_2  and  O_3
REMARK    3  A    between atoms: O_3  and  C_4
REMARK    4  A    between atoms: C_4  and  C_6
REMARK    5  A    between atoms: C_7  and  C_20
REMARK    6  A    between atoms: C_12  and  C_14
REMARK    7  A    between atoms: C_20  and  O_21
REMARK    8  A    between atoms: O_21  and  C_22
REMARK    9  A    between atoms: C_22  and  C_24
REMARK   10  A    between atoms: C_24  and  C_25
REMARK                            x       y       z     vdW  Elec       q    Type
REMARK                         _______ _______ _______ _____ _____    ______ ____
ROOT
ATOM      1  C   UNL     1       6.960  -3.790  -3.661  0.00  0.00    +0.081 C 
ATOM      2  C   UNL     1       6.970  -2.469  -3.383  0.00  0.00    +0.061 C 
ATOM      3  N   UNL     1       8.124  -1.832  -3.025  0.00  0.00    -0.269 N 
ATOM      4  C   UNL     1       9.307  -2.449  -2.912  0.00  0.00    +0.304 C 
ATOM      5  O   UNL     1      10.279  -1.799  -2.581  0.00  0.00    -0.252 OA
ATOM      6  N   UNL     1       9.456  -3.766  -3.156  0.00  0.00    -0.288 N 
ATOM      7  C   UNL     1       8.270  -4.543  -3.555  0.00  0.00    +0.144 C 
ATOM      8  H   UNL     1       8.083  -0.881  -2.839  0.00  0.00    +0.156 HD
ATOM      9  H   UNL     1      10.323  -4.192  -3.071  0.00  0.00    +0.151 HD
ENDROOT
BRANCH   7  10
ATOM     10  C   UNL     1       8.088  -5.656  -2.556  0.00  0.00    -0.022 A 
ATOM     11  C   UNL     1       8.156  -5.388  -1.202  0.00  0.00    +0.006 A 
ATOM     12  C   UNL     1       7.985  -6.409  -0.286  0.00  0.00    +0.000 A 
ATOM     13  C   UNL     1       7.753  -7.699  -0.724  0.00  0.00    +0.000 A 
ATOM     14  C   UNL     1       7.689  -7.968  -2.078  0.00  0.00    +0.000 A 
ATOM     15  C   UNL     1       7.856  -6.947  -2.994  0.00  0.00    +0.006 A 
ENDBRANCH   7  10
BRANCH   1  16
ATOM     16  C   UNL     1       5.766  -4.449  -4.037  0.00  0.00    +0.339 C 
ATOM     17  O   UNL     1       5.554  -4.704  -5.207  0.00  0.00    -0.245 OA
BRANCH  16  18
ATOM     18  O   UNL     1       4.861  -4.795  -3.097  0.00  0.00    -0.462 OA
BRANCH  18  20
ATOM     19  C   UNL     1       2.780  -5.769  -2.349  0.00  0.00    +0.048 C 
ATOM     20  C   UNL     1       3.679  -5.458  -3.548  0.00  0.00    +0.229 C 
ENDBRANCH  18  20
ENDBRANCH  16  18
ENDBRANCH   1  16
BRANCH   2  21
ATOM     21  C   UNL     1       5.688  -1.682  -3.477  0.00  0.00    +0.283 C 
BRANCH  21  22
ATOM     22  O   UNL     1       5.319  -1.198  -2.158  0.00  0.00    -0.458 OA
BRANCH  22  23
ATOM     23  C   UNL     1       4.193  -0.474  -2.067  0.00  0.00    +0.312 C 
ATOM     24  O   UNL     1       3.537  -0.251  -3.056  0.00  0.00    -0.250 OA
BRANCH  23  25
ATOM     25  C   UNL     1       3.747   0.061  -0.730  0.00  0.00    +0.155 C 
BRANCH  25  26
ATOM     26  C   UNL     1       2.465   0.834  -0.901  0.00  0.00    -0.037 A 
ATOM     27  C   UNL     1       1.248   0.187  -0.788  0.00  0.00    +0.005 A 
ATOM     28  C   UNL     1       0.072   0.895  -0.945  0.00  0.00    +0.015 A 
ATOM     29  C   UNL     1       0.111   2.251  -1.215  0.00  0.00    +0.018 A 
ATOM     30  C   UNL     1       1.329   2.897  -1.328  0.00  0.00    +0.015 A 
ATOM     31  C   UNL     1       2.505   2.189  -1.171  0.00  0.00    +0.005 A 
ATOM     32 BR   UNL     1      -1.498   3.218  -1.438  0.00  0.00    -0.050 Br
ENDBRANCH  25  26
ENDBRANCH  23  25
ENDBRANCH  22  23
ENDBRANCH  21  22
ENDBRANCH   2  21
TORSDOF 9
