REMARK  Name = ZINC02857720
REMARK  13 active torsions:
REMARK  status: ('A' for Active; 'I' for Inactive)
REMARK    1  A    between atoms: C_1  and  C_2
REMARK    2  A    between atoms: C_2  and  C_3
REMARK    3  A    between atoms: C_2  and  C_4
REMARK    4  A    between atoms: C_2  and  C_5
REMARK    5  A    between atoms: C_12  and  N_16
REMARK    6  A    between atoms: C_13  and  C_14
REMARK    7  A    between atoms: C_17  and  C_19
REMARK    8  A    between atoms: C_19  and  S_20
REMARK    9  A    between atoms: S_20  and  C_21
REMARK   10  A    between atoms: C_24  and  C_29
REMARK   11  A    between atoms: N_25  and  C_26
REMARK   12  A    between atoms: C_26  and  C_27
REMARK   13  A    between atoms: C_34  and  O_35
REMARK                            x       y       z     vdW  Elec       q    Type
REMARK                         _______ _______ _______ _____ _____    ______ ____
ROOT
ATOM      1  N   UNL     1       1.378  -9.395  -0.673  0.00  0.00    -0.278 N 
ATOM      2  C   UNL     1       2.167  -8.302  -0.661  0.00  0.00    +0.228 C 
ATOM      3  O   UNL     1       3.363  -8.415  -0.827  0.00  0.00    -0.275 OA
ATOM      4  H   UNL     1       0.422  -9.305  -0.541  0.00  0.00    +0.155 HD
ENDROOT
BRANCH   1  11
ATOM      5  C   UNL     1       3.955 -15.220  -1.224  0.00  0.00    -0.000 C 
ATOM      6  C   UNL     1       2.595 -15.368  -1.913  0.00  0.00    +0.009 C 
ATOM      7  C   UNL     1       1.563 -14.474  -1.225  0.00  0.00    +0.037 C 
ATOM      8  C   UNL     1       2.116 -13.056  -1.148  0.00  0.00    -0.018 A 
ATOM      9  C   UNL     1       3.438 -12.816  -1.293  0.00  0.00    -0.004 A 
ATOM     10  S   UNL     1       3.598 -11.060  -1.139  0.00  0.00    -0.077 S 
ATOM     11  C   UNL     1       1.935 -10.650  -0.875  0.00  0.00    +0.090 A 
ATOM     12  C   UNL     1       1.296 -11.880  -0.920  0.00  0.00    +0.084 A 
ATOM     13  C   UNL     1       4.518 -13.826  -1.535  0.00  0.00    +0.047 C 
BRANCH   5  15
ATOM     14  C   UNL     1       5.089 -16.121  -3.260  0.00  0.00    +0.011 C 
ATOM     15  C   UNL     1       4.915 -16.289  -1.750  0.00  0.00    -0.035 C 
ATOM     16  C   UNL     1       6.273 -16.139  -1.060  0.00  0.00    +0.011 C 
ATOM     17  C   UNL     1       4.344 -17.677  -1.454  0.00  0.00    +0.011 C 
ENDBRANCH   5  15
BRANCH  12  18
ATOM     18  C   UNL     1      -0.122 -11.985  -0.748  0.00  0.00    +0.102 C 
ATOM     19  N   UNL     1      -1.247 -12.069  -0.612  0.00  0.00    -0.191 NA
ENDBRANCH  12  18
ENDBRANCH   1  11
BRANCH   2  20
ATOM     20  C   UNL     1       1.562  -6.939  -0.442  0.00  0.00    +0.173 C 
BRANCH  20  21
ATOM     21  S   UNL     1       2.868  -5.686  -0.480  0.00  0.00    -0.077 S 
BRANCH  21  22
ATOM     22  C   UNL     1       1.907  -4.235  -0.206  0.00  0.00    +0.193 A 
ATOM     23  N   UNL     1       0.606  -4.182  -0.034  0.00  0.00    -0.122 NA
ATOM     24  N   UNL     1       0.232  -2.965   0.141  0.00  0.00    -0.128 NA
ATOM     25  C   UNL     1       1.272  -2.165   0.091  0.00  0.00    +0.169 A 
ATOM     26  N   UNL     1       2.376  -2.953  -0.139  0.00  0.00    -0.298 N 
BRANCH  25  27
ATOM     27  C   UNL     1       1.258  -0.696   0.245  0.00  0.00    +0.061 A 
ATOM     28  C   UNL     1       1.930   0.112  -0.672  0.00  0.00    +0.015 A 
ATOM     29  C   UNL     1       1.913   1.484  -0.523  0.00  0.00    +0.001 A 
ATOM     30  C   UNL     1       1.231   2.062   0.534  0.00  0.00    +0.004 A 
ATOM     31  C   UNL     1       0.561   1.272   1.449  0.00  0.00    +0.046 A 
ATOM     32  C   UNL     1       0.569  -0.107   1.313  0.00  0.00    +0.128 A 
BRANCH  32  33
ATOM     33  O   UNL     1      -0.089  -0.885   2.212  0.00  0.00    -0.506 OA
ATOM     34  H   UNL     1      -1.009  -1.065   1.976  0.00  0.00    +0.292 HD
ENDBRANCH  32  33
ENDBRANCH  25  27
BRANCH  26  35
ATOM     35  C   UNL     1       3.765  -2.510  -0.279  0.00  0.00    +0.152 C 
BRANCH  35  36
ATOM     36  C   UNL     1       4.423  -2.482   1.077  0.00  0.00    -0.013 C 
ATOM     37  C   UNL     1       5.532  -3.147   1.281  0.00  0.00    +0.005 C 
ENDBRANCH  35  36
ENDBRANCH  26  35
ENDBRANCH  21  22
ENDBRANCH  20  21
ENDBRANCH   2  20
TORSDOF 10
