REMARK  Name = ZINC36500596
REMARK  16 active torsions:
REMARK  status: ('A' for Active; 'I' for Inactive)
REMARK    1  A    between atoms: C_1  and  C_2
REMARK    2  A    between atoms: C_2  and  C_3
REMARK    3  A    between atoms: C_2  and  C_4
REMARK    4  A    between atoms: C_2  and  N_5
REMARK    5  A    between atoms: C_6  and  C_8
REMARK    6  A    between atoms: C_8  and  C_10
REMARK    7  A    between atoms: C_8  and  N_20
REMARK    8  A    between atoms: C_13  and  O_18
REMARK    9  A    between atoms: C_14  and  O_16
REMARK   10  A    between atoms: O_16  and  C_17
REMARK   11  A    between atoms: O_18  and  C_19
REMARK   12  A    between atoms: N_20  and  C_21
REMARK   13  A    between atoms: C_21  and  C_22
REMARK   14  A    between atoms: C_27  and  C_29
REMARK   15  A    between atoms: C_30  and  O_36
REMARK   16  A    between atoms: C_34  and  O_35
REMARK                            x       y       z     vdW  Elec       q    Type
REMARK                         _______ _______ _______ _____ _____    ______ ____
ROOT
ATOM      1  C   UNL     1       2.321  -0.584  -2.792  0.00  0.00    +0.193 C 
ENDROOT
BRANCH   1   2
ATOM      2  C   UNL     1       1.745   0.162  -3.968  0.00  0.00    -0.015 A 
ATOM      3  C   UNL     1       2.230   1.415  -4.294  0.00  0.00    +0.010 A 
ATOM      4  C   UNL     1       1.705   2.103  -5.372  0.00  0.00    +0.050 A 
ATOM      5  C   UNL     1       0.691   1.537  -6.129  0.00  0.00    +0.162 A 
ATOM      6  C   UNL     1       0.204   0.276  -5.801  0.00  0.00    +0.162 A 
ATOM      7  C   UNL     1       0.738  -0.411  -4.722  0.00  0.00    +0.055 A 
BRANCH   6   8
ATOM      8  O   UNL     1      -0.791  -0.284  -6.540  0.00  0.00    -0.491 OA
ATOM      9  C   UNL     1      -1.241  -1.581  -6.145  0.00  0.00    +0.277 C 
ENDBRANCH   6   8
BRANCH   5  10
ATOM     10  O   UNL     1       0.174   2.213  -7.189  0.00  0.00    -0.491 OA
ATOM     11  C   UNL     1       0.722   3.503  -7.466  0.00  0.00    +0.277 C 
ENDBRANCH   5  10
ENDBRANCH   1   2
BRANCH   1  13
ATOM     12  N   UNL     1       0.343   0.017  -1.435  0.00  0.00    -0.309 N 
ATOM     13  C   UNL     1       1.684  -0.086  -1.521  0.00  0.00    +0.239 C 
ATOM     14  O   UNL     1       2.378   0.221  -0.575  0.00  0.00    -0.273 OA
ATOM     15  H   UNL     1      -0.212  -0.229  -2.192  0.00  0.00    +0.149 HD
BRANCH  12  17
ATOM     16  C   UNL     1       0.223   1.915   0.103  0.00  0.00    +0.031 C 
ATOM     17  C   UNL     1      -0.277   0.501  -0.199  0.00  0.00    +0.026 C 
ATOM     18  C   UNL     1       0.097  -0.429   0.957  0.00  0.00    +0.031 C 
ATOM     19  C   UNL     1      -1.798   0.523  -0.365  0.00  0.00    +0.031 C 
ENDBRANCH  12  17
ENDBRANCH   1  13
BRANCH   1  20
ATOM     20  N   UNL     1       3.768  -0.361  -2.733  0.00  0.00    -0.274 N 
ATOM     21  C   UNL     1       4.585  -1.006  -3.589  0.00  0.00    +0.255 C 
ATOM     22  O   UNL     1       4.121  -1.774  -4.410  0.00  0.00    -0.270 OA
BRANCH  21  23
ATOM     23  C   UNL     1       6.039  -0.782  -3.530  0.00  0.00    +0.119 A 
ATOM     24  C   UNL     1       6.845  -1.590  -2.715  0.00  0.00    +0.133 A 
ATOM     25  C   UNL     1       8.213  -1.370  -2.667  0.00  0.00    +0.046 A 
ATOM     26  C   UNL     1       8.782  -0.359  -3.418  0.00  0.00    +0.007 A 
ATOM     27  C   UNL     1       7.996   0.443  -4.225  0.00  0.00    +0.046 A 
ATOM     28  C   UNL     1       6.628   0.237  -4.292  0.00  0.00    +0.133 A 
BRANCH  28  29
ATOM     29  O   UNL     1       5.860   1.022  -5.089  0.00  0.00    -0.506 OA
ATOM     30  H   UNL     1       5.522   1.816  -4.652  0.00  0.00    +0.292 HD
ENDBRANCH  28  29
BRANCH  24  31
ATOM     31  O   UNL     1       6.289  -2.582  -1.976  0.00  0.00    -0.506 OA
ATOM     32  H   UNL     1       6.241  -3.433  -2.432  0.00  0.00    +0.292 HD
ENDBRANCH  24  31
ENDBRANCH  21  23
BRANCH  20  33
ATOM     33  C   UNL     1       4.327   0.564  -1.744  0.00  0.00    +0.183 C 
BRANCH  33  34
ATOM     34  C   UNL     1       4.819  -0.214  -0.551  0.00  0.00    +0.122 A 
ATOM     35  C   UNL     1       6.094  -0.576  -0.320  0.00  0.00    +0.046 A 
ATOM     36  C   UNL     1       6.103  -1.285   0.903  0.00  0.00    +0.041 A 
ATOM     37  C   UNL     1       4.834  -1.314   1.347  0.00  0.00    +0.195 A 
ATOM     38  O   UNL     1       4.061  -0.659   0.464  0.00  0.00    -0.466 OA
ENDBRANCH  33  34
ENDBRANCH  20  33
ENDBRANCH   1  20
TORSDOF 11
