REMARK  Name = ZINC09520242
REMARK  8 active torsions:
REMARK  status: ('A' for Active; 'I' for Inactive)
REMARK    1  A    between atoms: C_1  and  C_2
REMARK    2  A    between atoms: C_2  and  C_3
REMARK    3  A    between atoms: N_11  and  C_12
REMARK    4  A    between atoms: C_12  and  C_14
REMARK    5  A    between atoms: N_19  and  S_20
REMARK    6  A    between atoms: S_20  and  C_23
REMARK    7  A    between atoms: N_29  and  C_30
REMARK    8  A    between atoms: C_30  and  C_31
REMARK                            x       y       z     vdW  Elec       q    Type
REMARK                         _______ _______ _______ _____ _____    ______ ____
ROOT
ATOM      1  C   UNL     1       0.067  -2.288  -1.158  0.00  0.00    +0.257 C 
ATOM      2  O   UNL     1      -0.470  -2.709  -0.151  0.00  0.00    -0.272 OA
ENDROOT
BRANCH   1  11
ATOM      3  C   UNL     1      -3.939   3.376  -0.281  0.00  0.00    -0.046 A 
ATOM      4  C   UNL     1      -4.658   2.196  -0.378  0.00  0.00    +0.006 A 
ATOM      5  C   UNL     1      -4.027   0.993  -0.587  0.00  0.00    +0.027 A 
ATOM      6  C   UNL     1      -2.631   0.928  -0.720  0.00  0.00    +0.058 A 
ATOM      7  C   UNL     1      -1.930   2.138  -0.618  0.00  0.00    +0.039 A 
ATOM      8  C   UNL     1      -2.562   3.341  -0.403  0.00  0.00    +0.020 A 
ATOM      9  S   UNL     1      -0.238   1.647  -0.827  0.00  0.00    -0.052 S 
ATOM     10  C   UNL     1      -0.492  -0.056  -1.033  0.00  0.00    +0.167 A 
ATOM     11  N   UNL     1       0.416  -1.008  -1.238  0.00  0.00    -0.155 NA
ATOM     12  N   UNL     1      -1.842  -0.186  -0.936  0.00  0.00    -0.317 N 
BRANCH   3  14
ATOM     13  C   UNL     1      -5.011   5.317  -1.391  0.00  0.00    +0.009 C 
ATOM     14  C   UNL     1      -4.650   4.684  -0.046  0.00  0.00    +0.032 C 
ENDBRANCH   3  14
BRANCH  12  15
ATOM     15  C   UNL     1      -2.460  -1.508  -1.061  0.00  0.00    +0.151 C 
BRANCH  15  16
ATOM     16  C   UNL     1      -2.768  -2.050   0.311  0.00  0.00    -0.013 C 
ATOM     17  C   UNL     1      -3.985  -2.435   0.605  0.00  0.00    +0.005 C 
ENDBRANCH  15  16
ENDBRANCH  12  15
ENDBRANCH   1  11
BRANCH   1  18
ATOM     18  C   UNL     1       0.337  -3.216  -2.314  0.00  0.00    +0.168 C 
ATOM     19  C   UNL     1      -0.953  -3.432  -3.144  0.00  0.00    +0.031 C 
ATOM     20  C   UNL     1      -0.667  -4.802  -3.813  0.00  0.00    +0.019 C 
ATOM     21  C   UNL     1       0.115  -5.563  -2.722  0.00  0.00    +0.110 C 
ATOM     22  N   UNL     1       0.697  -4.558  -1.821  0.00  0.00    -0.164 NA
BRANCH  22  23
ATOM     23  S   UNL     1       1.609  -4.879  -0.476  0.00  0.00    +0.068 S 
ATOM     24  O   UNL     1       2.326  -6.075  -0.748  0.00  0.00    -0.152 OA
ATOM     25  O   UNL     1       2.257  -3.665  -0.125  0.00  0.00    -0.152 OA
BRANCH  23  26
ATOM     26  C   UNL     1       0.490  -5.250   0.835  0.00  0.00    +0.144 A 
ATOM     27  C   UNL     1      -0.115  -6.425   1.133  0.00  0.00    +0.038 A 
ATOM     28  C   UNL     1      -0.961  -6.486   2.224  0.00  0.00    +0.030 A 
ATOM     29  C   UNL     1      -1.169  -5.364   2.958  0.00  0.00    +0.080 A 
ATOM     30  S   UNL     1      -0.145  -4.173   2.109  0.00  0.00    -0.057 S 
ATOM     31 CL   UNL     1      -2.170  -5.143   4.359  0.00  0.00    -0.076 Cl
ENDBRANCH  23  26
ENDBRANCH  22  23
ENDBRANCH   1  18
TORSDOF 7
