REMARK  Name = ZINC63140768
REMARK  11 active torsions:
REMARK  status: ('A' for Active; 'I' for Inactive)
REMARK    1  A    between atoms: C_1  and  C_2
REMARK    2  A    between atoms: C_2  and  C_3
REMARK    3  A    between atoms: C_2  and  C_4
REMARK    4  A    between atoms: C_4  and  N_5
REMARK    5  A    between atoms: C_25  and  C_27
REMARK    6  A    between atoms: C_30  and  O_35
REMARK    7  A    between atoms: C_31  and  O_33
REMARK    8  A    between atoms: O_33  and  C_34
REMARK    9  A    between atoms: O_35  and  C_36
REMARK   10  A    between atoms: C_36  and  C_37
REMARK   11  A    between atoms: C_36  and  C_38
REMARK                            x       y       z     vdW  Elec       q    Type
REMARK                         _______ _______ _______ _____ _____    ______ ____
ROOT
ATOM      1  N   UNL     1      -2.805  -1.383  -0.544  0.00  0.00    -0.291 N 
ATOM      2  C   UNL     1      -2.709  -2.037  -1.839  0.00  0.00    +0.203 C 
ATOM      3  C   UNL     1      -2.394  -3.491  -1.716  0.00  0.00    +0.234 C 
ATOM      4  O   UNL     1      -2.293  -4.134  -2.739  0.00  0.00    -0.274 OA
ATOM      5  N   UNL     1      -2.215  -4.135  -0.557  0.00  0.00    -0.279 N 
ATOM      6  C   UNL     1      -2.293  -3.465   0.737  0.00  0.00    +0.167 C 
ATOM      7  C   UNL     1      -2.614  -2.013   0.614  0.00  0.00    +0.237 C 
ATOM      8  O   UNL     1      -2.713  -1.365   1.635  0.00  0.00    -0.274 OA
ATOM      9  C   UNL     1      -0.964  -3.635   1.497  0.00  0.00    +0.065 C 
ATOM     10  C   UNL     1      -0.582  -5.089   1.375  0.00  0.00    -0.034 C 
ATOM     11  C   UNL     1      -0.239  -5.989   2.289  0.00  0.00    -0.001 A 
ATOM     12  C   UNL     1       0.003  -5.872   3.736  0.00  0.00    +0.010 A 
ATOM     13  C   UNL     1       0.324  -7.024   4.385  0.00  0.00    +0.001 A 
ATOM     14  C   UNL     1       0.427  -8.263   3.746  0.00  0.00    +0.002 A 
ATOM     15  C   UNL     1       0.231  -8.460   2.418  0.00  0.00    +0.026 A 
ATOM     16  C   UNL     1      -0.104  -7.322   1.628  0.00  0.00    +0.043 A 
ATOM     17  N   UNL     1      -0.319  -7.220   0.349  0.00  0.00    -0.375 N 
ATOM     18  C   UNL     1      -0.556  -5.811   0.033  0.00  0.00    +0.131 C 
ATOM     19  C   UNL     1      -1.927  -5.586  -0.610  0.00  0.00    +0.134 C 
ATOM     20  H   UNL     1      -0.322  -7.952  -0.286  0.00  0.00    +0.160 HD
ENDROOT
BRANCH  19  21
ATOM     21  C   UNL     1      -2.981  -6.345   0.154  0.00  0.00    -0.021 A 
ATOM     22  C   UNL     1      -3.189  -6.075   1.494  0.00  0.00    +0.009 A 
ATOM     23  C   UNL     1      -4.155  -6.768   2.200  0.00  0.00    +0.050 A 
ATOM     24  C   UNL     1      -4.916  -7.736   1.565  0.00  0.00    +0.162 A 
ATOM     25  C   UNL     1      -4.707  -8.007   0.216  0.00  0.00    +0.162 A 
ATOM     26  C   UNL     1      -3.741  -7.305  -0.487  0.00  0.00    +0.055 A 
BRANCH  25  27
ATOM     27  O   UNL     1      -5.452  -8.955  -0.412  0.00  0.00    -0.491 OA
ATOM     28  C   UNL     1      -5.182  -9.180  -1.797  0.00  0.00    +0.277 C 
ENDBRANCH  25  27
BRANCH  24  29
ATOM     29  O   UNL     1      -5.866  -8.419   2.258  0.00  0.00    -0.486 OA
BRANCH  29  30
ATOM     30  C   UNL     1      -5.945  -8.175   3.664  0.00  0.00    +0.167 C 
ATOM     31  C   UNL     1      -6.818  -6.945   3.920  0.00  0.00    +0.051 C 
ATOM     32  C   UNL     1      -6.561  -9.391   4.359  0.00  0.00    +0.051 C 
ENDBRANCH  29  30
ENDBRANCH  24  29
ENDBRANCH  19  21
BRANCH   1  33
ATOM     33  C   UNL     1      -3.122   0.046  -0.512  0.00  0.00    +0.111 C 
BRANCH  33  35
ATOM     34  C   UNL     1      -2.161   2.348  -0.653  0.00  0.00    +0.009 C 
ATOM     35  C   UNL     1      -1.826   0.858  -0.561  0.00  0.00    +0.000 C 
ATOM     36  C   UNL     1      -1.011   0.595   0.707  0.00  0.00    +0.009 C 
ENDBRANCH  33  35
ENDBRANCH   1  33
TORSDOF 6
