REMARK  Name = ZINC12297510
REMARK  13 active torsions:
REMARK  status: ('A' for Active; 'I' for Inactive)
REMARK    1  A    between atoms: C_1  and  C_2
REMARK    2  A    between atoms: C_2  and  N_3
REMARK    3  A    between atoms: C_5  and  C_9
REMARK    4  A    between atoms: C_6  and  C_8
REMARK    5  A    between atoms: C_9  and  N_59
REMARK    6  A    between atoms: C_10  and  C_11
REMARK    7  A    between atoms: C_10  and  N_59
REMARK    8  A    between atoms: C_14  and  C_26
REMARK    9  A    between atoms: C_14  and  C_27
REMARK   10  A    between atoms: C_15  and  C_17
REMARK   11  A    between atoms: C_24  and  C_25
REMARK   12  A    between atoms: C_24  and  N_62
REMARK   13  A    between atoms: C_27  and  O_28
REMARK                            x       y       z     vdW  Elec       q    Type
REMARK                         _______ _______ _______ _____ _____    ______ ____
ROOT
ATOM      1  C   UNL     1       6.018   1.273   2.787  0.00  0.00    -0.039 C 
ATOM      2  C   UNL     1       5.695   0.058   3.687  0.00  0.00    -0.010 C 
ATOM      3  C   UNL     1       6.950  -0.050   4.589  0.00  0.00    -0.044 C 
ATOM      4  C   UNL     1       7.552   1.404   2.821  0.00  0.00    -0.035 C 
ATOM      5  C   UNL     1       6.870   0.947   5.747  0.00  0.00    -0.007 C 
ATOM      6  N   UNL     1       8.034   0.300   3.663  0.00  0.00    +0.389 N 
ATOM      7  H   UNL     1       8.263  -0.510   3.076  0.00  0.00    -0.080 HD
ENDROOT
BRANCH   4   8
ATOM      8  C   UNL     1       8.109   1.281   1.426  0.00  0.00    -0.061 A 
ATOM      9  C   UNL     1       8.273   0.033   0.855  0.00  0.00    +0.003 A 
ATOM     10  C   UNL     1       8.778  -0.080  -0.426  0.00  0.00    +0.020 A 
ATOM     11  C   UNL     1       9.130   1.056  -1.134  0.00  0.00    +0.041 A 
ATOM     12  C   UNL     1       8.970   2.305  -0.560  0.00  0.00    +0.020 A 
ATOM     13  C   UNL     1       8.460   2.417   0.720  0.00  0.00    +0.003 A 
ATOM     14 CL   UNL     1       9.771   0.914  -2.740  0.00  0.00    -0.084 Cl
ENDBRANCH   4   8
BRANCH   6  15
ATOM     15  C   UNL     1       9.254   0.720   4.416  0.00  0.00    -0.081 C 
ATOM     16  C   UNL     1      10.284   1.305   3.449  0.00  0.00    -0.017 C 
ENDBRANCH   6  15
BRANCH   1  17
ATOM     17  C   UNL     1       5.538   1.018   1.357  0.00  0.00    -0.080 C 
BRANCH  17  18
ATOM     18  N   UNL     1       4.064   0.983   1.341  0.00  0.00    +0.382 N 
ATOM     19  H   UNL     1       3.736   0.231   1.958  0.00  0.00    -0.085 HD
ATOM     20  H   UNL     1       3.700   1.883   1.675  0.00  0.00    -0.085 HD
BRANCH  18  21
ATOM     21  C   UNL     1       3.572   0.738  -0.028  0.00  0.00    -0.043 C 
BRANCH  21  24
ATOM     22  N   UNL     1       0.002  -0.004   0.002  0.00  0.00    -0.271 N 
ATOM     23  C   UNL     1       1.292  -0.402  -0.012  0.00  0.00    +0.110 A 
ATOM     24  C   UNL     1       2.066   0.708  -0.014  0.00  0.00    -0.024 A 
ATOM     25  C   UNL     1       1.220   1.822   0.000  0.00  0.00    +0.061 A 
ATOM     26  N   UNL     1      -0.017   1.397   0.010  0.00  0.00    -0.176 NA
ATOM     27  C   UNL     1       1.659   3.264   0.004  0.00  0.00    +0.068 C 
BRANCH  22  29
ATOM     28  C   UNL     1      -2.064  -0.532   1.200  0.00  0.00    +0.029 C 
ATOM     29  C   UNL     1      -1.171  -0.882   0.008  0.00  0.00    +0.140 C 
ENDBRANCH  22  29
ENDBRANCH  21  24
ENDBRANCH  18  21
ENDBRANCH  17  18
ENDBRANCH   1  17
BRANCH   3  30
ATOM     30  C   UNL     1       7.115  -1.476   5.117  0.00  0.00    +0.143 C 
BRANCH  30  31
ATOM     31  O   UNL     1       5.979  -1.825   5.910  0.00  0.00    -0.396 OA
ATOM     32  H   UNL     1       6.016  -2.718   6.279  0.00  0.00    +0.209 HD
ENDBRANCH  30  31
ENDBRANCH   3  30
TORSDOF 9
