REMARK  Name = ZINC35926783
REMARK  4 active torsions:
REMARK  status: ('A' for Active; 'I' for Inactive)
REMARK    1  A    between atoms: C_5  and  N_7
REMARK    2  A    between atoms: N_10  and  C_13
REMARK    3  A    between atoms: C_13  and  C_14
REMARK    4  A    between atoms: N_30  and  C_31
REMARK                            x       y       z     vdW  Elec       q    Type
REMARK                         _______ _______ _______ _____ _____    ______ ____
ROOT
ATOM      1  C   UNL     1       3.267  -6.958  -0.953  0.00  0.00    +0.034 A 
ATOM      2  C   UNL     1       4.371  -7.264  -1.695  0.00  0.00    +0.091 A 
ATOM      3  C   UNL     1       4.306  -8.340  -2.598  0.00  0.00    +0.253 A 
ATOM      4  O   UNL     1       5.274  -8.641  -3.277  0.00  0.00    -0.268 OA
ATOM      5  N   UNL     1       3.152  -9.034  -2.699  0.00  0.00    -0.295 N 
ATOM      6  H   UNL     1       3.086  -9.780  -3.316  0.00  0.00    +0.172 HD
ATOM      7  C   UNL     1       2.084  -8.683  -1.934  0.00  0.00    +0.198 A 
ATOM      8  N   UNL     1       2.154  -7.676  -1.086  0.00  0.00    -0.223 NA
ATOM      9  N   UNL     1       0.917  -9.391  -2.042  0.00  0.00    -0.298 N 
ATOM     10  C   UNL     1       0.766 -10.431  -3.069  0.00  0.00    +0.127 C 
ATOM     11  C   UNL     1       0.370 -11.744  -2.383  0.00  0.00    +0.128 C 
ATOM     12  N   UNL     1      -0.753 -11.478  -1.473  0.00  0.00    -0.282 N 
ATOM     13  C   UNL     1      -0.602 -10.439  -0.446  0.00  0.00    +0.128 C 
ATOM     14  C   UNL     1      -0.204  -9.129  -1.129  0.00  0.00    +0.127 C 
ATOM     15  C   UNL     1      -1.901 -12.176  -1.580  0.00  0.00    +0.307 C 
ATOM     16  O   UNL     1      -1.971 -13.121  -2.342  0.00  0.00    -0.252 OA
ATOM     17  N   UNL     1      -2.973 -11.825  -0.842  0.00  0.00    -0.269 N 
ATOM     18  H   UNL     1      -2.965 -10.997  -0.337  0.00  0.00    +0.156 HD
ENDROOT
BRANCH  17  19
ATOM     19  C   UNL     1      -4.099 -12.657  -0.803  0.00  0.00    +0.035 A 
ATOM     20  C   UNL     1      -4.360 -13.523  -1.857  0.00  0.00    +0.025 A 
ATOM     21  C   UNL     1      -5.471 -14.343  -1.816  0.00  0.00    +0.022 A 
ATOM     22  C   UNL     1      -6.323 -14.302  -0.727  0.00  0.00    +0.041 A 
ATOM     23  C   UNL     1      -6.065 -13.440   0.325  0.00  0.00    +0.022 A 
ATOM     24  C   UNL     1      -4.952 -12.622   0.292  0.00  0.00    +0.025 A 
ATOM     25 CL   UNL     1      -7.719 -15.333  -0.679  0.00  0.00    -0.084 Cl
ENDBRANCH  17  19
BRANCH   1  26
ATOM     26  C   UNL     1       3.311  -5.810   0.022  0.00  0.00    -0.022 C 
BRANCH  26  30
ATOM     27  N   UNL     1       1.560  -2.197  -1.155  0.00  0.00    -0.331 N 
ATOM     28  C   UNL     1       1.268  -2.668   0.207  0.00  0.00    +0.086 C 
ATOM     29  C   UNL     1       2.329  -3.701   0.601  0.00  0.00    -0.059 C 
ATOM     30  N   UNL     1       2.374  -4.764  -0.411  0.00  0.00    +0.385 N 
ATOM     31  C   UNL     1       2.819  -4.212  -1.696  0.00  0.00    -0.059 C 
ATOM     32  C   UNL     1       1.778  -3.204  -2.205  0.00  0.00    +0.086 C 
ATOM     33  H   UNL     1       1.454  -5.164  -0.518  0.00  0.00    -0.081 HD
BRANCH  27  38
ATOM     34  C   UNL     1       0.543   1.201  -2.123  0.00  0.00    +0.002 A 
ATOM     35  C   UNL     1       1.747   1.875  -2.022  0.00  0.00    +0.003 A 
ATOM     36  C   UNL     1       2.890   1.200  -1.633  0.00  0.00    +0.040 A 
ATOM     37  C   UNL     1       2.832  -0.151  -1.345  0.00  0.00    +0.144 A 
ATOM     38  C   UNL     1       1.623  -0.830  -1.446  0.00  0.00    +0.065 A 
ATOM     39  C   UNL     1       0.478  -0.149  -1.836  0.00  0.00    +0.026 A 
ATOM     40  F   UNL     1       3.949  -0.810  -0.965  0.00  0.00    -0.204 F 
ENDBRANCH  27  38
ENDBRANCH  26  30
ENDBRANCH   1  26
TORSDOF 4
