REMARK  Name = ZINC08733586
REMARK  7 active torsions:
REMARK  status: ('A' for Active; 'I' for Inactive)
REMARK    1  A    between atoms: C_4  and  C_7
REMARK    2  A    between atoms: C_7  and  O_8
REMARK    3  A    between atoms: O_8  and  C_9
REMARK    4  A    between atoms: C_14  and  C_15
REMARK    5  A    between atoms: C_25  and  C_33
REMARK    6  A    between atoms: C_27  and  C_31
REMARK    7  A    between atoms: C_28  and  N_30
REMARK                            x       y       z     vdW  Elec       q    Type
REMARK                         _______ _______ _______ _____ _____    ______ ____
ROOT
ATOM      1  C   UNL     1      -2.419   2.646  -4.693  0.00  0.00    +0.404 C 
ATOM      2  O   UNL     1      -1.224   2.868  -4.669  0.00  0.00    -0.226 OA
ATOM      3  N   UNL     1      -3.209   3.105  -3.702  0.00  0.00    -0.259 N 
ATOM      4  C   UNL     1      -4.662   2.851  -3.706  0.00  0.00    +0.150 C 
ATOM      5  C   UNL     1      -4.972   2.151  -2.400  0.00  0.00    +0.013 C 
ATOM      6  C   UNL     1      -5.881   1.161  -2.348  0.00  0.00    +0.016 C 
ATOM      7  C   UNL     1      -4.252   2.581  -1.185  0.00  0.00    +0.136 C 
ATOM      8  C   UNL     1      -3.171   3.355  -1.266  0.00  0.00    +0.003 C 
ATOM      9  C   UNL     1      -2.655   3.874  -2.586  0.00  0.00    +0.147 C 
ATOM     10  C   UNL     1      -2.422   3.755  -0.015  0.00  0.00    +0.095 C 
ATOM     11  C   UNL     1      -3.293   3.580   1.196  0.00  0.00    +0.098 C 
ATOM     12  C   UNL     1      -4.393   2.788   1.144  0.00  0.00    +0.199 C 
ATOM     13  O   UNL     1      -4.723   2.144   0.013  0.00  0.00    -0.441 OA
ENDROOT
BRANCH   6  14
ATOM     14  C   UNL     1      -6.707   0.858  -3.529  0.00  0.00    -0.024 A 
ATOM     15  C   UNL     1      -7.088   1.881  -4.401  0.00  0.00    +0.011 A 
ATOM     16  C   UNL     1      -7.856   1.589  -5.508  0.00  0.00    +0.039 A 
ATOM     17  C   UNL     1      -8.261   0.286  -5.751  0.00  0.00    +0.123 A 
ATOM     18  C   UNL     1      -7.892  -0.733  -4.886  0.00  0.00    +0.039 A 
ATOM     19  C   UNL     1      -7.119  -0.455  -3.779  0.00  0.00    +0.011 A 
ATOM     20  F   UNL     1      -9.018   0.007  -6.834  0.00  0.00    -0.205 F 
ENDBRANCH   6  14
BRANCH  10  21
ATOM     21  C   UNL     1      -1.193   2.894   0.126  0.00  0.00    -0.035 A 
ATOM     22  C   UNL     1      -1.320   1.523   0.250  0.00  0.00    +0.007 A 
ATOM     23  C   UNL     1      -0.194   0.734   0.386  0.00  0.00    +0.038 A 
ATOM     24  C   UNL     1       1.062   1.315   0.387  0.00  0.00    +0.123 A 
ATOM     25  C   UNL     1       1.189   2.688   0.258  0.00  0.00    +0.038 A 
ATOM     26  C   UNL     1       0.061   3.476   0.128  0.00  0.00    +0.007 A 
ATOM     27  F   UNL     1       2.164   0.544   0.515  0.00  0.00    -0.205 F 
ENDBRANCH  10  21
BRANCH  12  28
ATOM     28  N   UNL     1      -5.178   2.643   2.261  0.00  0.00    -0.328 N 
ATOM     29  H   UNL     1      -4.944   3.105   3.082  0.00  0.00    +0.145 HD
ATOM     30  H   UNL     1      -5.966   2.078   2.231  0.00  0.00    +0.145 HD
ENDBRANCH  12  28
BRANCH  11  31
ATOM     31  C   UNL     1      -2.959   4.254   2.414  0.00  0.00    +0.101 C 
ATOM     32  N   UNL     1      -2.694   4.789   3.381  0.00  0.00    -0.191 NA
ENDBRANCH  11  31
BRANCH   1  33
ATOM     33  O   UNL     1      -2.953   1.942  -5.709  0.00  0.00    -0.445 OA
BRANCH  33  34
ATOM     34  C   UNL     1      -2.043   1.480  -6.740  0.00  0.00    +0.269 C 
BRANCH  34  38
ATOM     35  C   UNL     1      -4.229  -0.683  -9.705  0.00  0.00    +0.000 A 
ATOM     36  C   UNL     1      -4.052   0.681  -9.836  0.00  0.00    +0.000 A 
ATOM     37  C   UNL     1      -3.344   1.381  -8.876  0.00  0.00    +0.007 A 
ATOM     38  C   UNL     1      -2.814   0.717  -7.786  0.00  0.00    -0.010 A 
ATOM     39  C   UNL     1      -2.988  -0.649  -7.658  0.00  0.00    +0.007 A 
ATOM     40  C   UNL     1      -3.700  -1.348  -8.615  0.00  0.00    +0.000 A 
ENDBRANCH  34  38
ENDBRANCH  33  34
ENDBRANCH   1  33
TORSDOF 7
