REMARK  Name = ZINC50154212
REMARK  8 active torsions:
REMARK  status: ('A' for Active; 'I' for Inactive)
REMARK    1  A    between atoms: C_1  and  C_2
REMARK    2  A    between atoms: C_3  and  C_7
REMARK    3  A    between atoms: C_7  and  N_8
REMARK    4  A    between atoms: N_8  and  C_9
REMARK    5  A    between atoms: N_8  and  C_10
REMARK    6  A    between atoms: C_10  and  C_12
REMARK    7  A    between atoms: C_10  and  C_13
REMARK    8  A    between atoms: C_13  and  C_15
REMARK                            x       y       z     vdW  Elec       q    Type
REMARK                         _______ _______ _______ _____ _____    ______ ____
ROOT
ATOM      1  N   UNL     1      -2.926   0.012  -1.347  0.00  0.00    +0.387 N 
ATOM      2  C   UNL     1      -2.884  -1.170  -2.219  0.00  0.00    -0.095 C 
ATOM      3  H   UNL     1      -2.295   0.715  -1.702  0.00  0.00    -0.081 HD
ENDROOT
BRANCH   1   4
ATOM      4  C   UNL     1      -4.293   0.550  -1.318  0.00  0.00    +0.002 C 
ATOM      5  C   UNL     1      -4.715   0.946  -2.734  0.00  0.00    -0.005 C 
BRANCH   4   6
ATOM      6  C   UNL     1      -4.336   1.762  -0.423  0.00  0.00    +0.156 C 
ATOM      7  O   UNL     1      -3.311   2.358  -0.158  0.00  0.00    -0.293 OA
BRANCH   6   8
ATOM      8  C   UNL     1      -5.567   2.205   0.105  0.00  0.00    +0.054 A 
ATOM      9  C   UNL     1      -5.825   3.292   0.937  0.00  0.00    +0.020 A 
ATOM     10  C   UNL     1      -7.137   3.472   1.289  0.00  0.00    +0.028 A 
ATOM     11  C   UNL     1      -8.073   2.605   0.819  0.00  0.00    +0.079 A 
ATOM     12  S   UNL     1      -7.198   1.523  -0.123  0.00  0.00    -0.074 S 
ATOM     13 CL   UNL     1      -9.783   2.617   1.117  0.00  0.00    -0.076 Cl
ENDBRANCH   6   8
ENDBRANCH   4   6
ENDBRANCH   1   4
BRANCH   1  14
ATOM     14  C   UNL     1      -2.521  -0.369   0.012  0.00  0.00    -0.039 C 
BRANCH  14  17
ATOM     15  C   UNL     1      -0.018   1.503   0.010  0.00  0.00    +0.086 C 
ATOM     16  C   UNL     1       0.002  -0.004   0.002  0.00  0.00    +0.103 A 
ATOM     17  C   UNL     1      -1.078  -0.805   0.003  0.00  0.00    -0.023 A 
ATOM     18  C   UNL     1      -0.601  -2.136  -0.007  0.00  0.00    +0.043 A 
ATOM     19  C   UNL     1       0.742  -2.069  -0.013  0.00  0.00    +0.195 A 
ATOM     20  O   UNL     1       1.102  -0.775  -0.013  0.00  0.00    -0.468 OA
ENDBRANCH  14  17
ENDBRANCH   1  14
TORSDOF 5
