REMARK  Name = ZINC36855873
REMARK  6 active torsions:
REMARK  status: ('A' for Active; 'I' for Inactive)
REMARK    1  A    between atoms: C_6  and  N_7
REMARK    2  A    between atoms: C_8  and  C_10
REMARK    3  A    between atoms: C_10  and  S_11
REMARK    4  A    between atoms: S_11  and  C_12
REMARK    5  A    between atoms: C_15  and  C_18
REMARK    6  A    between atoms: N_16  and  N_17
REMARK                            x       y       z     vdW  Elec       q    Type
REMARK                         _______ _______ _______ _____ _____    ______ ____
ROOT
ATOM      1  C   UNL     1      -3.653  -0.856   0.316  0.00  0.00    +0.173 C 
ENDROOT
BRANCH   1   3
ATOM      2  N   UNL     1      -1.189  -0.743   0.134  0.00  0.00    -0.285 N 
ATOM      3  C   UNL     1      -2.363  -0.085   0.199  0.00  0.00    +0.227 C 
ATOM      4  O   UNL     1      -2.382   1.127   0.161  0.00  0.00    -0.275 OA
ATOM      5  H   UNL     1      -1.177  -1.712   0.089  0.00  0.00    +0.155 HD
BRANCH   2  11
ATOM      6  C   UNL     1       0.118   1.159   0.847  0.00  0.00    +0.027 A 
ATOM      7  C   UNL     1       1.306   1.867   0.847  0.00  0.00    +0.051 A 
ATOM      8  C   UNL     1       2.395   1.395   0.137  0.00  0.00    +0.167 A 
ATOM      9  C   UNL     1       2.295   0.202  -0.580  0.00  0.00    +0.169 A 
ATOM     10  C   UNL     1       1.107  -0.506  -0.581  0.00  0.00    +0.072 A 
ATOM     11  C   UNL     1       0.016  -0.027   0.134  0.00  0.00    +0.037 A 
ATOM     12  O   UNL     1       3.500  -0.038  -1.186  0.00  0.00    -0.447 OA
ATOM     13  C   UNL     1       4.127   1.252  -1.226  0.00  0.00    +0.254 C 
ATOM     14  O   UNL     1       3.663   1.890  -0.027  0.00  0.00    -0.448 OA
ATOM     15  C   UNL     1       3.706   2.037  -2.472  0.00  0.00    +0.093 C 
ATOM     16  C   UNL     1       4.975   2.843  -2.853  0.00  0.00    +0.008 C 
ATOM     17  C   UNL     1       6.123   1.855  -2.528  0.00  0.00    +0.008 C 
ATOM     18  C   UNL     1       5.651   1.135  -1.244  0.00  0.00    +0.093 C 
ENDBRANCH   2  11
ENDBRANCH   1   3
BRANCH   1  19
ATOM     19  S   UNL     1      -5.046   0.304   0.380  0.00  0.00    -0.075 S 
BRANCH  19  20
ATOM     20  C   UNL     1      -6.461  -0.737   0.516  0.00  0.00    +0.209 A 
ATOM     21  N   UNL     1      -6.461  -2.051   0.563  0.00  0.00    -0.121 NA
ATOM     22  N   UNL     1      -7.665  -2.489   0.662  0.00  0.00    -0.127 NA
ATOM     23  C   UNL     1      -8.508  -1.483   0.684  0.00  0.00    +0.183 A 
ATOM     24  N   UNL     1      -7.763  -0.330   0.597  0.00  0.00    -0.224 N 
BRANCH  23  25
ATOM     25  C   UNL     1      -9.980  -1.571   0.789  0.00  0.00    +0.039 A 
ATOM     26  C   UNL     1     -10.790  -0.837  -0.078  0.00  0.00    +0.014 A 
ATOM     27  C   UNL     1     -12.162  -0.924   0.024  0.00  0.00    +0.021 A 
ATOM     28  C   UNL     1     -12.738  -1.739   0.985  0.00  0.00    +0.042 A 
ATOM     29  C   UNL     1     -11.941  -2.470   1.848  0.00  0.00    +0.040 A 
ATOM     30  C   UNL     1     -10.566  -2.396   1.753  0.00  0.00    +0.053 A 
ATOM     31 CL   UNL     1      -9.567  -3.319   2.831  0.00  0.00    -0.083 Cl
ATOM     32 CL   UNL     1     -14.467  -1.842   1.107  0.00  0.00    -0.083 Cl
ENDBRANCH  23  25
BRANCH  24  33
ATOM     33  N   UNL     1      -8.227   0.955   0.590  0.00  0.00    -0.295 N 
ATOM     34  H   UNL     1      -8.361   1.286  -0.354  0.00  0.00    +0.163 HD
ATOM     35  H   UNL     1      -9.079   1.035   1.125  0.00  0.00    +0.163 HD
ENDBRANCH  24  33
ENDBRANCH  19  20
ENDBRANCH   1  19
TORSDOF 6
