REMARK  Name = ZINC04545242
REMARK  7 active torsions:
REMARK  status: ('A' for Active; 'I' for Inactive)
REMARK    1  A    between atoms: C_1  and  C_2
REMARK    2  A    between atoms: C_2  and  C_3
REMARK    3  A    between atoms: C_3  and  N_4
REMARK    4  A    between atoms: C_8  and  C_9
REMARK    5  A    between atoms: C_12  and  C_14
REMARK    6  A    between atoms: C_21  and  C_27
REMARK    7  A    between atoms: C_22  and  C_25
REMARK                            x       y       z     vdW  Elec       q    Type
REMARK                         _______ _______ _______ _____ _____    ______ ____
ROOT
ATOM      1  N   UNL     1       3.447  -5.380   0.264  0.00  0.00    -0.234 N 
ATOM      2  C   UNL     1       4.231  -4.323  -0.014  0.00  0.00    +0.254 C 
ATOM      3  O   UNL     1       5.426  -4.483  -0.181  0.00  0.00    -0.270 OA
ATOM      4  C   UNL     1       3.653  -2.977  -0.118  0.00  0.00    +0.045 C 
ATOM      5  C   UNL     1       4.469  -1.876  -0.408  0.00  0.00    +0.059 C 
ATOM      6  C   UNL     1       2.269  -2.805   0.082  0.00  0.00    -0.016 C 
ATOM      7  C   UNL     1       1.491  -3.922   0.362  0.00  0.00    +0.117 C 
ATOM      8  C   UNL     1       2.123  -5.239   0.453  0.00  0.00    +0.264 C 
ATOM      9  O   UNL     1       1.444  -6.217   0.704  0.00  0.00    -0.269 OA
ATOM     10  C   UNL     1       1.643  -1.438  -0.012  0.00  0.00    +0.046 C 
ENDROOT
BRANCH   5  11
ATOM     11  C   UNL     1       3.909  -0.712  -0.938  0.00  0.00    +0.129 A 
ATOM     12  C   UNL     1       4.214   0.592  -0.551  0.00  0.00    +0.050 A 
ATOM     13  C   UNL     1       3.431   1.435  -1.332  0.00  0.00    +0.050 A 
ATOM     14  C   UNL     1       2.676   0.632  -2.167  0.00  0.00    +0.136 A 
ATOM     15  O   UNL     1       2.973  -0.653  -1.911  0.00  0.00    -0.455 OA
BRANCH  14  16
ATOM     16  C   UNL     1       1.703   1.106  -3.167  0.00  0.00    +0.017 A 
ATOM     17  C   UNL     1       1.000   0.188  -3.953  0.00  0.00    +0.013 A 
ATOM     18  C   UNL     1       0.094   0.639  -4.890  0.00  0.00    +0.021 A 
ATOM     19  C   UNL     1      -0.127   1.998  -5.046  0.00  0.00    +0.041 A 
ATOM     20  C   UNL     1       0.566   2.913  -4.271  0.00  0.00    +0.021 A 
ATOM     21  C   UNL     1       1.478   2.476  -3.334  0.00  0.00    +0.013 A 
ATOM     22 CL   UNL     1      -1.273   2.556  -6.224  0.00  0.00    -0.084 Cl
ENDBRANCH  14  16
ENDBRANCH   5  11
BRANCH   7  23
ATOM     23  C   UNL     1       0.080  -3.785   0.565  0.00  0.00    +0.105 C 
ATOM     24  N   UNL     1      -1.039  -3.676   0.727  0.00  0.00    -0.191 NA
ENDBRANCH   7  23
BRANCH   1  25
ATOM     25  C   UNL     1       4.048  -6.713   0.362  0.00  0.00    +0.117 C 
BRANCH  25  27
ATOM     26  C   UNL     1       5.107  -8.364   1.909  0.00  0.00    +0.005 C 
ATOM     27  C   UNL     1       4.480  -6.972   1.806  0.00  0.00    +0.016 C 
ENDBRANCH  25  27
ENDBRANCH   1  25
TORSDOF 5
