REMARK  Name = ZINC59193801
REMARK  7 active torsions:
REMARK  status: ('A' for Active; 'I' for Inactive)
REMARK    1  A    between atoms: C_1  and  C_2
REMARK    2  A    between atoms: C_3  and  C_19
REMARK    3  A    between atoms: N_7  and  N_8
REMARK    4  A    between atoms: C_9  and  C_10
REMARK    5  A    between atoms: C_13  and  N_16
REMARK    6  A    between atoms: N_16  and  C_17
REMARK    7  A    between atoms: N_16  and  C_18
REMARK                            x       y       z     vdW  Elec       q    Type
REMARK                         _______ _______ _______ _____ _____    ______ ____
ROOT
ATOM      1  C   UNL     1      -0.008   1.499   0.134  0.00  0.00    +0.054 C 
ATOM      2  C   UNL     1       0.007  -0.006   0.058  0.00  0.00    +0.014 A 
ATOM      3  C   UNL     1      -1.032  -0.868   0.093  0.00  0.00    +0.058 A 
ATOM      4  N   UNL     1      -0.797  -2.211   0.009  0.00  0.00    -0.332 N 
ATOM      5  C   UNL     1       0.500  -2.649  -0.111  0.00  0.00    +0.193 A 
ATOM      6  S   UNL     1       1.401  -1.108  -0.110  0.00  0.00    -0.053 S 
ATOM      7  N   UNL     1       0.959  -3.887  -0.207  0.00  0.00    -0.124 NA
ATOM      8  H   UNL     1      -1.532  -2.844   0.033  0.00  0.00    +0.168 HD
ENDROOT
BRANCH   3   9
ATOM      9  C   UNL     1      -2.415  -0.361   0.223  0.00  0.00    -0.001 A 
ATOM     10  C   UNL     1      -2.859   0.682  -0.592  0.00  0.00    +0.010 A 
ATOM     11  C   UNL     1      -4.150   1.150  -0.466  0.00  0.00    +0.001 A 
ATOM     12  C   UNL     1      -5.005   0.588   0.466  0.00  0.00    +0.000 A 
ATOM     13  C   UNL     1      -4.571  -0.445   1.278  0.00  0.00    +0.001 A 
ATOM     14  C   UNL     1      -3.284  -0.926   1.158  0.00  0.00    +0.010 A 
ENDBRANCH   3   9
BRANCH   7  15
ATOM     15  N   UNL     1       2.228  -4.098  -0.314  0.00  0.00    -0.155 NA
ATOM     16  C   UNL     1       2.681  -5.320  -0.409  0.00  0.00    +0.143 C 
BRANCH  16  17
ATOM     17  C   UNL     1       4.127  -5.560  -0.530  0.00  0.00    -0.005 A 
ATOM     18  C   UNL     1       5.019  -4.482  -0.538  0.00  0.00    +0.011 A 
ATOM     19  C   UNL     1       6.373  -4.712  -0.651  0.00  0.00    +0.024 A 
ATOM     20  C   UNL     1       6.853  -6.013  -0.758  0.00  0.00    +0.029 A 
ATOM     21  C   UNL     1       5.970  -7.088  -0.751  0.00  0.00    +0.024 A 
ATOM     22  C   UNL     1       4.615  -6.868  -0.632  0.00  0.00    +0.011 A 
BRANCH  20  23
ATOM     23  N   UNL     1       8.226  -6.241  -0.873  0.00  0.00    -0.336 N 
ATOM     24  C   UNL     1       9.158  -5.111  -0.881  0.00  0.00    +0.129 C 
ATOM     25  C   UNL     1       8.734  -7.611  -0.986  0.00  0.00    +0.129 C 
ENDBRANCH  20  23
ENDBRANCH  16  17
ENDBRANCH   7  15
TORSDOF 4
