REMARK  Name = ZINC35566075
REMARK  13 active torsions:
REMARK  status: ('A' for Active; 'I' for Inactive)
REMARK    1  A    between atoms: C_1  and  C_2
REMARK    2  A    between atoms: C_2  and  C_3
REMARK    3  A    between atoms: C_3  and  C_4
REMARK    4  A    between atoms: C_4  and  O_5
REMARK    5  A    between atoms: O_5  and  C_6
REMARK    6  A    between atoms: C_10  and  C_12
REMARK    7  A    between atoms: C_14  and  C_29
REMARK    8  A    between atoms: C_21  and  C_27
REMARK    9  A    between atoms: C_22  and  C_24
REMARK   10  A    between atoms: C_24  and  C_26
REMARK   11  A    between atoms: C_29  and  C_31
REMARK   12  A    between atoms: C_32  and  C_37
REMARK   13  A    between atoms: C_34  and  C_36
REMARK                            x       y       z     vdW  Elec       q    Type
REMARK                         _______ _______ _______ _____ _____    ______ ____
ROOT
ATOM      1  C   UNL     1      -5.725  -6.440   0.012  0.00  0.00    +0.152 C 
ATOM      2  C   UNL     1      -6.039  -7.030   1.367  0.00  0.00    +0.077 C 
ATOM      3  C   UNL     1      -6.277  -8.348   1.172  0.00  0.00    +0.250 C 
ATOM      4  C   UNL     1      -6.133  -8.661  -0.263  0.00  0.00    +0.293 C 
ATOM      5  O   UNL     1      -6.285  -9.762  -0.755  0.00  0.00    -0.266 OA
ATOM      6  N   UNL     1      -5.811  -7.547  -0.947  0.00  0.00    -0.232 N 
ATOM      7  C   UNL     1      -5.599  -7.461  -2.309  0.00  0.00    +0.169 A 
ATOM      8  N   UNL     1      -5.276  -6.394  -3.020  0.00  0.00    -0.229 NA
ATOM      9  C   UNL     1      -5.105  -6.460  -4.314  0.00  0.00    +0.058 A 
ATOM     10  C   UNL     1      -5.282  -7.715  -4.896  0.00  0.00    +0.078 A 
ATOM     11  S   UNL     1      -5.683  -8.691  -3.455  0.00  0.00    -0.049 S 
ATOM     12  C   UNL     1      -4.737  -5.248  -5.131  0.00  0.00    +0.067 C 
ATOM     13  O   UNL     1      -6.596  -9.239   2.141  0.00  0.00    -0.282 OA
ENDROOT
BRANCH   1  18
ATOM     14  C   UNL     1      -2.879  -3.954  -0.006  0.00  0.00    +0.121 A 
ATOM     15  C   UNL     1      -1.777  -4.798   0.005  0.00  0.00    +0.045 A 
ATOM     16  C   UNL     1      -1.958  -6.167   0.019  0.00  0.00    +0.004 A 
ATOM     17  C   UNL     1      -3.235  -6.697   0.022  0.00  0.00    +0.006 A 
ATOM     18  C   UNL     1      -4.334  -5.859   0.010  0.00  0.00    -0.019 A 
ATOM     19  C   UNL     1      -4.159  -4.488   0.002  0.00  0.00    +0.051 A 
BRANCH  14  20
ATOM     20  O   UNL     1      -2.703  -2.607  -0.020  0.00  0.00    -0.492 OA
BRANCH  20  21
ATOM     21  C   UNL     1      -1.357  -2.127  -0.027  0.00  0.00    +0.229 C 
BRANCH  21  22
ATOM     22  C   UNL     1      -1.360  -0.598  -0.042  0.00  0.00    +0.041 C 
BRANCH  22  24
ATOM     23  C   UNL     1       0.078   1.445  -0.065  0.00  0.00    +0.004 C 
ATOM     24  C   UNL     1       0.081  -0.085  -0.050  0.00  0.00    -0.000 C 
ENDBRANCH  22  24
ENDBRANCH  21  22
ENDBRANCH  20  21
ENDBRANCH  14  20
ENDBRANCH   1  18
BRANCH  10  25
ATOM     25  C   UNL     1      -5.170  -8.105  -6.245  0.00  0.00    +0.168 C 
ATOM     26  O   UNL     1      -4.878  -7.285  -7.093  0.00  0.00    -0.292 OA
ATOM     27  C   UNL     1      -5.411  -9.540  -6.637  0.00  0.00    +0.092 C 
ENDBRANCH  10  25
BRANCH   2  28
ATOM     28  C   UNL     1      -6.079  -6.313   2.647  0.00  0.00    +0.203 C 
ATOM     29  O   UNL     1      -5.264  -6.572   3.515  0.00  0.00    -0.286 OA
BRANCH  28  30
ATOM     30  C   UNL     1      -7.098  -5.286   2.880  0.00  0.00    +0.082 A 
ATOM     31  C   UNL     1      -7.266  -4.429   3.962  0.00  0.00    +0.057 A 
ATOM     32  N   UNL     1      -8.280  -3.604   3.895  0.00  0.00    -0.249 NA
ATOM     33  C   UNL     1      -9.092  -3.590   2.862  0.00  0.00    +0.076 A 
ATOM     34  S   UNL     1      -8.468  -4.781   1.851  0.00  0.00    -0.069 S 
ATOM     35  C   UNL     1     -10.294  -2.710   2.634  0.00  0.00    +0.073 C 
ATOM     36  C   UNL     1      -6.332  -4.448   5.145  0.00  0.00    +0.067 C 
ENDBRANCH  28  30
ENDBRANCH   2  28
TORSDOF 8
