REMARK  Name = ZINC42081183
REMARK  6 active torsions:
REMARK  status: ('A' for Active; 'I' for Inactive)
REMARK    1  A    between atoms: C_1  and  C_2
REMARK    2  A    between atoms: C_2  and  C_3
REMARK    3  A    between atoms: C_2  and  C_4
REMARK    4  A    between atoms: C_4  and  C_6
REMARK    5  A    between atoms: C_4  and  N_11
REMARK    6  A    between atoms: N_11  and  C_12
REMARK                            x       y       z     vdW  Elec       q    Type
REMARK                         _______ _______ _______ _____ _____    ______ ____
ROOT
ATOM      1  N   UNL     1      -1.786  -1.747   0.115  0.00  0.00    +0.394 N 
ATOM      2  H   UNL     1      -1.442  -2.062  -0.779  0.00  0.00    -0.083 HD
ATOM      3  H   UNL     1      -1.310  -2.244   0.853  0.00  0.00    -0.083 HD
ENDROOT
BRANCH   1   4
ATOM      4  C   UNL     1      -3.230  -2.006   0.203  0.00  0.00    +0.050 C 
ATOM      5  C   UNL     1      -3.515  -3.480   0.030  0.00  0.00    -0.030 A 
ATOM      6  C   UNL     1      -3.293  -4.362  -1.005  0.00  0.00    +0.004 A 
ATOM      7  C   UNL     1      -3.671  -5.687  -0.875  0.00  0.00    +0.001 A 
ATOM      8  C   UNL     1      -4.270  -6.121   0.293  0.00  0.00    +0.017 A 
ATOM      9  C   UNL     1      -4.495  -5.239   1.331  0.00  0.00    +0.039 A 
ATOM     10  C   UNL     1      -4.116  -3.903   1.208  0.00  0.00    +0.049 A 
ATOM     11  N   UNL     1      -4.234  -2.836   2.100  0.00  0.00    -0.285 N 
ATOM     12  C   UNL     1      -3.742  -1.689   1.592  0.00  0.00    +0.208 C 
ATOM     13  O   UNL     1      -3.713  -0.608   2.141  0.00  0.00    -0.277 OA
ATOM     14 BR   UNL     1      -5.316  -5.845   2.922  0.00  0.00    -0.048 Br
ATOM     15  H   UNL     1      -4.626  -2.910   2.984  0.00  0.00    +0.155 HD
ENDBRANCH   1   4
BRANCH   1  16
ATOM     16  C   UNL     1      -1.538  -0.306   0.256  0.00  0.00    -0.030 C 
BRANCH  16  17
ATOM     17  C   UNL     1      -2.160   0.426  -0.905  0.00  0.00    -0.024 A 
ATOM     18  C   UNL     1      -2.821   1.610  -0.912  0.00  0.00    +0.009 A 
ATOM     19  C   UNL     1      -3.312   2.097  -2.108  0.00  0.00    +0.008 A 
ATOM     20  C   UNL     1      -3.118   1.376  -3.240  0.00  0.00    +0.045 A 
ATOM     21  S   UNL     1      -2.212  -0.035  -2.629  0.00  0.00    -0.103 S 
ENDBRANCH  16  17
BRANCH  16  23
ATOM     22  C   UNL     1       0.229   1.458   0.335  0.00  0.00    +0.006 C 
ATOM     23  C   UNL     1      -0.030  -0.048   0.272  0.00  0.00    -0.027 C 
ATOM     24  C   UNL     1       0.590  -0.724   1.497  0.00  0.00    +0.006 C 
ENDBRANCH  16  23
ENDBRANCH   1  16
TORSDOF 4
