REMARK  Name = ZINC20468774
REMARK  12 active torsions:
REMARK  status: ('A' for Active; 'I' for Inactive)
REMARK    1  A    between atoms: C_1  and  C_2
REMARK    2  A    between atoms: C_2  and  C_4
REMARK    3  A    between atoms: C_2  and  C_14
REMARK    4  A    between atoms: C_7  and  C_10
REMARK    5  A    between atoms: C_10  and  C_11
REMARK    6  A    between atoms: C_11  and  C_12
REMARK    7  A    between atoms: C_11  and  C_13
REMARK    8  A    between atoms: N_16  and  N_17
REMARK    9  A    between atoms: C_18  and  C_19
REMARK   10  A    between atoms: C_21  and  O_27
REMARK   11  A    between atoms: C_22  and  O_26
REMARK   12  A    between atoms: O_27  and  C_28
REMARK                            x       y       z     vdW  Elec       q    Type
REMARK                         _______ _______ _______ _____ _____    ______ ____
ROOT
ATOM      1  C   UNL     1       0.707  -0.490  -1.238  0.00  0.00    +0.239 C 
ATOM      2  O   UNL     1       1.704  -1.175  -1.140  0.00  0.00    -0.273 OA
ATOM      3  N   UNL     1       0.231  -0.164  -2.456  0.00  0.00    -0.206 N 
ATOM      4  H   UNL     1      -0.566   0.383  -2.534  0.00  0.00    +0.177 HD
ENDROOT
BRANCH   1   6
ATOM      5  C   UNL     1      -0.019   1.526   0.010  0.00  0.00    +0.022 C 
ATOM      6  C   UNL     1       0.002  -0.004   0.002  0.00  0.00    +0.103 C 
BRANCH   6   7
ATOM      7  C   UNL     1       0.731  -0.503   1.223  0.00  0.00    -0.036 A 
ATOM      8  C   UNL     1       2.050  -0.148   1.434  0.00  0.00    +0.004 A 
ATOM      9  C   UNL     1       2.719  -0.606   2.554  0.00  0.00    +0.004 A 
ATOM     10  C   UNL     1       2.068  -1.419   3.463  0.00  0.00    -0.047 A 
ATOM     11  C   UNL     1       0.749  -1.773   3.252  0.00  0.00    +0.004 A 
ATOM     12  C   UNL     1       0.079  -1.312   2.135  0.00  0.00    +0.004 A 
BRANCH  10  13
ATOM     13  C   UNL     1       2.797  -1.919   4.683  0.00  0.00    +0.038 C 
BRANCH  13  14
ATOM     14  C   UNL     1       2.614  -0.923   5.830  0.00  0.00    -0.013 C 
ATOM     15  C   UNL     1       3.248  -1.489   7.103  0.00  0.00    +0.007 C 
ATOM     16  C   UNL     1       3.290   0.401   5.469  0.00  0.00    +0.007 C 
ENDBRANCH  13  14
ENDBRANCH  10  13
ENDBRANCH   6   7
ENDBRANCH   1   6
BRANCH   3  17
ATOM     17  N   UNL     1       0.887  -0.616  -3.608  0.00  0.00    -0.188 NA
ATOM     18  C   UNL     1       0.428  -0.302  -4.781  0.00  0.00    +0.138 C 
BRANCH  18  19
ATOM     19  C   UNL     1       1.118  -0.778  -5.994  0.00  0.00    -0.001 A 
ATOM     20  C   UNL     1       0.628  -0.436  -7.258  0.00  0.00    +0.059 A 
ATOM     21  C   UNL     1       1.279  -0.884  -8.392  0.00  0.00    +0.163 A 
ATOM     22  C   UNL     1       2.420  -1.675  -8.274  0.00  0.00    +0.173 A 
ATOM     23  C   UNL     1       2.906  -2.015  -7.020  0.00  0.00    +0.063 A 
ATOM     24  C   UNL     1       2.266  -1.566  -5.883  0.00  0.00    +0.028 A 
ATOM     25 BR   UNL     1       4.455  -3.089  -6.868  0.00  0.00    -0.046 Br
BRANCH  22  26
ATOM     26  O   UNL     1       3.058  -2.116  -9.391  0.00  0.00    -0.503 OA
ATOM     27  H   UNL     1       3.745  -1.517  -9.713  0.00  0.00    +0.292 HD
ENDBRANCH  22  26
BRANCH  21  28
ATOM     28  O   UNL     1       0.805  -0.553  -9.623  0.00  0.00    -0.491 OA
ATOM     29  C   UNL     1      -0.369   0.260  -9.669  0.00  0.00    +0.277 C 
ENDBRANCH  21  28
ENDBRANCH  18  19
ENDBRANCH   3  17
TORSDOF 8
