REMARK  Name = ZINC60367960
REMARK  3 active torsions:
REMARK  status: ('A' for Active; 'I' for Inactive)
REMARK    1  A    between atoms: C_9  and  C_13
REMARK    2  A    between atoms: N_16  and  C_17
REMARK    3  A    between atoms: C_23  and  O_25
REMARK                            x       y       z     vdW  Elec       q    Type
REMARK                         _______ _______ _______ _____ _____    ______ ____
ROOT
ATOM      1  C   UNL     1      -0.614   1.602   0.558  0.00  0.00    +0.005 C 
ATOM      2  C   UNL     1       0.730   2.328   0.658  0.00  0.00    +0.005 C 
ATOM      3  C   UNL     1       1.390   1.956   1.993  0.00  0.00    +0.043 C 
ATOM      4  C   UNL     1       1.322   0.469   2.159  0.00  0.00    -0.004 A 
ATOM      5  C   UNL     1       0.553  -0.398   1.462  0.00  0.00    -0.025 A 
ATOM      6  C   UNL     1       0.670  -1.803   1.816  0.00  0.00    +0.051 A 
ATOM      7  C   UNL     1      -0.029  -2.898   1.232  0.00  0.00    +0.131 A 
ATOM      8  N   UNL     1       0.254  -4.100   1.731  0.00  0.00    -0.217 NA
ATOM      9  C   UNL     1       1.119  -4.308   2.704  0.00  0.00    +0.135 A 
ATOM     10  N   UNL     1       1.802  -3.333   3.292  0.00  0.00    -0.224 NA
ATOM     11  C   UNL     1       1.583  -2.108   2.857  0.00  0.00    +0.114 A 
ATOM     12  S   UNL     1       2.231  -0.532   3.309  0.00  0.00    -0.073 S 
ATOM     13  N   UNL     1      -0.945  -2.724   0.210  0.00  0.00    -0.323 N 
ATOM     14  C   UNL     1      -0.382   0.104   0.364  0.00  0.00    +0.037 C 
ATOM     15  H   UNL     1      -1.068  -1.848  -0.187  0.00  0.00    +0.148 HD
ENDROOT
BRANCH  13  16
ATOM     16  C   UNL     1      -1.730  -3.864  -0.272  0.00  0.00    +0.100 C 
ATOM     17  C   UNL     1      -0.924  -4.630  -1.323  0.00  0.00    +0.025 C 
ATOM     18  C   UNL     1      -1.743  -5.820  -1.827  0.00  0.00    +0.002 C 
ATOM     19  C   UNL     1      -3.045  -5.315  -2.451  0.00  0.00    +0.003 C 
ATOM     20  C   UNL     1      -3.851  -4.548  -1.400  0.00  0.00    +0.033 C 
ATOM     21  C   UNL     1      -3.032  -3.358  -0.897  0.00  0.00    +0.135 C 
BRANCH  21  22
ATOM     22  O   UNL     1      -3.785  -2.643   0.085  0.00  0.00    -0.390 OA
ATOM     23  H   UNL     1      -4.625  -2.293  -0.242  0.00  0.00    +0.210 HD
ENDBRANCH  21  22
ENDBRANCH  13  16
BRANCH   9  24
ATOM     24  C   UNL     1       1.342  -5.723   3.172  0.00  0.00    +0.057 C 
ATOM     25  C   UNL     1       2.191  -5.925   4.429  0.00  0.00    +0.012 C 
ATOM     26  C   UNL     1       2.758  -6.290   3.056  0.00  0.00    +0.012 C 
ENDBRANCH   9  24
TORSDOF 3
