REMARK  Name = ZINC41173765
REMARK  4 active torsions:
REMARK  status: ('A' for Active; 'I' for Inactive)
REMARK    1  A    between atoms: C_1  and  C_2
REMARK    2  A    between atoms: C_5  and  S_7
REMARK    3  A    between atoms: S_7  and  N_10
REMARK    4  A    between atoms: C_14  and  C_17
REMARK                            x       y       z     vdW  Elec       q    Type
REMARK                         _______ _______ _______ _____ _____    ______ ____
ROOT
ATOM      1  N   UNL     1       1.300  -4.748  -1.614  0.00  0.00    -0.171 NA
ATOM      2  C   UNL     1       0.195  -5.396  -2.338  0.00  0.00    +0.137 C 
ATOM      3  C   UNL     1       0.736  -6.663  -3.012  0.00  0.00    +0.178 C 
ATOM      4  O   UNL     1       1.891  -6.329  -3.784  0.00  0.00    -0.369 OA
ATOM      5  C   UNL     1       2.983  -5.820  -3.014  0.00  0.00    +0.164 C 
ATOM      6  C   UNL     1       2.556  -4.505  -2.342  0.00  0.00    +0.146 C 
ENDROOT
BRANCH   5   7
ATOM      7  C   UNL     1       4.160  -5.563  -3.918  0.00  0.00    -0.018 A 
ATOM      8  C   UNL     1       3.962  -5.013  -5.171  0.00  0.00    +0.007 A 
ATOM      9  C   UNL     1       5.042  -4.778  -6.001  0.00  0.00    +0.020 A 
ATOM     10  C   UNL     1       6.321  -5.092  -5.578  0.00  0.00    +0.041 A 
ATOM     11  C   UNL     1       6.519  -5.642  -4.324  0.00  0.00    +0.020 A 
ATOM     12  C   UNL     1       5.439  -5.872  -3.493  0.00  0.00    +0.007 A 
ATOM     13 CL   UNL     1       7.678  -4.796  -6.620  0.00  0.00    -0.084 Cl
ENDBRANCH   5   7
BRANCH   1  14
ATOM     14  S   UNL     1       1.134  -4.300  -0.029  0.00  0.00    +0.067 S 
ATOM     15  O   UNL     1       2.445  -4.240   0.516  0.00  0.00    -0.152 OA
ATOM     16  O   UNL     1       0.117  -5.126   0.522  0.00  0.00    -0.152 OA
BRANCH  14  21
ATOM     17  C   UNL     1      -0.018   1.503   0.010  0.00  0.00    +0.051 C 
ATOM     18  C   UNL     1       0.002  -0.004   0.002  0.00  0.00    -0.011 A 
ATOM     19  C   UNL     1      -1.039  -0.872   0.002  0.00  0.00    +0.013 A 
ATOM     20  C   UNL     1      -0.780  -2.230  -0.007  0.00  0.00    +0.036 A 
ATOM     21  C   UNL     1       0.507  -2.653  -0.016  0.00  0.00    +0.143 A 
ATOM     22  S   UNL     1       1.404  -1.109  -0.018  0.00  0.00    -0.074 S 
ENDBRANCH  14  21
ENDBRANCH   1  14
TORSDOF 3
