REMARK  Name = ZINC37441822
REMARK  6 active torsions:
REMARK  status: ('A' for Active; 'I' for Inactive)
REMARK    1  A    between atoms: C_1  and  C_2
REMARK    2  A    between atoms: C_2  and  C_3
REMARK    3  A    between atoms: C_2  and  N_4
REMARK    4  A    between atoms: C_12  and  C_13
REMARK    5  A    between atoms: C_18  and  N_19
REMARK    6  A    between atoms: N_19  and  C_20
REMARK                            x       y       z     vdW  Elec       q    Type
REMARK                         _______ _______ _______ _____ _____    ______ ____
ROOT
ATOM      1  N   UNL     1       0.711  -0.503   1.171  0.00  0.00    -0.321 N 
ATOM      2  C   UNL     1       2.045  -0.298   1.467  0.00  0.00    +0.069 A 
ATOM      3  C   UNL     1       3.089   0.338   0.810  0.00  0.00    +0.029 A 
ATOM      4  C   UNL     1       4.342   0.372   1.383  0.00  0.00    +0.017 A 
ATOM      5  C   UNL     1       4.569  -0.226   2.616  0.00  0.00    +0.020 A 
ATOM      6  C   UNL     1       3.546  -0.862   3.283  0.00  0.00    +0.045 A 
ATOM      7  C   UNL     1       2.268  -0.905   2.715  0.00  0.00    +0.091 A 
ATOM      8  N   UNL     1       1.090  -1.441   3.117  0.00  0.00    -0.227 NA
ATOM      9  C   UNL     1       0.168  -1.204   2.215  0.00  0.00    +0.144 A 
ATOM     10 BR   UNL     1       6.296  -0.166   3.384  0.00  0.00    -0.050 Br
ENDROOT
BRANCH   9  11
ATOM     11  C   UNL     1      -1.243  -1.630   2.310  0.00  0.00    +0.038 A 
ATOM     12  C   UNL     1      -1.855  -2.275   1.234  0.00  0.00    +0.013 A 
ATOM     13  C   UNL     1      -3.172  -2.671   1.329  0.00  0.00    +0.001 A 
ATOM     14  C   UNL     1      -3.893  -2.432   2.487  0.00  0.00    +0.002 A 
ATOM     15  C   UNL     1      -3.301  -1.795   3.559  0.00  0.00    +0.023 A 
ATOM     16  C   UNL     1      -1.974  -1.394   3.483  0.00  0.00    +0.038 A 
BRANCH  16  17
ATOM     17  N   UNL     1      -1.373  -0.756   4.565  0.00  0.00    -0.346 N 
ATOM     18  C   UNL     1      -2.105  -0.604   5.824  0.00  0.00    +0.125 C 
ATOM     19  H   UNL     1      -0.470  -0.412   4.484  0.00  0.00    +0.146 HD
ENDBRANCH  16  17
ENDBRANCH   9  11
BRANCH   1  21
ATOM     20  C   UNL     1       0.094   1.474  -0.130  0.00  0.00    +0.030 C 
ATOM     21  C   UNL     1       0.007  -0.050  -0.031  0.00  0.00    +0.083 C 
ATOM     22  C   UNL     1       0.653  -0.679  -1.268  0.00  0.00    +0.030 C 
ENDBRANCH   1  21
TORSDOF 3
