REMARK  Name = ZINC26243143
REMARK  7 active torsions:
REMARK  status: ('A' for Active; 'I' for Inactive)
REMARK    1  A    between atoms: C_1  and  C_2
REMARK    2  A    between atoms: C_9  and  S_12
REMARK    3  A    between atoms: S_12  and  C_13
REMARK    4  A    between atoms: C_13  and  C_14
REMARK    5  A    between atoms: C_16  and  C_19
REMARK    6  A    between atoms: C_24  and  O_25
REMARK    7  A    between atoms: O_25  and  C_26
REMARK                            x       y       z     vdW  Elec       q    Type
REMARK                         _______ _______ _______ _____ _____    ______ ____
ROOT
ATOM      1  C   UNL     1      -1.708   4.389   6.581  0.00  0.00    +0.154 C 
ENDROOT
BRANCH   1   2
ATOM      2  C   UNL     1      -1.634   3.637   5.277  0.00  0.00    +0.148 A 
ATOM      3  C   UNL     1      -2.626   2.923   4.699  0.00  0.00    +0.077 A 
ATOM      4  C   UNL     1      -2.039   2.426   3.502  0.00  0.00    +0.117 A 
ATOM      5  N   UNL     1      -0.807   2.871   3.490  0.00  0.00    -0.078 NA
ATOM      6  O   UNL     1      -0.571   3.547   4.464  0.00  0.00    -0.358 OA
BRANCH   4   7
ATOM      7  C   UNL     1      -2.689   1.572   2.478  0.00  0.00    +0.045 A 
ATOM      8  C   UNL     1      -4.016   1.178   2.635  0.00  0.00    +0.014 A 
ATOM      9  C   UNL     1      -4.614   0.379   1.682  0.00  0.00    +0.001 A 
ATOM     10  C   UNL     1      -3.902  -0.029   0.568  0.00  0.00    +0.004 A 
ATOM     11  C   UNL     1      -2.588   0.360   0.399  0.00  0.00    +0.046 A 
ATOM     12  C   UNL     1      -1.974   1.163   1.348  0.00  0.00    +0.129 A 
BRANCH  12  13
ATOM     13  O   UNL     1      -0.682   1.547   1.184  0.00  0.00    -0.494 OA
ATOM     14  C   UNL     1      -0.013   1.086   0.008  0.00  0.00    +0.277 C 
ENDBRANCH  12  13
ENDBRANCH   4   7
ENDBRANCH   1   2
BRANCH   1  15
ATOM     15  S   UNL     1      -1.220   3.295   7.937  0.00  0.00    -0.080 S 
BRANCH  15  24
ATOM     16  C   UNL     1      -2.410   9.123  12.779  0.00  0.00    +0.044 C 
ATOM     17  C   UNL     1      -2.056   7.750  12.270  0.00  0.00    -0.048 A 
ATOM     18  C   UNL     1      -1.655   6.767  13.163  0.00  0.00    +0.005 A 
ATOM     19  C   UNL     1      -1.327   5.505  12.713  0.00  0.00    +0.028 A 
ATOM     20  C   UNL     1      -1.398   5.215  11.359  0.00  0.00    +0.067 A 
ATOM     21  C   UNL     1      -1.804   6.206  10.450  0.00  0.00    +0.090 A 
ATOM     22  C   UNL     1      -2.132   7.480  10.922  0.00  0.00    +0.033 A 
ATOM     23  N   UNL     1      -1.775   5.649   9.211  0.00  0.00    -0.222 NA
ATOM     24  C   UNL     1      -1.393   4.399   9.299  0.00  0.00    +0.168 A 
ATOM     25  N   UNL     1      -1.145   4.081  10.604  0.00  0.00    -0.333 N 
ATOM     26  H   UNL     1      -0.808   3.157  11.097  0.00  0.00    +0.168 HD
ENDBRANCH  15  24
ENDBRANCH   1  15
TORSDOF 5
