REMARK  Name = ZINC31055670
REMARK  7 active torsions:
REMARK  status: ('A' for Active; 'I' for Inactive)
REMARK    1  A    between atoms: C_3  and  N_32
REMARK    2  A    between atoms: C_6  and  C_7
REMARK    3  A    between atoms: C_7  and  N_8
REMARK    4  A    between atoms: C_9  and  C_11
REMARK    5  A    between atoms: N_16  and  C_18
REMARK    6  A    between atoms: C_18  and  C_19
REMARK    7  A    between atoms: C_21  and  C_24
REMARK                            x       y       z     vdW  Elec       q    Type
REMARK                         _______ _______ _______ _____ _____    ______ ____
ROOT
ATOM      1  C   UNL     1      -3.285   3.574  -2.833  0.00  0.00    +0.058 C 
ATOM      2  C   UNL     1      -3.282   2.337  -3.734  0.00  0.00    +0.009 C 
ATOM      3  C   UNL     1      -1.917   1.650  -3.641  0.00  0.00    -0.018 C 
ATOM      4  C   UNL     1      -1.633   1.286  -2.182  0.00  0.00    -0.078 C 
ATOM      5  N   UNL     1      -1.645   2.503  -1.361  0.00  0.00    +0.386 N 
ATOM      6  C   UNL     1      -2.961   3.155  -1.397  0.00  0.00    -0.065 C 
ATOM      7  H   UNL     1      -0.913   3.204  -1.789  0.00  0.00    -0.081 HD
ENDROOT
BRANCH   1   9
ATOM      8  N   UNL     1      -5.142   4.675  -4.041  0.00  0.00    -0.311 N 
ATOM      9  C   UNL     1      -4.645   4.223  -2.873  0.00  0.00    +0.215 C 
ATOM     10  O   UNL     1      -5.292   4.338  -1.854  0.00  0.00    -0.276 OA
ATOM     11  H   UNL     1      -4.555   4.570  -4.966  0.00  0.00    +0.149 HD
BRANCH   8  12
ATOM     12  C   UNL     1      -6.463   5.306  -4.080  0.00  0.00    +0.139 C 
BRANCH  12  18
ATOM     13  C   UNL     1      -6.428   6.979  -5.941  0.00  0.00    +0.007 A 
ATOM     14  C   UNL     1      -6.714   7.359  -7.238  0.00  0.00    +0.026 A 
ATOM     15  C   UNL     1      -7.366   6.478  -8.090  0.00  0.00    +0.047 A 
ATOM     16  C   UNL     1      -7.724   5.215  -7.637  0.00  0.00    +0.026 A 
ATOM     17  C   UNL     1      -7.431   4.839  -6.340  0.00  0.00    +0.007 A 
ATOM     18  C   UNL     1      -6.781   5.719  -5.494  0.00  0.00    -0.030 A 
BRANCH  15  19
ATOM     19  N   UNL     1      -7.663   6.863  -9.405  0.00  0.00    -0.306 N 
ATOM     20  C   UNL     1      -7.377   8.072  -9.985  0.00  0.00    +0.112 A 
ATOM     21  C   UNL     1      -7.830   8.014 -11.251  0.00  0.00    +0.130 A 
ATOM     22  N   UNL     1      -8.387   6.809 -11.442  0.00  0.00    -0.244 NA
ATOM     23  C   UNL     1      -8.294   6.110 -10.344  0.00  0.00    +0.204 A 
ENDBRANCH  15  19
ENDBRANCH  12  18
ENDBRANCH   8  12
ENDBRANCH   1   9
BRANCH   5  24
ATOM     24  C   UNL     1      -1.240   2.211   0.020  0.00  0.00    +0.022 C 
BRANCH  24  25
ATOM     25  C   UNL     1      -0.016   1.333   0.009  0.00  0.00    +0.211 A 
ATOM     26  N   UNL     1       1.230   1.735  -0.000  0.00  0.00    -0.193 NA
ATOM     27  C   UNL     1       1.976   0.607  -0.013  0.00  0.00    +0.203 A 
ATOM     28  N   UNL     1       1.147  -0.404  -0.011  0.00  0.00    -0.056 NA
ATOM     29  O   UNL     1       0.002  -0.004   0.002  0.00  0.00    -0.340 OA
BRANCH  27  30
ATOM     30  C   UNL     1       3.458   0.532  -0.028  0.00  0.00    +0.041 A 
ATOM     31  C   UNL     1       4.095  -0.708  -0.040  0.00  0.00    +0.014 A 
ATOM     32  C   UNL     1       5.473  -0.773  -0.054  0.00  0.00    +0.021 A 
ATOM     33  C   UNL     1       6.224   0.390  -0.056  0.00  0.00    +0.042 A 
ATOM     34  C   UNL     1       5.598   1.624  -0.043  0.00  0.00    +0.040 A 
ATOM     35  C   UNL     1       4.218   1.700  -0.035  0.00  0.00    +0.053 A 
ATOM     36 CL   UNL     1       3.433   3.249  -0.028  0.00  0.00    -0.083 Cl
ATOM     37 CL   UNL     1       7.957   0.300  -0.073  0.00  0.00    -0.083 Cl
ENDBRANCH  27  30
ENDBRANCH  24  25
ENDBRANCH   5  24
TORSDOF 7
