REMARK  Name = ZINC09244316
REMARK  15 active torsions:
REMARK  status: ('A' for Active; 'I' for Inactive)
REMARK    1  A    between atoms: C_1  and  C_2
REMARK    2  A    between atoms: C_2  and  N_67
REMARK    3  A    between atoms: C_3  and  C_4
REMARK    4  A    between atoms: C_3  and  N_67
REMARK    5  A    between atoms: C_5  and  C_6
REMARK    6  A    between atoms: C_5  and  N_67
REMARK    7  A    between atoms: C_6  and  N_7
REMARK    8  A    between atoms: C_8  and  C_28
REMARK    9  A    between atoms: C_11  and  C_12
REMARK   10  A    between atoms: C_11  and  O_23
REMARK   11  A    between atoms: C_15  and  O_18
REMARK   12  A    between atoms: O_18  and  C_19
REMARK   13  A    between atoms: C_19  and  C_20
REMARK   14  A    between atoms: C_20  and  C_21
REMARK   15  A    between atoms: C_20  and  C_22
REMARK                            x       y       z     vdW  Elec       q    Type
REMARK                         _______ _______ _______ _____ _____    ______ ____
ROOT
ATOM      1  N   UNL     1       1.043   2.058  -0.406  0.00  0.00    -0.285 N 
ATOM      2  C   UNL     1       0.596   3.414  -0.076  0.00  0.00    +0.144 C 
ATOM      3  C   UNL     1      -0.897   3.446  -0.309  0.00  0.00    +0.071 C 
ATOM      4  C   UNL     1      -1.743   4.523  -0.127  0.00  0.00    +0.133 C 
ATOM      5  C   UNL     1      -1.250   2.163  -0.753  0.00  0.00    +0.249 C 
ATOM      6  O   UNL     1      -2.372   1.794  -1.051  0.00  0.00    -0.282 OA
ATOM      7  C   UNL     1      -0.018   1.330  -0.794  0.00  0.00    +0.288 C 
ATOM      8  O   UNL     1       0.024   0.166  -1.134  0.00  0.00    -0.266 OA
ENDROOT
BRANCH   2   9
ATOM      9  C   UNL     1       1.280   4.415  -0.971  0.00  0.00    -0.022 A 
ATOM     10  C   UNL     1       1.476   4.126  -2.309  0.00  0.00    +0.007 A 
ATOM     11  C   UNL     1       2.099   5.046  -3.131  0.00  0.00    +0.020 A 
ATOM     12  C   UNL     1       2.536   6.252  -2.613  0.00  0.00    +0.041 A 
ATOM     13  C   UNL     1       2.345   6.538  -1.273  0.00  0.00    +0.020 A 
ATOM     14  C   UNL     1       1.717   5.620  -0.453  0.00  0.00    +0.007 A 
ATOM     15 CL   UNL     1       3.324   7.405  -3.644  0.00  0.00    -0.084 Cl
ENDBRANCH   2   9
BRANCH   4  16
ATOM     16  C   UNL     1      -3.197   4.347  -0.262  0.00  0.00    +0.017 A 
ATOM     17  C   UNL     1      -3.925   5.163  -1.137  0.00  0.00    +0.015 A 
ATOM     18  C   UNL     1      -5.284   4.992  -1.263  0.00  0.00    +0.046 A 
ATOM     19  C   UNL     1      -5.937   4.017  -0.516  0.00  0.00    +0.121 A 
ATOM     20  C   UNL     1      -5.219   3.208   0.358  0.00  0.00    +0.046 A 
ATOM     21  C   UNL     1      -3.859   3.368   0.488  0.00  0.00    +0.015 A 
BRANCH  19  22
ATOM     22  O   UNL     1      -7.278   3.855  -0.640  0.00  0.00    -0.492 OA
BRANCH  22  23
ATOM     23  C   UNL     1      -7.954   4.720  -1.556  0.00  0.00    +0.232 C 
BRANCH  23  24
ATOM     24  C   UNL     1      -9.448   4.391  -1.560  0.00  0.00    +0.020 C 
ATOM     25  C   UNL     1     -10.044   4.710  -0.187  0.00  0.00    +0.010 C 
ATOM     26  C   UNL     1     -10.152   5.229  -2.629  0.00  0.00    +0.010 C 
ENDBRANCH  23  24
ENDBRANCH  22  23
ENDBRANCH  19  22
ENDBRANCH   4  16
BRANCH   4  27
ATOM     27  O   UNL     1      -1.234   5.737   0.175  0.00  0.00    -0.506 OA
ATOM     28  H   UNL     1      -1.980   6.396   0.271  0.00  0.00    +0.292 HD
ENDBRANCH   4  27
BRANCH   1  29
ATOM     29  C   UNL     1       2.424   1.573  -0.326  0.00  0.00    +0.090 C 
BRANCH  29  30
ATOM     30  C   UNL     1       3.126   1.810  -1.664  0.00  0.00    -0.060 C 
BRANCH  30  31
ATOM     31  N   UNL     1       4.523   1.337  -1.559  0.00  0.00    +0.380 N 
ATOM     32  H   UNL     1       4.956   1.757  -0.729  0.00  0.00    -0.082 HD
BRANCH  31  34
ATOM     33  C   UNL     1       3.952  -0.800  -2.664  0.00  0.00    -0.017 C 
ATOM     34  C   UNL     1       4.548  -0.135  -1.422  0.00  0.00    -0.082 C 
ENDBRANCH  31  34
BRANCH  31  35
ATOM     35  C   UNL     1       5.286   1.745  -2.757  0.00  0.00    -0.082 C 
ATOM     36  C   UNL     1       6.779   1.567  -2.474  0.00  0.00    -0.017 C 
ENDBRANCH  31  35
ENDBRANCH  30  31
ENDBRANCH  29  30
ENDBRANCH   1  29
TORSDOF 11
