REMARK  Name = ZINC43608020
REMARK  6 active torsions:
REMARK  status: ('A' for Active; 'I' for Inactive)
REMARK    1  A    between atoms: C_8  and  C_26
REMARK    2  A    between atoms: C_9  and  C_10
REMARK    3  A    between atoms: C_10  and  N_11
REMARK    4  A    between atoms: N_11  and  C_12
REMARK    5  A    between atoms: C_12  and  C_13
REMARK    6  A    between atoms: C_13  and  C_14
REMARK                            x       y       z     vdW  Elec       q    Type
REMARK                         _______ _______ _______ _____ _____    ______ ____
ROOT
ATOM      1  C   UNL     1       4.909  -0.512  -0.049  0.00  0.00    -0.025 C 
ENDROOT
BRANCH   1  10
ATOM      2  C   UNL     1      -0.016   1.355   0.009  0.00  0.00    +0.005 A 
ATOM      3  C   UNL     1       1.195   2.068   0.002  0.00  0.00    +0.018 A 
ATOM      4  C   UNL     1       2.372   1.412  -0.013  0.00  0.00    +0.093 A 
ATOM      5  N   UNL     1       2.408   0.045  -0.021  0.00  0.00    -0.305 N 
ATOM      6  C   UNL     1       1.242  -0.679  -0.013  0.00  0.00    +0.139 A 
ATOM      7  C   UNL     1       0.002  -0.004   0.002  0.00  0.00    +0.047 A 
ATOM      8  N   UNL     1       1.550  -1.965  -0.023  0.00  0.00    -0.223 NA
ATOM      9  C   UNL     1       2.890  -2.095  -0.037  0.00  0.00    +0.146 A 
ATOM     10  C   UNL     1       3.439  -0.845  -0.035  0.00  0.00    +0.039 A 
BRANCH   9  11
ATOM     11  C   UNL     1       3.636  -3.368  -0.050  0.00  0.00    +0.267 C 
ATOM     12  O   UNL     1       4.852  -3.360  -0.061  0.00  0.00    -0.268 OA
ATOM     13  N   UNL     1       2.970  -4.540  -0.050  0.00  0.00    -0.296 N 
ATOM     14  C   UNL     1       1.508  -4.694  -0.044  0.00  0.00    +0.108 C 
ATOM     15  C   UNL     1       1.206  -6.208  -0.020  0.00  0.00    +0.020 C 
ATOM     16  C   UNL     1       2.514  -6.813   0.557  0.00  0.00    +0.020 C 
ATOM     17  C   UNL     1       3.586  -5.879  -0.063  0.00  0.00    +0.108 C 
ENDBRANCH   9  11
ENDBRANCH   1  10
BRANCH   1  18
ATOM     18  N   UNL     1       5.400  -0.411   1.332  0.00  0.00    +0.383 N 
ATOM     19  H   UNL     1       4.895   0.316   1.816  0.00  0.00    -0.085 HD
ATOM     20  H   UNL     1       5.259  -1.291   1.805  0.00  0.00    -0.085 HD
BRANCH  18  21
ATOM     21  C   UNL     1       6.833  -0.086   1.319  0.00  0.00    -0.082 C 
BRANCH  21  22
ATOM     22  C   UNL     1       7.345   0.019   2.757  0.00  0.00    -0.017 C 
BRANCH  22  23
ATOM     23  C   UNL     1       8.837   0.357   2.744  0.00  0.00    -0.026 C 
ATOM     24  C   UNL     1       9.615  -0.802   2.118  0.00  0.00    -0.000 C 
ATOM     25  C   UNL     1      11.111  -0.474   2.171  0.00  0.00    -0.018 C 
ATOM     26  C   UNL     1      11.513  -0.237   3.626  0.00  0.00    -0.078 C 
ATOM     27  N   UNL     1      10.754   0.892   4.184  0.00  0.00    +0.382 N 
ATOM     28  C   UNL     1       9.320   0.588   4.179  0.00  0.00    -0.065 C 
ATOM     29  C   UNL     1       8.533   1.766   4.763  0.00  0.00    -0.015 C 
ATOM     30  C   UNL     1       9.001   2.044   6.193  0.00  0.00    -0.003 C 
ATOM     31  C   UNL     1      10.508   2.321   6.170  0.00  0.00    -0.019 C 
ATOM     32  C   UNL     1      11.221   1.117   5.561  0.00  0.00    -0.078 C 
ATOM     33  H   UNL     1      10.926   1.719   3.632  0.00  0.00    -0.081 HD
ENDBRANCH  22  23
ENDBRANCH  21  22
ENDBRANCH  18  21
ENDBRANCH   1  18
TORSDOF 6
