REMARK  Name = ZINC40570270
REMARK  7 active torsions:
REMARK  status: ('A' for Active; 'I' for Inactive)
REMARK    1  A    between atoms: C_1  and  C_2
REMARK    2  A    between atoms: C_7  and  O_8
REMARK    3  A    between atoms: O_8  and  C_9
REMARK    4  A    between atoms: C_9  and  C_11
REMARK    5  A    between atoms: C_12  and  N_31
REMARK    6  A    between atoms: C_14  and  C_25
REMARK    7  A    between atoms: N_22  and  C_24
REMARK                            x       y       z     vdW  Elec       q    Type
REMARK                         _______ _______ _______ _____ _____    ______ ____
ROOT
ATOM      1  C   UNL     1      -1.113  -0.074   4.789  0.00  0.00    +0.120 A 
ATOM      2  C   UNL     1      -0.843  -0.648   6.015  0.00  0.00    +0.056 A 
ATOM      3  C   UNL     1      -0.510   0.226   7.126  0.00  0.00    +0.037 A 
ATOM      4  C   UNL     1      -0.198  -0.121   8.473  0.00  0.00    -0.003 A 
ATOM      5  C   UNL     1       0.094   0.890   9.384  0.00  0.00    -0.034 A 
ATOM      6  C   UNL     1       0.080   2.210   8.977  0.00  0.00    +0.043 A 
ATOM      7  N   UNL     1      -0.213   2.520   7.723  0.00  0.00    -0.244 NA
ATOM      8  C   UNL     1      -0.497   1.606   6.824  0.00  0.00    +0.112 A 
ATOM      9  S   UNL     1      -0.916   1.670   5.099  0.00  0.00    -0.060 S 
ATOM     10  C   UNL     1       0.399   3.330   9.935  0.00  0.00    +0.037 C 
ATOM     11  C   UNL     1       0.306   2.822  11.375  0.00  0.00    -0.073 C 
ATOM     12  N   UNL     1       1.110   1.596  11.492  0.00  0.00    +0.381 N 
ATOM     13  C   UNL     1       0.417   0.503  10.804  0.00  0.00    -0.041 C 
ATOM     14  C   UNL     1       1.282   1.254  12.910  0.00  0.00    -0.096 C 
ATOM     15  H   UNL     1       2.014   1.743  11.066  0.00  0.00    -0.082 HD
ENDROOT
BRANCH   4  16
ATOM     16  C   UNL     1      -0.185  -1.540   8.898  0.00  0.00    -0.017 A 
ATOM     17  C   UNL     1       0.856  -2.380   8.502  0.00  0.00    +0.008 A 
ATOM     18  C   UNL     1       0.863  -3.701   8.901  0.00  0.00    +0.001 A 
ATOM     19  C   UNL     1      -0.160  -4.192   9.693  0.00  0.00    +0.000 A 
ATOM     20  C   UNL     1      -1.195  -3.364  10.088  0.00  0.00    +0.001 A 
ATOM     21  C   UNL     1      -1.210  -2.040   9.700  0.00  0.00    +0.008 A 
ENDBRANCH   4  16
BRANCH   2  22
ATOM     22  N   UNL     1      -0.889  -2.025   6.182  0.00  0.00    -0.356 N 
ATOM     23  H   UNL     1      -0.955  -2.605   5.407  0.00  0.00    +0.142 HD
ATOM     24  H   UNL     1      -0.855  -2.406   7.073  0.00  0.00    +0.142 HD
ENDBRANCH   2  22
BRANCH   1  25
ATOM     25  C   UNL     1      -1.456  -0.716   3.576  0.00  0.00    +0.353 C 
ATOM     26  O   UNL     1      -1.549  -1.929   3.535  0.00  0.00    -0.244 OA
BRANCH  25  27
ATOM     27  O   UNL     1      -1.681   0.016   2.465  0.00  0.00    -0.422 OA
BRANCH  27  34
ATOM     28  C   UNL     1       0.287  -1.078   0.758  0.00  0.00    +0.047 C 
ATOM     29  C   UNL     1      -1.189  -1.190   0.474  0.00  0.00    -0.008 A 
ATOM     30  C   UNL     1      -1.627  -1.853  -0.656  0.00  0.00    +0.007 A 
ATOM     31  C   UNL     1      -2.980  -1.957  -0.918  0.00  0.00    +0.000 A 
ATOM     32  C   UNL     1      -3.899  -1.397  -0.049  0.00  0.00    +0.004 A 
ATOM     33  C   UNL     1      -3.467  -0.733   1.082  0.00  0.00    +0.046 A 
ATOM     34  C   UNL     1      -2.109  -0.632   1.349  0.00  0.00    +0.135 A 
ENDBRANCH  27  34
ENDBRANCH  25  27
ENDBRANCH   1  25
TORSDOF 5
