REMARK  Name = ZINC43737284
REMARK  8 active torsions:
REMARK  status: ('A' for Active; 'I' for Inactive)
REMARK    1  A    between atoms: C_1  and  C_2
REMARK    2  A    between atoms: C_2  and  C_8
REMARK    3  A    between atoms: N_3  and  N_4
REMARK    4  A    between atoms: N_4  and  C_5
REMARK    5  A    between atoms: C_5  and  N_7
REMARK    6  A    between atoms: C_14  and  C_33
REMARK    7  A    between atoms: C_25  and  C_32
REMARK    8  A    between atoms: C_28  and  O_31
REMARK                            x       y       z     vdW  Elec       q    Type
REMARK                         _______ _______ _______ _____ _____    ______ ____
ROOT
ATOM      1  C   UNL     1      -0.010  -0.738  -1.314  0.00  0.00    +0.041 C 
ATOM      2  C   UNL     1       1.351  -0.582  -2.018  0.00  0.00    +0.010 C 
ATOM      3  C   UNL     1       1.909  -2.009  -2.221  0.00  0.00    +0.005 C 
ATOM      4  C   UNL     1       0.650  -2.895  -2.186  0.00  0.00    -0.001 C 
ATOM      5  C   UNL     1      -0.208  -2.260  -1.077  0.00  0.00    -0.021 C 
ATOM      6  C   UNL     1       0.377  -2.569   0.303  0.00  0.00    +0.008 C 
ATOM      7  C   UNL     1       0.559  -4.073   0.489  0.00  0.00    +0.005 C 
ATOM      8  C   UNL     1       1.562  -4.576  -0.555  0.00  0.00    -0.001 C 
ATOM      9  C   UNL     1       0.970  -4.348  -1.927  0.00  0.00    -0.004 C 
ATOM     10  C   UNL     1       1.950  -4.874  -2.978  0.00  0.00    +0.004 C 
ATOM     11  C   UNL     1       2.198  -6.366  -2.744  0.00  0.00    +0.004 C 
ATOM     12  C   UNL     1       2.787  -6.571  -1.347  0.00  0.00    -0.002 C 
ATOM     13  C   UNL     1       1.823  -6.066  -0.328  0.00  0.00    -0.026 C 
ATOM     14  C   UNL     1       2.425  -6.274   1.063  0.00  0.00    +0.010 C 
ATOM     15  C   UNL     1       2.688  -7.764   1.289  0.00  0.00    +0.032 C 
ATOM     16  C   UNL     1       3.666  -8.275   0.229  0.00  0.00    +0.115 C 
ATOM     17  C   UNL     1       3.039  -8.062  -1.114  0.00  0.00    +0.035 C 
ATOM     18  C   UNL     1       0.505  -6.836  -0.433  0.00  0.00    +0.012 C 
ATOM     19  C   UNL     1      -1.678  -2.670  -1.187  0.00  0.00    +0.012 C 
ENDROOT
BRANCH   1  21
ATOM     20  C   UNL     1      -1.243   0.038   0.852  0.00  0.00    +0.062 C 
ATOM     21  C   UNL     1       0.002  -0.007   0.004  0.00  0.00    +0.037 C 
ATOM     22  N   UNL     1       1.070   0.576   0.403  0.00  0.00    -0.190 NA
BRANCH  22  23
ATOM     23  N   UNL     1       1.049   1.357   1.566  0.00  0.00    -0.219 N 
ATOM     24  H   UNL     1       0.245   1.400   2.107  0.00  0.00    +0.176 HD
BRANCH  23  25
ATOM     25  C   UNL     1       2.146   2.048   1.933  0.00  0.00    +0.147 C 
ATOM     26  S   UNL     1       2.082   3.103   3.280  0.00  0.00    -0.017 S 
BRANCH  25  27
ATOM     27  N   UNL     1       3.293   1.910   1.239  0.00  0.00    -0.339 N 
ATOM     28  H   UNL     1       3.311   1.370   0.434  0.00  0.00    +0.144 HD
ATOM     29  H   UNL     1       4.101   2.351   1.545  0.00  0.00    +0.144 HD
ENDBRANCH  25  27
ENDBRANCH  23  25
ENDBRANCH  22  23
ENDBRANCH   1  21
BRANCH  16  30
ATOM     30  O   UNL     1       4.895  -7.553   0.328  0.00  0.00    -0.392 OA
ATOM     31  H   UNL     1       5.333  -7.638   1.185  0.00  0.00    +0.210 HD
ENDBRANCH  16  30
TORSDOF 5
