REMARK  Name = ZINC58846064
REMARK  6 active torsions:
REMARK  status: ('A' for Active; 'I' for Inactive)
REMARK    1  A    between atoms: C_1  and  C_2
REMARK    2  A    between atoms: C_2  and  C_3
REMARK    3  A    between atoms: C_8  and  N_9
REMARK    4  A    between atoms: N_9  and  S_10
REMARK    5  A    between atoms: S_10  and  C_13
REMARK    6  A    between atoms: C_26  and  C_29
REMARK                            x       y       z     vdW  Elec       q    Type
REMARK                         _______ _______ _______ _____ _____    ______ ____
ROOT
ATOM      1  C   UNL     1      -1.213   1.810   4.279  0.00  0.00    +0.109 A 
ATOM      2  C   UNL     1      -0.028   2.015   4.962  0.00  0.00    +0.030 A 
ATOM      3  C   UNL     1       0.438   3.299   5.155  0.00  0.00    +0.025 A 
ATOM      4  C   UNL     1      -0.280   4.384   4.663  0.00  0.00    +0.031 A 
ATOM      5  C   UNL     1      -1.462   4.180   3.967  0.00  0.00    -0.018 A 
ATOM      6  C   UNL     1      -1.922   2.884   3.781  0.00  0.00    +0.034 A 
ATOM      7  C   UNL     1      -2.239   5.314   3.390  0.00  0.00    +0.049 C 
ATOM      8  C   UNL     1      -3.465   5.636   4.205  0.00  0.00    -0.023 C 
ATOM      9  C   UNL     1      -3.678   6.928   4.213  0.00  0.00    -0.030 C 
ATOM     10  C   UNL     1      -2.622   7.654   3.409  0.00  0.00    +0.033 C 
ATOM     11  C   UNL     1      -1.468   6.630   3.303  0.00  0.00    +0.029 C 
ATOM     12  C   UNL     1      -0.523   6.861   4.464  0.00  0.00    +0.108 C 
ATOM     13  N   UNL     1       0.192   5.673   4.881  0.00  0.00    -0.336 N 
ATOM     14  H   UNL     1       1.030   5.782   5.357  0.00  0.00    +0.147 HD
ENDROOT
BRANCH  12  15
ATOM     15  C   UNL     1      -1.314   7.410   5.624  0.00  0.00    +0.008 A 
ATOM     16  C   UNL     1      -1.360   8.774   5.845  0.00  0.00    +0.008 A 
ATOM     17  C   UNL     1      -2.086   9.278   6.908  0.00  0.00    +0.000 A 
ATOM     18  C   UNL     1      -2.765   8.418   7.752  0.00  0.00    +0.003 A 
ATOM     19  C   UNL     1      -2.721   7.055   7.532  0.00  0.00    +0.039 A 
ATOM     20  C   UNL     1      -1.999   6.550   6.464  0.00  0.00    +0.128 A 
ATOM     21  F   UNL     1      -1.958   5.217   6.246  0.00  0.00    -0.205 F 
ENDBRANCH  12  15
BRANCH   1  22
ATOM     22  S   UNL     1      -1.816   0.172   4.038  0.00  0.00    +0.072 S 
ATOM     23  O   UNL     1      -3.219   0.280   3.839  0.00  0.00    -0.150 OA
ATOM     24  O   UNL     1      -1.253  -0.625   5.071  0.00  0.00    -0.150 OA
BRANCH  22  25
ATOM     25  N   UNL     1      -1.177  -0.381   2.614  0.00  0.00    -0.216 N 
ATOM     26  H   UNL     1      -1.765  -0.643   1.887  0.00  0.00    +0.174 HD
BRANCH  25  32
ATOM     27  C   UNL     1       0.787  -0.205   1.223  0.00  0.00    -0.025 A 
ATOM     28  C   UNL     1       2.158  -0.289   1.074  0.00  0.00    +0.005 A 
ATOM     29  C   UNL     1       2.952  -0.640   2.149  0.00  0.00    +0.000 A 
ATOM     30  C   UNL     1       2.378  -0.909   3.378  0.00  0.00    +0.002 A 
ATOM     31  C   UNL     1       1.008  -0.828   3.535  0.00  0.00    +0.025 A 
ATOM     32  C   UNL     1       0.208  -0.469   2.457  0.00  0.00    +0.051 A 
BRANCH  27  34
ATOM     33  C   UNL     1      -0.343   1.684   0.083  0.00  0.00    +0.009 C 
ATOM     34  C   UNL     1      -0.077   0.177   0.050  0.00  0.00    +0.033 C 
ENDBRANCH  27  34
ENDBRANCH  25  32
ENDBRANCH  22  25
ENDBRANCH   1  22
TORSDOF 5
