REMARK  Name = ZINC08915099
REMARK  7 active torsions:
REMARK  status: ('A' for Active; 'I' for Inactive)
REMARK    1  A    between atoms: C_1  and  C_2
REMARK    2  A    between atoms: C_5  and  C_8
REMARK    3  A    between atoms: C_8  and  N_9
REMARK    4  A    between atoms: C_11  and  C_18
REMARK    5  A    between atoms: C_20  and  O_33
REMARK    6  A    between atoms: N_24  and  C_27
REMARK    7  A    between atoms: C_27  and  C_28
REMARK                            x       y       z     vdW  Elec       q    Type
REMARK                         _______ _______ _______ _____ _____    ______ ____
ROOT
ATOM      1  N   UNL     1       0.381   5.503  -1.558  0.00  0.00    -0.342 N 
ATOM      2  C   UNL     1       1.351   6.011  -2.337  0.00  0.00    +0.095 A 
ATOM      3  C   UNL     1       0.787   6.802  -3.326  0.00  0.00    +0.001 A 
ATOM      4  C   UNL     1      -0.673   6.753  -3.103  0.00  0.00    +0.007 A 
ATOM      5  C   UNL     1      -0.863   5.921  -1.989  0.00  0.00    +0.050 A 
ATOM      6  C   UNL     1      -2.154   5.686  -1.528  0.00  0.00    +0.026 A 
ATOM      7  C   UNL     1      -3.230   6.258  -2.172  0.00  0.00    +0.002 A 
ATOM      8  C   UNL     1      -3.040   7.075  -3.276  0.00  0.00    +0.001 A 
ATOM      9  C   UNL     1      -1.767   7.325  -3.744  0.00  0.00    +0.010 A 
ENDROOT
BRANCH   3  10
ATOM     10  C   UNL     1       1.466   7.508  -4.336  0.00  0.00    +0.028 C 
ATOM     11  C   UNL     1       2.601   8.252  -4.022  0.00  0.00    +0.097 C 
ATOM     12  C   UNL     1       3.419   8.818  -5.042  0.00  0.00    +0.218 C 
ATOM     13  N   UNL     1       4.487   9.516  -4.696  0.00  0.00    -0.127 NA
ATOM     14  C   UNL     1       4.825   9.709  -3.423  0.00  0.00    +0.336 C 
ATOM     15  O   UNL     1       5.823  10.363  -3.179  0.00  0.00    -0.250 OA
ATOM     16  N   UNL     1       4.114   9.214  -2.397  0.00  0.00    -0.213 N 
ATOM     17  C   UNL     1       2.998   8.488  -2.624  0.00  0.00    +0.259 C 
ATOM     18  O   UNL     1       2.343   8.039  -1.701  0.00  0.00    -0.269 OA
BRANCH  12  19
ATOM     19  O   UNL     1       3.107   8.643  -6.343  0.00  0.00    -0.493 OA
ATOM     20  H   UNL     1       3.725   9.066  -6.956  0.00  0.00    +0.294 HD
ENDBRANCH  12  19
BRANCH  16  21
ATOM     21  C   UNL     1       4.549   9.468  -1.021  0.00  0.00    +0.192 C 
BRANCH  21  22
ATOM     22  C   UNL     1       3.914  10.740  -0.521  0.00  0.00    +0.123 A 
ATOM     23  C   UNL     1       2.733  10.832   0.115  0.00  0.00    +0.046 A 
ATOM     24  C   UNL     1       2.527  12.202   0.401  0.00  0.00    +0.041 A 
ATOM     25  C   UNL     1       3.596  12.864  -0.077  0.00  0.00    +0.195 A 
ATOM     26  O   UNL     1       4.435  11.973  -0.629  0.00  0.00    -0.466 OA
ENDBRANCH  21  22
ENDBRANCH  16  21
ENDBRANCH   3  10
BRANCH   1  27
ATOM     27  C   UNL     1       0.610   4.620  -0.412  0.00  0.00    +0.157 C 
BRANCH  27  32
ATOM     28  C   UNL     1       0.094  -0.886  -2.089  0.00  0.00    +0.044 C 
ATOM     29  C   UNL     1       0.229   0.550  -1.651  0.00  0.00    -0.050 A 
ATOM     30  C   UNL     1      -0.879   1.241  -1.198  0.00  0.00    +0.004 A 
ATOM     31  C   UNL     1      -0.754   2.556  -0.791  0.00  0.00    +0.005 A 
ATOM     32  C   UNL     1       0.476   3.184  -0.850  0.00  0.00    -0.028 A 
ATOM     33  C   UNL     1       1.583   2.494  -1.308  0.00  0.00    +0.005 A 
ATOM     34  C   UNL     1       1.459   1.177  -1.709  0.00  0.00    +0.004 A 
ENDBRANCH  27  32
ENDBRANCH   1  27
TORSDOF 6
