REMARK  Name = ZINC59639129
REMARK  6 active torsions:
REMARK  status: ('A' for Active; 'I' for Inactive)
REMARK    1  A    between atoms: C_1  and  C_2
REMARK    2  A    between atoms: C_5  and  N_9
REMARK    3  A    between atoms: C_13  and  C_14
REMARK    4  A    between atoms: C_19  and  O_20
REMARK    5  A    between atoms: O_20  and  C_21
REMARK    6  A    between atoms: C_21  and  C_22
REMARK                            x       y       z     vdW  Elec       q    Type
REMARK                         _______ _______ _______ _____ _____    ______ ____
ROOT
ATOM      1  N   UNL     1      -2.599  -5.459   0.381  0.00  0.00    -0.215 N 
ATOM      2  C   UNL     1      -1.849  -5.795   1.417  0.00  0.00    +0.263 C 
ATOM      3  O   UNL     1      -2.115  -5.420   2.543  0.00  0.00    -0.269 OA
ATOM      4  C   UNL     1      -0.675  -6.646   1.146  0.00  0.00    +0.079 C 
ATOM      5  C   UNL     1       0.252  -7.134   2.009  0.00  0.00    +0.032 C 
ATOM      6  S   UNL     1      -0.800  -6.864  -0.623  0.00  0.00    -0.049 S 
ATOM      7  C   UNL     1      -2.280  -5.902  -0.889  0.00  0.00    +0.165 C 
ATOM      8  N   UNL     1      -2.907  -5.671  -2.010  0.00  0.00    -0.279 NA
ATOM      9  H   UNL     1      -2.573  -6.047  -2.839  0.00  0.00    +0.189 HD
ENDROOT
BRANCH   1  14
ATOM     10  C   UNL     1      -7.175  -2.195   1.162  0.00  0.00    +0.045 C 
ATOM     11  C   UNL     1      -5.960  -3.061   0.954  0.00  0.00    -0.032 A 
ATOM     12  C   UNL     1      -6.111  -4.386   0.590  0.00  0.00    +0.006 A 
ATOM     13  C   UNL     1      -5.000  -5.183   0.400  0.00  0.00    +0.024 A 
ATOM     14  C   UNL     1      -3.728  -4.652   0.573  0.00  0.00    +0.045 A 
ATOM     15  C   UNL     1      -3.578  -3.322   0.939  0.00  0.00    +0.044 A 
ATOM     16  C   UNL     1      -4.694  -2.527   1.123  0.00  0.00    +0.046 A 
ATOM     17 CL   UNL     1      -4.509  -0.861   1.573  0.00  0.00    -0.083 Cl
ENDBRANCH   1  14
BRANCH   5  18
ATOM     18  C   UNL     1       0.258  -6.688   3.408  0.00  0.00    +0.019 A 
ATOM     19  C   UNL     1       0.051  -5.339   3.718  0.00  0.00    +0.031 A 
ATOM     20  C   UNL     1       0.059  -4.928   5.034  0.00  0.00    +0.042 A 
ATOM     21  C   UNL     1       0.270  -5.846   6.052  0.00  0.00    +0.023 A 
ATOM     22  C   UNL     1       0.476  -7.180   5.760  0.00  0.00    +0.048 A 
ATOM     23  C   UNL     1       0.467  -7.613   4.444  0.00  0.00    +0.128 A 
ATOM     24 CL   UNL     1      -0.198  -3.255   5.419  0.00  0.00    -0.084 Cl
BRANCH  23  25
ATOM     25  O   UNL     1       0.663  -8.925   4.156  0.00  0.00    -0.487 OA
BRANCH  25  26
ATOM     26  C   UNL     1       0.868  -9.808   5.261  0.00  0.00    +0.264 C 
BRANCH  26  27
ATOM     27  C   UNL     1       1.067 -11.212   4.753  0.00  0.00    -0.010 A 
ATOM     28  C   UNL     1      -0.022 -12.046   4.580  0.00  0.00    +0.008 A 
ATOM     29  C   UNL     1       0.160 -13.334   4.114  0.00  0.00    +0.020 A 
ATOM     30  C   UNL     1       1.432 -13.789   3.819  0.00  0.00    +0.041 A 
ATOM     31  C   UNL     1       2.522 -12.955   3.991  0.00  0.00    +0.020 A 
ATOM     32  C   UNL     1       2.339 -11.665   4.453  0.00  0.00    +0.008 A 
ATOM     33 CL   UNL     1       1.661 -15.407   3.233  0.00  0.00    -0.084 Cl
ENDBRANCH  26  27
ENDBRANCH  25  26
ENDBRANCH  23  25
ENDBRANCH   5  18
TORSDOF 5
