REMARK  Name = ZINC39576653
REMARK  9 active torsions:
REMARK  status: ('A' for Active; 'I' for Inactive)
REMARK    1  A    between atoms: C_1  and  C_2
REMARK    2  A    between atoms: C_2  and  C_3
REMARK    3  A    between atoms: C_2  and  C_4
REMARK    4  A    between atoms: C_2  and  C_5
REMARK    5  A    between atoms: C_5  and  C_6
REMARK    6  A    between atoms: C_13  and  C_17
REMARK    7  A    between atoms: N_19  and  N_20
REMARK    8  A    between atoms: C_21  and  C_22
REMARK    9  A    between atoms: C_25  and  O_28
REMARK                            x       y       z     vdW  Elec       q    Type
REMARK                         _______ _______ _______ _____ _____    ______ ____
ROOT
ATOM      1  C   UNL     1       2.007  -0.011  -1.051  0.00  0.00    -0.006 C 
ATOM      2  C   UNL     1       2.617  -0.599   0.225  0.00  0.00    +0.010 C 
ATOM      3  C   UNL     1       3.935   0.116   0.544  0.00  0.00    +0.057 C 
ATOM      4  C   UNL     1       4.795   0.117  -0.700  0.00  0.00    +0.065 C 
ATOM      5  C   UNL     1       4.307  -0.118  -1.922  0.00  0.00    -0.012 C 
ATOM      6  C   UNL     1       2.873  -0.409  -2.255  0.00  0.00    +0.039 C 
ATOM      7  C   UNL     1       5.497  -0.020  -2.841  0.00  0.00    +0.243 C 
ATOM      8  N   UNL     1       6.599   0.290  -1.909  0.00  0.00    -0.170 NA
ATOM      9  N   UNL     1       6.125   0.345  -0.769  0.00  0.00    -0.158 NA
ENDROOT
BRANCH   7  10
ATOM     10  C   UNL     1       5.739  -1.330  -3.545  0.00  0.00    +0.263 C 
ATOM     11  O   UNL     1       6.600  -2.085  -3.143  0.00  0.00    -0.271 OA
ATOM     12  N   UNL     1       4.999  -1.663  -4.621  0.00  0.00    -0.205 N 
ATOM     13  H   UNL     1       4.311  -1.060  -4.942  0.00  0.00    +0.177 HD
BRANCH  12  14
ATOM     14  N   UNL     1       5.224  -2.882  -5.275  0.00  0.00    -0.188 NA
ATOM     15  C   UNL     1       4.511  -3.203  -6.311  0.00  0.00    +0.138 C 
BRANCH  15  16
ATOM     16  C   UNL     1       4.747  -4.485  -7.000  0.00  0.00    -0.005 A 
ATOM     17  C   UNL     1       5.734  -5.358  -6.535  0.00  0.00    +0.013 A 
ATOM     18  C   UNL     1       5.951  -6.556  -7.182  0.00  0.00    +0.046 A 
ATOM     19  C   UNL     1       5.191  -6.895  -8.294  0.00  0.00    +0.117 A 
ATOM     20  C   UNL     1       4.210  -6.030  -8.759  0.00  0.00    +0.046 A 
ATOM     21  C   UNL     1       3.982  -4.833  -8.116  0.00  0.00    +0.013 A 
BRANCH  19  22
ATOM     22  O   UNL     1       5.409  -8.076  -8.928  0.00  0.00    -0.507 OA
ATOM     23  H   UNL     1       4.878  -8.809  -8.587  0.00  0.00    +0.292 HD
ENDBRANCH  19  22
ENDBRANCH  15  16
ENDBRANCH  12  14
ENDBRANCH   7  10
BRANCH   1  24
ATOM     24  C   UNL     1       0.590  -0.555  -1.238  0.00  0.00    +0.010 C 
BRANCH  24  26
ATOM     25  C   UNL     1       0.517   0.241  -3.605  0.00  0.00    +0.010 C 
ATOM     26  C   UNL     1      -0.166   0.322  -2.238  0.00  0.00    -0.037 C 
ATOM     27  C   UNL     1      -0.160   1.772  -1.750  0.00  0.00    +0.010 C 
ATOM     28  C   UNL     1      -1.609  -0.170  -2.359  0.00  0.00    +0.010 C 
ENDBRANCH  24  26
ENDBRANCH   1  24
TORSDOF 6
