REMARK  Name = ZINC12208122
REMARK  10 active torsions:
REMARK  status: ('A' for Active; 'I' for Inactive)
REMARK    1  A    between atoms: C_1  and  O_2
REMARK    2  A    between atoms: O_2  and  C_3
REMARK    3  A    between atoms: C_6  and  O_30
REMARK    4  A    between atoms: C_7  and  C_9
REMARK    5  A    between atoms: C_12  and  O_29
REMARK    6  A    between atoms: C_13  and  C_15
REMARK    7  A    between atoms: C_15  and  N_57
REMARK    8  A    between atoms: C_16  and  C_17
REMARK    9  A    between atoms: C_16  and  N_57
REMARK   10  A    between atoms: O_30  and  C_31
REMARK                            x       y       z     vdW  Elec       q    Type
REMARK                         _______ _______ _______ _____ _____    ______ ____
ROOT
ATOM      1  C   UNL     1      -3.532   6.896  -6.327  0.00  0.00    -0.014 A 
ATOM      2  C   UNL     1      -2.591   6.914  -7.356  0.00  0.00    +0.012 A 
ATOM      3  C   UNL     1      -1.248   6.808  -7.063  0.00  0.00    +0.046 A 
ATOM      4  C   UNL     1      -0.832   6.687  -5.744  0.00  0.00    +0.118 A 
ATOM      5  C   UNL     1      -1.766   6.663  -4.717  0.00  0.00    -0.022 A 
ATOM      6  C   UNL     1      -3.111   6.769  -5.004  0.00  0.00    +0.014 A 
ENDROOT
BRANCH   1  11
ATOM      7  C   UNL     1      -7.231   6.212  -6.396  0.00  0.00    +0.121 A 
ATOM      8  C   UNL     1      -7.681   7.230  -7.226  0.00  0.00    +0.049 A 
ATOM      9  C   UNL     1      -6.786   8.136  -7.763  0.00  0.00    +0.050 A 
ATOM     10  C   UNL     1      -5.435   8.034  -7.474  0.00  0.00    +0.128 A 
ATOM     11  C   UNL     1      -4.977   7.011  -6.639  0.00  0.00    +0.027 A 
ATOM     12  C   UNL     1      -5.883   6.097  -6.105  0.00  0.00    +0.057 A 
BRANCH   7  14
ATOM     13  C   UNL     1      -9.492   5.497  -6.218  0.00  0.00    +0.277 C 
ATOM     14  O   UNL     1      -8.117   5.323  -5.872  0.00  0.00    -0.495 OA
ENDBRANCH   7  14
BRANCH  10  15
ATOM     15  O   UNL     1      -4.556   8.926  -8.002  0.00  0.00    -0.494 OA
ATOM     16  C   UNL     1      -5.096   9.945  -8.847  0.00  0.00    +0.277 C 
ENDBRANCH  10  15
ENDBRANCH   1  11
BRANCH   4  17
ATOM     17  O   UNL     1       0.493   6.587  -5.457  0.00  0.00    -0.507 OA
ATOM     18  H   UNL     1       0.825   5.679  -5.442  0.00  0.00    +0.292 HD
ENDBRANCH   4  17
BRANCH   5  19
ATOM     19  C   UNL     1      -1.310   6.526  -3.288  0.00  0.00    -0.043 C 
BRANCH  19  20
ATOM     20  N   UNL     1      -0.905   5.129  -3.040  0.00  0.00    +0.382 N 
ATOM     21  H   UNL     1      -0.138   4.881  -3.676  0.00  0.00    -0.085 HD
ATOM     22  H   UNL     1      -1.706   4.510  -3.212  0.00  0.00    -0.085 HD
BRANCH  20  23
ATOM     23  C   UNL     1      -0.453   4.966  -1.646  0.00  0.00    -0.078 C 
BRANCH  23  24
ATOM     24  C   UNL     1      -0.041   3.510  -1.420  0.00  0.00    -0.020 C 
ATOM     25  C   UNL     1      -1.285   2.586  -1.413  0.00  0.00    +0.010 C 
ATOM     26  C   UNL     1      -1.273   1.960   0.018  0.00  0.00    +0.018 C 
ATOM     27  C   UNL     1      -0.013   1.076   0.008  0.00  0.00    -0.027 C 
ATOM     28  C   UNL     1       1.048   1.864   0.002  0.00  0.00    -0.027 C 
ATOM     29  C   UNL     1       0.565   3.325   0.014  0.00  0.00    +0.019 C 
ATOM     30  C   UNL     1      -0.732   3.158   0.841  0.00  0.00    -0.017 C 
ATOM     31  C   UNL     1      -1.562   4.278   1.386  0.00  0.00    +0.008 C 
ATOM     32  C   UNL     1      -0.834   3.305   2.328  0.00  0.00    +0.008 C 
ENDBRANCH  23  24
ENDBRANCH  20  23
ENDBRANCH  19  20
ENDBRANCH   5  19
TORSDOF 8
