REMARK  Name = ZINC38684618
REMARK  10 active torsions:
REMARK  status: ('A' for Active; 'I' for Inactive)
REMARK    1  A    between atoms: C_2  and  C_3
REMARK    2  A    between atoms: C_3  and  O_4
REMARK    3  A    between atoms: O_4  and  C_5
REMARK    4  A    between atoms: C_9  and  C_11
REMARK    5  A    between atoms: C_16  and  O_25
REMARK    6  A    between atoms: C_20  and  N_24
REMARK    7  A    between atoms: C_21  and  C_22
REMARK    8  A    between atoms: O_25  and  C_26
REMARK    9  A    between atoms: C_26  and  C_28
REMARK   10  A    between atoms: C_30  and  N_35
REMARK                            x       y       z     vdW  Elec       q    Type
REMARK                         _______ _______ _______ _____ _____    ______ ____
ROOT
ATOM      1  C   UNL     1       3.524  -5.580   3.031  0.00  0.00    +0.098 C 
ATOM      2  C   UNL     1       3.779  -6.858   2.277  0.00  0.00    +0.008 A 
ATOM      3  C   UNL     1       2.728  -7.495   1.640  0.00  0.00    +0.012 A 
ATOM      4  C   UNL     1       2.944  -8.668   0.945  0.00  0.00    +0.047 A 
ATOM      5  C   UNL     1       4.218  -9.213   0.882  0.00  0.00    +0.135 A 
ATOM      6  C   UNL     1       5.273  -8.578   1.518  0.00  0.00    +0.093 A 
ATOM      7  C   UNL     1       5.054  -7.398   2.217  0.00  0.00    +0.138 A 
ATOM      8  O   UNL     1       6.097  -6.789   2.834  0.00  0.00    -0.441 OA
ATOM      9  C   UNL     1       5.869  -5.897   3.812  0.00  0.00    +0.199 C 
ATOM     10  C   UNL     1       4.671  -5.289   3.957  0.00  0.00    +0.098 C 
ENDROOT
BRANCH   1  15
ATOM     11  C   UNL     1       2.056  -2.680   1.104  0.00  0.00    +0.121 A 
ATOM     12  C   UNL     1       3.102  -2.361   0.250  0.00  0.00    +0.045 A 
ATOM     13  C   UNL     1       4.278  -3.083   0.300  0.00  0.00    +0.004 A 
ATOM     14  C   UNL     1       4.413  -4.124   1.200  0.00  0.00    +0.005 A 
ATOM     15  C   UNL     1       3.373  -4.445   2.051  0.00  0.00    -0.031 A 
ATOM     16  C   UNL     1       2.196  -3.721   2.010  0.00  0.00    +0.050 A 
BRANCH  11  17
ATOM     17  O   UNL     1       0.898  -1.970   1.058  0.00  0.00    -0.488 OA
BRANCH  17  18
ATOM     18  C   UNL     1       0.824  -0.912   0.100  0.00  0.00    +0.256 C 
BRANCH  18  20
ATOM     19  C   UNL     1      -0.607   1.065   0.191  0.00  0.00    +0.007 C 
ATOM     20  C   UNL     1      -0.523  -0.243   0.194  0.00  0.00    +0.006 C 
ENDBRANCH  18  20
ENDBRANCH  17  18
ENDBRANCH  11  17
ENDBRANCH   1  15
BRANCH   9  21
ATOM     21  N   UNL     1       6.882  -5.594   4.687  0.00  0.00    -0.328 N 
ATOM     22  H   UNL     1       7.747  -6.022   4.594  0.00  0.00    +0.145 HD
ATOM     23  H   UNL     1       6.732  -4.951   5.399  0.00  0.00    +0.145 HD
ENDBRANCH   9  21
BRANCH  10  24
ATOM     24  C   UNL     1       4.492  -4.346   5.020  0.00  0.00    +0.101 C 
ATOM     25  N   UNL     1       4.350  -3.598   5.863  0.00  0.00    -0.191 NA
ENDBRANCH  10  24
BRANCH   5  26
ATOM     26  O   UNL     1       4.432 -10.368   0.199  0.00  0.00    -0.422 OA
BRANCH  26  27
ATOM     27  C   UNL     1       4.328 -10.337  -1.144  0.00  0.00    +0.346 C 
ATOM     28  O   UNL     1       4.154  -9.279  -1.716  0.00  0.00    -0.244 OA
BRANCH  27  29
ATOM     29  C   UNL     1       4.425 -11.588  -1.921  0.00  0.00    +0.080 A 
ATOM     30  C   UNL     1       4.619 -12.807  -1.267  0.00  0.00    +0.049 A 
ATOM     31  C   UNL     1       4.708 -13.973  -1.999  0.00  0.00    +0.127 A 
ATOM     32  C   UNL     1       4.607 -13.937  -3.380  0.00  0.00    +0.034 A 
ATOM     33  C   UNL     1       4.416 -12.735  -4.035  0.00  0.00    +0.023 A 
ATOM     34  C   UNL     1       4.317 -11.560  -3.314  0.00  0.00    +0.055 A 
ATOM     35 CL   UNL     1       4.068 -10.052  -4.138  0.00  0.00    -0.083 Cl
BRANCH  31  36
ATOM     36  N   UNL     1       4.914 -15.265  -1.307  0.00  0.00    +0.056 N 
ATOM     37  O   UNL     1       5.003 -15.298  -0.102  0.00  0.00    -0.126 OA
ATOM     38  O   UNL     1       4.993 -16.287  -1.948  0.00  0.00    -0.126 OA
ENDBRANCH  31  36
ENDBRANCH  27  29
ENDBRANCH  26  27
ENDBRANCH   5  26
TORSDOF 10
