REMARK  Name = ZINC35939206
REMARK  6 active torsions:
REMARK  status: ('A' for Active; 'I' for Inactive)
REMARK    1  A    between atoms: C_1  and  N_2
REMARK    2  A    between atoms: C_5  and  C_8
REMARK    3  A    between atoms: N_13  and  C_16
REMARK    4  A    between atoms: C_16  and  C_17
REMARK    5  A    between atoms: N_22  and  C_25
REMARK    6  A    between atoms: C_28  and  N_31
REMARK                            x       y       z     vdW  Elec       q    Type
REMARK                         _______ _______ _______ _____ _____    ______ ____
ROOT
ATOM      1  C   UNL     1       0.827  -7.139   1.796  0.00  0.00    +0.180 C 
ENDROOT
BRANCH   1   7
ATOM      2  C   UNL     1       1.468  -3.981  -2.569  0.00  0.00    +0.266 C 
ATOM      3  O   UNL     1       1.546  -2.792  -2.322  0.00  0.00    -0.268 OA
ATOM      4  N   UNL     1       0.864  -4.811  -1.696  0.00  0.00    -0.294 N 
ATOM      5  C   UNL     1       0.110  -4.283  -0.549  0.00  0.00    +0.123 C 
ATOM      6  C   UNL     1       0.606  -4.981   0.723  0.00  0.00    +0.104 C 
ATOM      7  N   UNL     1       0.524  -6.436   0.543  0.00  0.00    -0.291 NA
ATOM      8  C   UNL     1       1.406  -6.889  -0.541  0.00  0.00    +0.104 C 
ATOM      9  C   UNL     1       0.938  -6.270  -1.868  0.00  0.00    +0.123 C 
BRANCH   2  14
ATOM     10  C   UNL     1       2.840  -7.876  -7.092  0.00  0.00    +0.127 C 
ATOM     11  N   UNL     1       2.190  -7.543  -5.822  0.00  0.00    -0.327 N 
ATOM     12  C   UNL     1       2.311  -6.268  -5.295  0.00  0.00    +0.159 A 
ATOM     13  N   UNL     1       1.813  -5.779  -4.178  0.00  0.00    -0.220 NA
ATOM     14  C   UNL     1       2.031  -4.511  -3.820  0.00  0.00    +0.135 A 
ATOM     15  C   UNL     1       2.789  -3.711  -4.637  0.00  0.00    +0.081 A 
ATOM     16  S   UNL     1       3.189  -4.856  -5.950  0.00  0.00    -0.060 S 
ATOM     17  H   UNL     1       1.675  -8.216  -5.349  0.00  0.00    +0.148 HD
ENDBRANCH   2  14
ENDBRANCH   1   7
BRANCH   1  18
ATOM     18  C   UNL     1       0.497  -8.602   1.644  0.00  0.00    +0.230 C 
ATOM     19  O   UNL     1       0.054  -9.018   0.594  0.00  0.00    -0.274 OA
ATOM     20  N   UNL     1       0.695  -9.448   2.674  0.00  0.00    -0.297 N 
ATOM     21  C   UNL     1       1.226  -8.957   3.954  0.00  0.00    +0.126 C 
ATOM     22  C   UNL     1       0.255  -9.356   5.072  0.00  0.00    +0.124 C 
ATOM     23  N   UNL     1      -0.057 -10.786   4.936  0.00  0.00    -0.327 N 
ATOM     24  C   UNL     1      -0.588 -11.277   3.656  0.00  0.00    +0.124 C 
ATOM     25  C   UNL     1       0.378 -10.877   2.540  0.00  0.00    +0.126 C 
BRANCH  23  26
ATOM     26  C   UNL     1       0.148 -11.663   6.004  0.00  0.00    +0.030 A 
ATOM     27  C   UNL     1       0.515 -11.169   7.249  0.00  0.00    +0.025 A 
ATOM     28  C   UNL     1       0.717 -12.039   8.303  0.00  0.00    +0.034 A 
ATOM     29  C   UNL     1       0.553 -13.400   8.119  0.00  0.00    +0.126 A 
ATOM     30  C   UNL     1       0.188 -13.895   6.880  0.00  0.00    +0.034 A 
ATOM     31  C   UNL     1      -0.021 -13.030   5.824  0.00  0.00    +0.025 A 
BRANCH  29  32
ATOM     32  N   UNL     1       0.770 -14.329   9.250  0.00  0.00    +0.056 N 
ATOM     33  O   UNL     1       1.091 -13.898  10.334  0.00  0.00    -0.126 OA
ATOM     34  O   UNL     1       0.628 -15.519   9.091  0.00  0.00    -0.126 OA
ENDBRANCH  29  32
ENDBRANCH  23  26
ENDBRANCH   1  18
TORSDOF 5
