REMARK  Name = ZINC04200626
REMARK  3 active torsions:
REMARK  status: ('A' for Active; 'I' for Inactive)
REMARK    1  A    between atoms: C_13  and  C_15
REMARK    2  A    between atoms: C_15  and  O_16
REMARK    3  A    between atoms: O_16  and  C_17
REMARK                            x       y       z     vdW  Elec       q    Type
REMARK                         _______ _______ _______ _____ _____    ______ ____
ROOT
ATOM      1  C   UNL     1       7.553   3.302   0.295  0.00  0.00    +0.001 A 
ATOM      2  C   UNL     1       8.622   2.513  -0.093  0.00  0.00    +0.001 A 
ATOM      3  C   UNL     1       8.419   1.203  -0.480  0.00  0.00    +0.015 A 
ATOM      4  C   UNL     1       7.135   0.670  -0.483  0.00  0.00    +0.017 A 
ATOM      5  C   UNL     1       6.060   1.461  -0.078  0.00  0.00    +0.015 A 
ATOM      6  C   UNL     1       6.274   2.783   0.305  0.00  0.00    +0.011 A 
ATOM      7  C   UNL     1       4.666   0.914  -0.041  0.00  0.00    +0.085 A 
ATOM      8  C   UNL     1       4.440  -0.436  -0.040  0.00  0.00    +0.029 A 
ATOM      9  S   UNL     1       2.669  -0.541  -0.027  0.00  0.00    -0.056 S 
ATOM     10  C   UNL     1       2.356   1.220  -0.014  0.00  0.00    +0.165 A 
ATOM     11  N   UNL     1       3.581   1.702  -0.028  0.00  0.00    -0.224 NA
ATOM     12  N   UNL     1       1.143   1.898   0.001  0.00  0.00    -0.262 N 
ATOM     13  C   UNL     1      -0.014   1.209   0.009  0.00  0.00    +0.256 C 
ATOM     14  O   UNL     1       0.002  -0.004   0.002  0.00  0.00    -0.272 OA
ATOM     15  C   UNL     1       5.447  -1.538  -0.040  0.00  0.00    +0.119 C 
ATOM     16  S   UNL     1       6.889  -0.996  -1.009  0.00  0.00    -0.119 S 
ATOM     17  H   UNL     1       1.130   2.868   0.007  0.00  0.00    +0.157 HD
ENDROOT
BRANCH  13  18
ATOM     18  C   UNL     1      -1.330   1.944   0.019  0.00  0.00    +0.324 C 
BRANCH  18  19
ATOM     19  O   UNL     1      -2.403   1.001   0.019  0.00  0.00    -0.483 OA
BRANCH  19  20
ATOM     20  C   UNL     1      -3.666   1.503   0.028  0.00  0.00    +0.121 A 
ATOM     21  C   UNL     1      -3.867   2.876   0.042  0.00  0.00    +0.047 A 
ATOM     22  C   UNL     1      -5.152   3.385   0.046  0.00  0.00    +0.023 A 
ATOM     23  C   UNL     1      -6.237   2.526   0.046  0.00  0.00    +0.041 A 
ATOM     24  C   UNL     1      -6.038   1.157   0.037  0.00  0.00    +0.023 A 
ATOM     25  C   UNL     1      -4.755   0.644   0.028  0.00  0.00    +0.047 A 
ATOM     26 CL   UNL     1      -7.850   3.168   0.058  0.00  0.00    -0.084 Cl
ENDBRANCH  19  20
ENDBRANCH  18  19
ENDBRANCH  13  18
TORSDOF 3
