REMARK  Name = ZINC13785566
REMARK  7 active torsions:
REMARK  status: ('A' for Active; 'I' for Inactive)
REMARK    1  A    between atoms: C_5  and  C_7
REMARK    2  A    between atoms: N_11  and  C_15
REMARK    3  A    between atoms: C_15  and  C_16
REMARK    4  A    between atoms: C_16  and  C_17
REMARK    5  A    between atoms: N_19  and  N_20
REMARK    6  A    between atoms: C_21  and  C_23
REMARK    7  A    between atoms: C_28  and  N_29
REMARK                            x       y       z     vdW  Elec       q    Type
REMARK                         _______ _______ _______ _____ _____    ______ ____
ROOT
ATOM      1  C   UNL     1      -2.348  -2.414  -3.654  0.00  0.00    +0.116 C 
ENDROOT
BRANCH   1   2
ATOM      2  C   UNL     1      -3.730  -2.998  -3.509  0.00  0.00    +0.231 C 
ATOM      3  O   UNL     1      -4.154  -3.286  -2.410  0.00  0.00    -0.274 OA
ATOM      4  N   UNL     1      -4.495  -3.200  -4.600  0.00  0.00    -0.234 N 
ATOM      5  H   UNL     1      -4.155  -2.970  -5.479  0.00  0.00    +0.173 HD
BRANCH   4   6
ATOM      6  N   UNL     1      -5.779  -3.743  -4.465  0.00  0.00    -0.230 N 
ATOM      7  C   UNL     1      -6.543  -3.945  -5.556  0.00  0.00    +0.262 C 
ATOM      8  O   UNL     1      -6.119  -3.656  -6.658  0.00  0.00    -0.269 OA
ATOM      9  H   UNL     1      -6.118  -3.973  -3.586  0.00  0.00    +0.173 HD
BRANCH   7  10
ATOM     10  C   UNL     1      -7.899  -4.518  -5.414  0.00  0.00    +0.068 A 
ATOM     11  C   UNL     1      -8.830  -3.913  -4.568  0.00  0.00    +0.015 A 
ATOM     12  C   UNL     1     -10.095  -4.450  -4.444  0.00  0.00    +0.001 A 
ATOM     13  C   UNL     1     -10.437  -5.592  -5.146  0.00  0.00    +0.002 A 
ATOM     14  C   UNL     1      -9.517  -6.200  -5.981  0.00  0.00    +0.033 A 
ATOM     15  C   UNL     1      -8.251  -5.670  -6.119  0.00  0.00    +0.138 A 
BRANCH  15  16
ATOM     16  N   UNL     1      -7.267  -6.322  -7.013  0.00  0.00    +0.057 N 
ATOM     17  O   UNL     1      -7.613  -7.246  -7.727  0.00  0.00    -0.126 OA
ATOM     18  O   UNL     1      -6.113  -5.934  -7.033  0.00  0.00    -0.126 OA
ENDBRANCH  15  16
ENDBRANCH   7  10
ENDBRANCH   4   6
ENDBRANCH   1   2
BRANCH   1  19
ATOM     19  C   UNL     1      -1.700  -2.289  -2.274  0.00  0.00    +0.124 C 
BRANCH  19  24
ATOM     20  C   UNL     1       1.634   1.378  -2.511  0.00  0.00    +0.029 C 
ATOM     21  C   UNL     1       1.178   0.100  -2.518  0.00  0.00    +0.077 C 
ATOM     22  C   UNL     1      -0.202  -0.409  -2.369  0.00  0.00    +0.258 C 
ATOM     23  O   UNL     1      -1.147   0.342  -2.215  0.00  0.00    -0.269 OA
ATOM     24  N   UNL     1      -0.356  -1.721  -2.416  0.00  0.00    -0.255 N 
ATOM     25  C   UNL     1       0.694  -2.549  -2.592  0.00  0.00    +0.121 C 
ATOM     26  S   UNL     1       0.696  -4.259  -2.680  0.00  0.00    -0.027 S 
ATOM     27  S   UNL     1       2.080  -1.431  -2.711  0.00  0.00    -0.061 S 
BRANCH  20  32
ATOM     28  C   UNL     1       5.105   0.984  -3.873  0.00  0.00    +0.001 A 
ATOM     29  C   UNL     1       5.675   2.192  -3.507  0.00  0.00    +0.001 A 
ATOM     30  C   UNL     1       4.934   3.136  -2.819  0.00  0.00    +0.020 A 
ATOM     31  C   UNL     1       3.618   2.879  -2.491  0.00  0.00    +0.048 A 
ATOM     32  C   UNL     1       3.034   1.660  -2.857  0.00  0.00    -0.005 A 
ATOM     33  C   UNL     1       3.794   0.710  -3.548  0.00  0.00    +0.009 A 
ATOM     34 CL   UNL     1       2.689   4.064  -1.626  0.00  0.00    -0.083 Cl
ENDBRANCH  20  32
ENDBRANCH  19  24
ENDBRANCH   1  19
TORSDOF 7
