REMARK  Name = ZINC14558583
REMARK  10 active torsions:
REMARK  status: ('A' for Active; 'I' for Inactive)
REMARK    1  A    between atoms: C_1  and  C_2
REMARK    2  A    between atoms: C_2  and  C_4
REMARK    3  A    between atoms: C_2  and  S_14
REMARK    4  A    between atoms: N_9  and  C_10
REMARK    5  A    between atoms: C_10  and  C_11
REMARK    6  A    between atoms: C_11  and  C_12
REMARK    7  A    between atoms: C_11  and  C_13
REMARK    8  A    between atoms: S_14  and  C_15
REMARK    9  A    between atoms: N_29  and  C_30
REMARK   10  A    between atoms: C_30  and  C_31
REMARK                            x       y       z     vdW  Elec       q    Type
REMARK                         _______ _______ _______ _____ _____    ______ ____
ROOT
ATOM      1  C   UNL     1       2.533  -0.042   1.241  0.00  0.00    +0.174 A 
ATOM      2  N   UNL     1       2.838   0.653   0.164  0.00  0.00    -0.216 NA
ATOM      3  C   UNL     1       4.077   1.090  -0.035  0.00  0.00    +0.117 A 
ATOM      4  C   UNL     1       5.112   0.839   0.879  0.00  0.00    +0.076 A 
ATOM      5  C   UNL     1       6.428   1.387   0.530  0.00  0.00    -0.023 A 
ATOM      6  C   UNL     1       6.511   2.075  -0.626  0.00  0.00    -0.004 A 
ATOM      7  S   UNL     1       4.875   2.027  -1.312  0.00  0.00    -0.073 S 
ATOM      8  C   UNL     1       7.713   2.750  -1.210  0.00  0.00    +0.043 C 
ATOM      9  C   UNL     1       8.898   1.776  -1.194  0.00  0.00    +0.005 C 
ATOM     10  C   UNL     1       9.636   1.937   0.131  0.00  0.00    +0.001 C 
ATOM     11  C   UNL     1       8.647   2.292   1.240  0.00  0.00    +0.005 C 
ATOM     12  C   UNL     1       7.637   1.168   1.436  0.00  0.00    +0.037 C 
ATOM     13  C   UNL     1       4.753   0.081   2.038  0.00  0.00    +0.263 A 
ATOM     14  O   UNL     1       5.588  -0.186   2.886  0.00  0.00    -0.267 OA
ATOM     15  N   UNL     1       3.479  -0.327   2.183  0.00  0.00    -0.283 N 
ENDROOT
BRANCH   1  16
ATOM     16  S   UNL     1       0.879  -0.605   1.472  0.00  0.00    -0.075 S 
BRANCH  16  18
ATOM     17  C   UNL     1      -0.019   1.526   0.010  0.00  0.00    +0.029 C 
ATOM     18  C   UNL     1       0.002  -0.004   0.002  0.00  0.00    +0.137 C 
BRANCH  18  19
ATOM     19  C   UNL     1      -1.412  -0.526   0.013  0.00  0.00    +0.233 C 
ATOM     20  O   UNL     1      -1.939  -0.827   1.062  0.00  0.00    -0.274 OA
ATOM     21  N   UNL     1      -2.090  -0.657  -1.144  0.00  0.00    -0.239 N 
ATOM     22  C   UNL     1      -3.355  -1.124  -1.135  0.00  0.00    +0.306 C 
ATOM     23  O   UNL     1      -3.883  -1.426  -0.083  0.00  0.00    -0.252 OA
ATOM     24  N   UNL     1      -4.033  -1.255  -2.292  0.00  0.00    -0.299 N 
ATOM     25  H   UNL     1      -1.669  -0.416  -1.984  0.00  0.00    +0.159 HD
ATOM     26  H   UNL     1      -3.611  -1.014  -3.131  0.00  0.00    +0.150 HD
BRANCH  24  27
ATOM     27  C   UNL     1      -5.408  -1.762  -2.281  0.00  0.00    +0.108 C 
BRANCH  27  28
ATOM     28  C   UNL     1      -5.943  -1.813  -3.714  0.00  0.00    -0.000 C 
ATOM     29  C   UNL     1      -7.331  -2.458  -3.717  0.00  0.00    +0.009 C 
ATOM     30  C   UNL     1      -6.040  -0.392  -4.273  0.00  0.00    +0.009 C 
ENDBRANCH  27  28
ENDBRANCH  24  27
ENDBRANCH  18  19
ENDBRANCH  16  18
ENDBRANCH   1  16
BRANCH  15  31
ATOM     31  C   UNL     1       3.101  -1.097   3.370  0.00  0.00    +0.154 C 
BRANCH  31  32
ATOM     32  C   UNL     1       3.287  -2.567   3.096  0.00  0.00    -0.013 C 
ATOM     33  C   UNL     1       4.035  -3.292   3.890  0.00  0.00    +0.005 C 
ENDBRANCH  31  32
ENDBRANCH  15  31
TORSDOF 7
