REMARK  Name = ZINC63060485
REMARK  5 active torsions:
REMARK  status: ('A' for Active; 'I' for Inactive)
REMARK    1  A    between atoms: C_4  and  C_7
REMARK    2  A    between atoms: C_9  and  S_13
REMARK    3  A    between atoms: S_13  and  C_14
REMARK    4  A    between atoms: C_14  and  C_15
REMARK    5  A    between atoms: N_17  and  C_18
REMARK                            x       y       z     vdW  Elec       q    Type
REMARK                         _______ _______ _______ _____ _____    ______ ____
ROOT
ATOM      1  C   UNL     1       7.777  -3.463  -0.097  0.00  0.00    +0.173 C 
ENDROOT
BRANCH   1   2
ATOM      2  C   UNL     1       8.573  -4.743  -0.113  0.00  0.00    +0.225 C 
ATOM      3  O   UNL     1       8.002  -5.813  -0.112  0.00  0.00    -0.275 OA
ATOM      4  N   UNL     1       9.920  -4.699  -0.127  0.00  0.00    -0.288 N 
ATOM      5  H   UNL     1      10.377  -3.843  -0.128  0.00  0.00    +0.151 HD
BRANCH   4   6
ATOM      6  C   UNL     1      10.694  -5.943  -0.142  0.00  0.00    +0.224 C 
ATOM      7  N   UNL     1      12.116  -5.684   0.119  0.00  0.00    -0.316 N 
ATOM      8  C   UNL     1      13.027  -6.016  -0.883  0.00  0.00    +0.043 A 
ATOM      9  C   UNL     1      14.420  -5.841  -0.813  0.00  0.00    +0.024 A 
ATOM     10  C   UNL     1      15.236  -6.201  -1.860  0.00  0.00    +0.002 A 
ATOM     11  C   UNL     1      14.714  -6.748  -3.017  0.00  0.00    +0.001 A 
ATOM     12  C   UNL     1      13.345  -6.932  -3.114  0.00  0.00    +0.016 A 
ATOM     13  C   UNL     1      12.529  -6.571  -2.066  0.00  0.00    +0.032 A 
ATOM     14  S   UNL     1      10.767  -6.656  -1.834  0.00  0.00    -0.082 S 
ATOM     15  H   UNL     1      12.411  -5.296   0.958  0.00  0.00    +0.149 HD
ENDBRANCH   4   6
ENDBRANCH   1   2
BRANCH   1  16
ATOM     16  S   UNL     1       6.006  -3.853  -0.080  0.00  0.00    -0.079 S 
BRANCH  16  19
ATOM     17  C   UNL     1       3.695  -0.684  -0.038  0.00  0.00    +0.067 A 
ATOM     18  N   UNL     1       3.879  -2.056  -0.047  0.00  0.00    -0.333 N 
ATOM     19  C   UNL     1       5.222  -2.275  -0.063  0.00  0.00    +0.167 A 
ATOM     20  H   UNL     1       3.183  -2.732  -0.043  0.00  0.00    +0.168 HD
ATOM     21  N   UNL     1       5.838  -1.114  -0.064  0.00  0.00    -0.230 NA
ATOM     22  C   UNL     1       4.934  -0.126  -0.054  0.00  0.00    +0.139 A 
BRANCH  17  26
ATOM     23  C   UNL     1      -0.017   1.379   0.010  0.00  0.00    +0.000 A 
ATOM     24  C   UNL     1       1.168   2.094   0.002  0.00  0.00    +0.001 A 
ATOM     25  C   UNL     1       2.377   1.430  -0.013  0.00  0.00    +0.010 A 
ATOM     26  C   UNL     1       2.404   0.034  -0.021  0.00  0.00    -0.000 A 
ATOM     27  C   UNL     1       1.204  -0.681  -0.013  0.00  0.00    +0.010 A 
ATOM     28  C   UNL     1       0.002  -0.004   0.002  0.00  0.00    +0.001 A 
ENDBRANCH  17  26
ENDBRANCH  16  19
ENDBRANCH   1  16
TORSDOF 5
