REMARK  Name = ZINC21231138
REMARK  11 active torsions:
REMARK  status: ('A' for Active; 'I' for Inactive)
REMARK    1  A    between atoms: C_1  and  C_2
REMARK    2  A    between atoms: C_2  and  C_4
REMARK    3  A    between atoms: C_2  and  S_20
REMARK    4  A    between atoms: N_6  and  C_7
REMARK    5  A    between atoms: C_10  and  S_13
REMARK    6  A    between atoms: S_13  and  N_16
REMARK    7  A    between atoms: N_16  and  C_17
REMARK    8  A    between atoms: C_17  and  C_18
REMARK    9  A    between atoms: C_17  and  C_19
REMARK   10  A    between atoms: S_20  and  C_21
REMARK   11  A    between atoms: N_23  and  C_27
REMARK                            x       y       z     vdW  Elec       q    Type
REMARK                         _______ _______ _______ _____ _____    ______ ____
ROOT
ATOM      1  C   UNL     1      -1.485   0.664  -0.453  0.00  0.00    +0.230 C 
ATOM      2  O   UNL     1      -1.993   0.301  -1.492  0.00  0.00    -0.274 OA
ATOM      3  N   UNL     1      -2.254   0.885   0.632  0.00  0.00    -0.285 N 
ATOM      4  H   UNL     1      -1.843   1.124   1.477  0.00  0.00    +0.155 HD
ENDROOT
BRANCH   3   5
ATOM      5  C   UNL     1      -3.645   0.769   0.539  0.00  0.00    +0.034 A 
ATOM      6  C   UNL     1      -4.465   1.617   1.271  0.00  0.00    +0.025 A 
ATOM      7  C   UNL     1      -5.838   1.500   1.177  0.00  0.00    +0.030 A 
ATOM      8  C   UNL     1      -6.397   0.539   0.354  0.00  0.00    +0.105 A 
ATOM      9  C   UNL     1      -5.583  -0.308  -0.376  0.00  0.00    +0.030 A 
ATOM     10  C   UNL     1      -4.209  -0.191  -0.291  0.00  0.00    +0.025 A 
BRANCH   8  11
ATOM     11  S   UNL     1      -8.149   0.393   0.237  0.00  0.00    +0.059 S 
ATOM     12  O   UNL     1      -8.418  -0.939  -0.180  0.00  0.00    -0.153 OA
ATOM     13  O   UNL     1      -8.683   0.939   1.435  0.00  0.00    -0.153 OA
BRANCH  11  14
ATOM     14  N   UNL     1      -8.641   1.383  -0.996  0.00  0.00    -0.187 NA
ATOM     15  H   UNL     1      -9.203   2.150  -0.806  0.00  0.00    +0.148 HD
BRANCH  14  16
ATOM     16  C   UNL     1      -8.228   1.100  -2.373  0.00  0.00    +0.070 C 
ATOM     17  C   UNL     1      -9.319   0.290  -3.076  0.00  0.00    +0.025 C 
ATOM     18  C   UNL     1      -8.008   2.416  -3.120  0.00  0.00    +0.025 C 
ENDBRANCH  14  16
ENDBRANCH  11  14
ENDBRANCH   8  11
ENDBRANCH   3   5
BRANCH   1  20
ATOM     19  C   UNL     1       0.322   2.362  -0.500  0.00  0.00    +0.029 C 
ATOM     20  C   UNL     1       0.006   0.870  -0.374  0.00  0.00    +0.136 C 
BRANCH  20  21
ATOM     21  S   UNL     1       0.813  -0.035  -1.723  0.00  0.00    -0.085 S 
BRANCH  21  22
ATOM     22  C   UNL     1       2.534   0.179  -1.410  0.00  0.00    +0.158 A 
ATOM     23  N   UNL     1       3.119   0.829  -0.436  0.00  0.00    -0.151 NA
ATOM     24  N   UNL     1       4.492   0.884  -0.361  0.00  0.00    -0.217 N 
ATOM     25  C   UNL     1       5.222   0.252  -1.314  0.00  0.00    +0.150 A 
ATOM     26  S   UNL     1       6.922   0.143  -1.488  0.00  0.00    -0.023 S 
ATOM     27  S   UNL     1       3.930  -0.441  -2.335  0.00  0.00    -0.034 S 
BRANCH  24  28
ATOM     28  C   UNL     1       5.122   1.577   0.677  0.00  0.00    +0.067 A 
ATOM     29  C   UNL     1       6.134   2.487   0.394  0.00  0.00    +0.028 A 
ATOM     30  C   UNL     1       6.754   3.171   1.421  0.00  0.00    +0.002 A 
ATOM     31  C   UNL     1       6.369   2.950   2.732  0.00  0.00    +0.000 A 
ATOM     32  C   UNL     1       5.363   2.046   3.017  0.00  0.00    +0.002 A 
ATOM     33  C   UNL     1       4.735   1.363   1.994  0.00  0.00    +0.028 A 
ENDBRANCH  24  28
ENDBRANCH  21  22
ENDBRANCH  20  21
ENDBRANCH   1  20
TORSDOF 8
