REMARK  Name = ZINC03317132
REMARK  10 active torsions:
REMARK  status: ('A' for Active; 'I' for Inactive)
REMARK    1  A    between atoms: C_1  and  C_2
REMARK    2  A    between atoms: C_4  and  C_15
REMARK    3  A    between atoms: C_5  and  C_14
REMARK    4  A    between atoms: N_6  and  C_7
REMARK    5  A    between atoms: N_17  and  N_18
REMARK    6  A    between atoms: N_18  and  C_19
REMARK    7  A    between atoms: C_22  and  C_26
REMARK    8  A    between atoms: C_26  and  C_27
REMARK    9  A    between atoms: C_26  and  C_28
REMARK   10  A    between atoms: C_26  and  C_29
REMARK                            x       y       z     vdW  Elec       q    Type
REMARK                         _______ _______ _______ _____ _____    ______ ____
ROOT
ATOM      1  C   UNL     1      -2.001   7.424   1.298  0.00  0.00    +0.262 C 
ATOM      2  O   UNL     1      -1.960   8.081   0.275  0.00  0.00    -0.269 OA
ATOM      3  N   UNL     1      -1.642   6.125   1.279  0.00  0.00    -0.233 N 
ATOM      4  H   UNL     1      -1.675   5.601   2.094  0.00  0.00    +0.173 HD
ENDROOT
BRANCH   1   8
ATOM      5  C   UNL     1      -3.253   8.145   6.191  0.00  0.00    +0.064 C 
ATOM      6  C   UNL     1      -2.991   8.345   4.721  0.00  0.00    +0.022 A 
ATOM      7  C   UNL     1      -2.550   7.402   3.869  0.00  0.00    +0.036 A 
ATOM      8  C   UNL     1      -2.443   8.047   2.556  0.00  0.00    +0.059 A 
ATOM      9  C   UNL     1      -2.831   9.346   2.737  0.00  0.00    +0.033 A 
ATOM     10  N   UNL     1      -3.162   9.514   4.034  0.00  0.00    -0.317 N 
ATOM     11  C   UNL     1      -2.884  10.408   1.670  0.00  0.00    +0.064 C 
BRANCH  10  12
ATOM     12  C   UNL     1      -3.612  10.717   4.598  0.00  0.00    +0.047 A 
ATOM     13  C   UNL     1      -4.826  11.260   4.199  0.00  0.00    +0.029 A 
ATOM     14  C   UNL     1      -5.270  12.442   4.759  0.00  0.00    +0.040 A 
ATOM     15  C   UNL     1      -4.501  13.090   5.710  0.00  0.00    +0.124 A 
ATOM     16  C   UNL     1      -3.287  12.552   6.106  0.00  0.00    +0.040 A 
ATOM     17  C   UNL     1      -2.842  11.368   5.552  0.00  0.00    +0.029 A 
ATOM     18  F   UNL     1      -4.934  14.248   6.254  0.00  0.00    -0.205 F 
ENDBRANCH  10  12
ENDBRANCH   1   8
BRANCH   3  19
ATOM     19  N   UNL     1      -1.221   5.532   0.081  0.00  0.00    -0.269 N 
ATOM     20  H   UNL     1      -1.119   6.072  -0.718  0.00  0.00    +0.170 HD
BRANCH  19  21
ATOM     21  C   UNL     1      -0.952   4.170   0.038  0.00  0.00    +0.018 C 
ATOM     22  C   UNL     1      -1.000   3.499   1.157  0.00  0.00    -0.007 C 
ATOM     23  C   UNL     1      -0.738   2.024   1.264  0.00  0.00    +0.032 C 
ATOM     24  C   UNL     1      -0.021   1.525   0.008  0.00  0.00    -0.001 C 
ATOM     25  C   UNL     1      -0.777   2.036  -1.225  0.00  0.00    +0.010 C 
ATOM     26  C   UNL     1      -0.623   3.557  -1.292  0.00  0.00    +0.052 C 
BRANCH  24  27
ATOM     27  C   UNL     1      -0.000  -0.005   0.001  0.00  0.00    -0.035 C 
ATOM     28  C   UNL     1       0.708  -0.499  -1.262  0.00  0.00    +0.011 C 
ATOM     29  C   UNL     1       0.747  -0.510   1.236  0.00  0.00    +0.011 C 
ATOM     30  C   UNL     1      -1.436  -0.534   0.020  0.00  0.00    +0.011 C 
ENDBRANCH  24  27
ENDBRANCH  19  21
ENDBRANCH   3  19
TORSDOF 5
