REMARK  Name = ZINC10157401
REMARK  6 active torsions:
REMARK  status: ('A' for Active; 'I' for Inactive)
REMARK    1  A    between atoms: C_1  and  C_2
REMARK    2  A    between atoms: C_4  and  C_25
REMARK    3  A    between atoms: C_8  and  C_24
REMARK    4  A    between atoms: C_19  and  C_21
REMARK    5  A    between atoms: C_21  and  C_22
REMARK    6  A    between atoms: C_21  and  C_23
REMARK                            x       y       z     vdW  Elec       q    Type
REMARK                         _______ _______ _______ _____ _____    ______ ____
ROOT
ATOM      1  C   UNL     1       9.526   1.360   0.549  0.00  0.00    +0.044 C 
ATOM      2  C   UNL     1       8.199   2.069   0.451  0.00  0.00    -0.049 A 
ATOM      3  C   UNL     1       8.163   3.462   0.458  0.00  0.00    +0.008 A 
ATOM      4  C   UNL     1       6.982   4.135   0.370  0.00  0.00    -0.024 A 
ATOM      5  C   UNL     1       5.781   3.417   0.271  0.00  0.00    +0.079 A 
ATOM      6  C   UNL     1       5.819   1.999   0.264  0.00  0.00    +0.022 A 
ATOM      7  C   UNL     1       7.053   1.339   0.356  0.00  0.00    +0.015 A 
ATOM      8  C   UNL     1       4.603   1.298   0.165  0.00  0.00    +0.051 A 
ATOM      9  N   UNL     1       3.485   1.989   0.083  0.00  0.00    -0.219 NA
ATOM     10  C   UNL     1       3.487   3.320   0.092  0.00  0.00    +0.222 A 
ATOM     11  N   UNL     1       4.595   4.030   0.178  0.00  0.00    -0.214 NA
ATOM     12  N   UNL     1       2.274   3.988   0.002  0.00  0.00    -0.254 N 
ATOM     13  C   UNL     1       1.098   3.280   0.018  0.00  0.00    +0.202 A 
ATOM     14  N   UNL     1      -0.085   3.951   0.026  0.00  0.00    -0.295 N 
ATOM     15  H   UNL     1      -0.095   4.921   0.020  0.00  0.00    +0.172 HD
ATOM     16  C   UNL     1      -1.246   3.262   0.041  0.00  0.00    +0.253 A 
ATOM     17  O   UNL     1      -2.317   3.847   0.048  0.00  0.00    -0.268 OA
ATOM     18  C   UNL     1      -1.198   1.856   0.055  0.00  0.00    +0.093 A 
ATOM     19  C   UNL     1       0.019   1.238   0.040  0.00  0.00    +0.053 A 
ATOM     20  N   UNL     1       1.136   1.963   0.025  0.00  0.00    -0.220 NA
ATOM     21  C   UNL     1       4.580  -0.209   0.152  0.00  0.00    +0.066 C 
ATOM     22  C   UNL     1       6.966   5.642   0.379  0.00  0.00    +0.046 C 
ATOM     23  H   UNL     1       2.257   4.955  -0.072  0.00  0.00    +0.158 HD
ENDROOT
BRANCH  19  24
ATOM     24  C   UNL     1       0.099  -0.266   0.048  0.00  0.00    +0.032 C 
ATOM     25  C   UNL     1       0.834  -0.745  -1.205  0.00  0.00    +0.014 C 
ATOM     26  C   UNL     1       0.858  -0.730   1.293  0.00  0.00    +0.014 C 
ENDBRANCH  19  24
TORSDOF 1
