REMARK  Name = ZINC01283544
REMARK  9 active torsions:
REMARK  status: ('A' for Active; 'I' for Inactive)
REMARK    1  A    between atoms: C_1  and  C_2
REMARK    2  A    between atoms: C_2  and  O_3
REMARK    3  A    between atoms: O_3  and  C_4
REMARK    4  A    between atoms: C_7  and  C_10
REMARK    5  A    between atoms: C_15  and  C_19
REMARK    6  A    between atoms: C_15  and  C_20
REMARK    7  A    between atoms: C_25  and  S_27
REMARK    8  A    between atoms: S_27  and  C_28
REMARK    9  A    between atoms: C_28  and  C_29
REMARK                            x       y       z     vdW  Elec       q    Type
REMARK                         _______ _______ _______ _____ _____    ______ ____
ROOT
ATOM      1  C   UNL     1      -2.001  -6.092  -0.011  0.00  0.00    +0.175 C 
ATOM      2  C   UNL     1      -2.758  -6.513   1.229  0.00  0.00    +0.041 C 
ATOM      3  C   UNL     1      -4.051  -6.899   1.184  0.00  0.00    +0.020 C 
ATOM      4  C   UNL     1      -4.786  -7.298   2.442  0.00  0.00    +0.058 C 
ATOM      5  C   UNL     1      -3.805  -7.926   3.434  0.00  0.00    -0.023 C 
ATOM      6  C   UNL     1      -2.704  -6.904   3.737  0.00  0.00    +0.086 C 
ATOM      7  C   UNL     1      -2.054  -6.489   2.447  0.00  0.00    +0.164 C 
ATOM      8  O   UNL     1      -0.895  -6.123   2.456  0.00  0.00    -0.292 OA
ATOM      9  C   UNL     1      -4.540  -8.291   4.725  0.00  0.00    +0.011 C 
ATOM     10  C   UNL     1      -3.186  -9.183   2.820  0.00  0.00    +0.011 C 
ATOM     11  N   UNL     1      -4.750  -6.952   0.003  0.00  0.00    -0.287 N 
ATOM     12  C   UNL     1      -4.035  -6.885  -1.182  0.00  0.00    +0.219 A 
ATOM     13  N   UNL     1      -2.741  -6.486  -1.203  0.00  0.00    -0.220 N 
ATOM     14  N   UNL     1      -2.332  -6.541  -2.534  0.00  0.00    -0.141 NA
ATOM     15  C   UNL     1      -3.369  -6.952  -3.232  0.00  0.00    +0.211 A 
ATOM     16  N   UNL     1      -4.397  -7.158  -2.405  0.00  0.00    -0.187 NA
ATOM     17  H   UNL     1      -5.717  -7.034  -0.002  0.00  0.00    +0.155 HD
ENDROOT
BRANCH   1  21
ATOM     18  C   UNL     1      -1.498  -1.848   0.006  0.00  0.00    +0.121 A 
ATOM     19  C   UNL     1      -0.388  -2.679  -0.003  0.00  0.00    +0.046 A 
ATOM     20  C   UNL     1      -0.553  -4.051  -0.008  0.00  0.00    +0.009 A 
ATOM     21  C   UNL     1      -1.823  -4.596  -0.005  0.00  0.00    -0.018 A 
ATOM     22  C   UNL     1      -2.932  -3.769   0.004  0.00  0.00    +0.009 A 
ATOM     23  C   UNL     1      -2.772  -2.397   0.016  0.00  0.00    +0.046 A 
BRANCH  18  24
ATOM     24  O   UNL     1      -1.339  -0.499   0.012  0.00  0.00    -0.492 OA
BRANCH  24  26
ATOM     25  C   UNL     1      -0.019   1.526   0.010  0.00  0.00    +0.048 C 
ATOM     26  C   UNL     1       0.002  -0.004   0.002  0.00  0.00    +0.225 C 
ENDBRANCH  24  26
ENDBRANCH  18  24
ENDBRANCH   1  21
BRANCH  15  27
ATOM     27  S   UNL     1      -3.397  -7.193  -4.978  0.00  0.00    -0.080 S 
BRANCH  27  28
ATOM     28  C   UNL     1      -5.088  -7.756  -5.316  0.00  0.00    +0.114 C 
BRANCH  28  29
ATOM     29  C   UNL     1      -5.249  -8.003  -6.794  0.00  0.00    -0.019 A 
ATOM     30  C   UNL     1      -5.666  -6.979  -7.624  0.00  0.00    +0.006 A 
ATOM     31  C   UNL     1      -5.814  -7.205  -8.979  0.00  0.00    +0.000 A 
ATOM     32  C   UNL     1      -5.545  -8.455  -9.506  0.00  0.00    +0.001 A 
ATOM     33  C   UNL     1      -5.129  -9.479  -8.677  0.00  0.00    +0.020 A 
ATOM     34  C   UNL     1      -4.975  -9.252  -7.321  0.00  0.00    +0.045 A 
ATOM     35 CL   UNL     1      -4.446 -10.537  -6.280  0.00  0.00    -0.083 Cl
ENDBRANCH  28  29
ENDBRANCH  27  28
ENDBRANCH  15  27
TORSDOF 6
