REMARK  Name = ZINC54665614
REMARK  8 active torsions:
REMARK  status: ('A' for Active; 'I' for Inactive)
REMARK    1  A    between atoms: C_1  and  C_2
REMARK    2  A    between atoms: C_2  and  C_3
REMARK    3  A    between atoms: C_2  and  C_4
REMARK    4  A    between atoms: C_2  and  N_5
REMARK    5  A    between atoms: N_5  and  C_6
REMARK    6  A    between atoms: C_6  and  C_7
REMARK    7  A    between atoms: C_7  and  C_12
REMARK    8  A    between atoms: C_12  and  C_13
REMARK                            x       y       z     vdW  Elec       q    Type
REMARK                         _______ _______ _______ _____ _____    ______ ____
ROOT
ATOM      1  C   UNL     1       2.784  -0.463  -2.476  0.00  0.00    -0.015 C 
ATOM      2  C   UNL     1       4.205   0.138  -2.561  0.00  0.00    +0.035 C 
ATOM      3  C   UNL     1       4.188   0.958  -3.869  0.00  0.00    +0.160 C 
ATOM      4  O   UNL     1       3.147   0.357  -4.669  0.00  0.00    -0.379 OA
ATOM      5  C   UNL     1       2.077   0.066  -3.743  0.00  0.00    +0.165 C 
ENDROOT
BRANCH   1   6
ATOM      6  C   UNL     1       2.068   0.031  -1.217  0.00  0.00    -0.072 C 
BRANCH   6   7
ATOM      7  N   UNL     1       0.690  -0.478  -1.207  0.00  0.00    +0.383 N 
ATOM      8  H   UNL     1       0.703  -1.487  -1.212  0.00  0.00    -0.085 HD
ATOM      9  H   UNL     1       0.202  -0.144  -2.024  0.00  0.00    -0.085 HD
BRANCH   7  11
ATOM     10  C   UNL     1      -0.019   1.526   0.010  0.00  0.00    -0.011 C 
ATOM     11  C   UNL     1       0.002  -0.004   0.002  0.00  0.00    -0.077 C 
ATOM     12  C   UNL     1       0.742  -0.511   1.242  0.00  0.00    -0.011 C 
ATOM     13  C   UNL     1      -1.433  -0.534   0.013  0.00  0.00    -0.011 C 
ENDBRANCH   7  11
ENDBRANCH   6   7
ENDBRANCH   1   6
BRANCH   1  14
ATOM     14  C   UNL     1       2.843  -1.992  -2.493  0.00  0.00    +0.042 C 
BRANCH  14  15
ATOM     15  C   UNL     1       3.551  -2.453  -3.740  0.00  0.00    -0.047 A 
ATOM     16  C   UNL     1       2.831  -2.693  -4.896  0.00  0.00    +0.005 A 
ATOM     17  C   UNL     1       3.481  -3.115  -6.040  0.00  0.00    +0.015 A 
ATOM     18  C   UNL     1       4.852  -3.299  -6.029  0.00  0.00    +0.018 A 
ATOM     19  C   UNL     1       5.572  -3.059  -4.873  0.00  0.00    +0.015 A 
ATOM     20  C   UNL     1       4.922  -2.631  -3.731  0.00  0.00    +0.005 A 
ATOM     21 BR   UNL     1       5.741  -3.878  -7.594  0.00  0.00    -0.050 Br
ENDBRANCH  14  15
ENDBRANCH   1  14
TORSDOF 5
