REMARK  Name = ZINC42398423
REMARK  9 active torsions:
REMARK  status: ('A' for Active; 'I' for Inactive)
REMARK    1  A    between atoms: C_1  and  N_2
REMARK    2  A    between atoms: N_2  and  C_3
REMARK    3  A    between atoms: N_2  and  C_10
REMARK    4  A    between atoms: C_3  and  C_4
REMARK    5  A    between atoms: C_10  and  C_12
REMARK    6  A    between atoms: C_10  and  C_14
REMARK    7  A    between atoms: C_12  and  N_13
REMARK    8  A    between atoms: C_17  and  O_21
REMARK    9  A    between atoms: O_21  and  C_22
REMARK                            x       y       z     vdW  Elec       q    Type
REMARK                         _______ _______ _______ _____ _____    ______ ____
ROOT
ATOM      1  C   UNL     1      -1.200  -0.951  -0.391  0.00  0.00    +0.069 C 
ENDROOT
BRANCH   1   2
ATOM      2  C   UNL     1      -1.646  -0.537  -1.770  0.00  0.00    -0.031 A 
ATOM      3  C   UNL     1      -1.383   0.742  -2.225  0.00  0.00    +0.009 A 
ATOM      4  C   UNL     1      -1.790   1.124  -3.489  0.00  0.00    +0.047 A 
ATOM      5  C   UNL     1      -2.464   0.224  -4.301  0.00  0.00    +0.134 A 
ATOM      6  C   UNL     1      -2.726  -1.060  -3.843  0.00  0.00    +0.060 A 
ATOM      7  C   UNL     1      -2.312  -1.439  -2.579  0.00  0.00    +0.024 A 
ATOM      8 BR   UNL     1      -3.645  -2.290  -4.947  0.00  0.00    -0.047 Br
BRANCH   5   9
ATOM      9  O   UNL     1      -2.866   0.598  -5.545  0.00  0.00    -0.494 OA
ATOM     10  C   UNL     1      -2.562   1.934  -5.950  0.00  0.00    +0.277 C 
ENDBRANCH   5   9
ENDBRANCH   1   2
BRANCH   1  12
ATOM     11  C   UNL     1      -0.753   1.187   0.654  0.00  0.00    +0.105 C 
ATOM     12  N   UNL     1      -0.159  -0.030   0.084  0.00  0.00    -0.296 NA
BRANCH  12  13
ATOM     13  C   UNL     1       0.724  -0.690   1.056  0.00  0.00    +0.127 C 
BRANCH  13  14
ATOM     14  C   UNL     1       2.035   0.048   1.124  0.00  0.00    +0.005 A 
ATOM     15  C   UNL     1       2.396   1.075   1.932  0.00  0.00    +0.027 A 
ATOM     16  C   UNL     1       3.669   1.603   1.818  0.00  0.00    +0.025 A 
ATOM     17  C   UNL     1       4.519   1.077   0.901  0.00  0.00    +0.060 A 
ATOM     18  S   UNL     1       3.521  -0.208   0.167  0.00  0.00    -0.099 S 
ATOM     19 BR   UNL     1       4.216   3.036   2.923  0.00  0.00    -0.050 Br
ENDBRANCH  13  14
ENDBRANCH  12  13
ENDBRANCH   1  12
BRANCH   1  20
ATOM     20  C   UNL     1      -2.394  -0.908   0.565  0.00  0.00    -0.063 C 
BRANCH  20  21
ATOM     21  N   UNL     1      -1.955  -1.289   1.914  0.00  0.00    +0.379 N 
ATOM     22  H   UNL     1      -2.761  -1.409   2.509  0.00  0.00    -0.090 HD
ATOM     23  H   UNL     1      -1.440  -2.155   1.868  0.00  0.00    -0.090 HD
ATOM     24  H   UNL     1      -1.363  -0.564   2.292  0.00  0.00    -0.090 HD
ENDBRANCH  20  21
ENDBRANCH   1  20
TORSDOF 7
