REMARK  Name = ZINC39947289
REMARK  9 active torsions:
REMARK  status: ('A' for Active; 'I' for Inactive)
REMARK    1  A    between atoms: C_1  and  C_2
REMARK    2  A    between atoms: C_2  and  C_3
REMARK    3  A    between atoms: C_3  and  C_5
REMARK    4  A    between atoms: C_3  and  N_12
REMARK    5  A    between atoms: C_8  and  C_11
REMARK    6  A    between atoms: C_13  and  C_15
REMARK    7  A    between atoms: C_15  and  S_16
REMARK    8  A    between atoms: S_16  and  C_17
REMARK    9  A    between atoms: C_21  and  C_23
REMARK                            x       y       z     vdW  Elec       q    Type
REMARK                         _______ _______ _______ _____ _____    ______ ____
ROOT
ATOM      1  S   UNL     1       4.098   3.240  -2.234  0.00  0.00    -0.087 S 
ENDROOT
BRANCH   1   2
ATOM      2  C   UNL     1       5.874   3.587  -2.108  0.00  0.00    +0.339 C 
ATOM      3  N   UNL     1       6.327   3.452  -0.714  0.00  0.00    -0.219 N 
ATOM      4  N   UNL     1       7.284   2.427  -0.727  0.00  0.00    -0.145 NA
ATOM      5  C   UNL     1       7.433   1.966  -1.941  0.00  0.00    +0.238 C 
ATOM      6  O   UNL     1       6.629   2.604  -2.830  0.00  0.00    -0.443 OA
ATOM      7  H   UNL     1       6.027   3.964   0.053  0.00  0.00    +0.173 HD
BRANCH   5   8
ATOM      8  C   UNL     1       8.318   0.935  -2.284  0.00  0.00    +0.043 C 
ATOM      9  C   UNL     1       9.168   0.233  -1.429  0.00  0.00    +0.008 A 
ATOM     10  C   UNL     1       9.405   0.316  -0.041  0.00  0.00    +0.010 A 
ATOM     11  C   UNL     1      10.311  -0.513   0.539  0.00  0.00    +0.001 A 
ATOM     12  C   UNL     1      11.022  -1.455  -0.207  0.00  0.00    +0.002 A 
ATOM     13  C   UNL     1      10.845  -1.590  -1.544  0.00  0.00    +0.026 A 
ATOM     14  C   UNL     1       9.915  -0.759  -2.220  0.00  0.00    +0.043 A 
ATOM     15  N   UNL     1       9.566  -0.693  -3.490  0.00  0.00    -0.380 N 
ATOM     16  C   UNL     1       8.547   0.347  -3.659  0.00  0.00    +0.154 C 
ATOM     17  H   UNL     1       9.924  -1.249  -4.200  0.00  0.00    +0.160 HD
ENDBRANCH   5   8
ENDBRANCH   1   2
BRANCH   1  18
ATOM     18  C   UNL     1       3.934   1.552  -1.591  0.00  0.00    +0.170 C 
BRANCH  18  20
ATOM     19  N   UNL     1       2.125  -0.091  -1.209  0.00  0.00    -0.308 N 
ATOM     20  C   UNL     1       2.487   1.134  -1.640  0.00  0.00    +0.224 C 
ATOM     21  O   UNL     1       1.649   1.899  -2.066  0.00  0.00    -0.275 OA
ATOM     22  H   UNL     1       2.795  -0.703  -0.868  0.00  0.00    +0.149 HD
BRANCH  19  23
ATOM     23  C   UNL     1       0.718  -0.497  -1.257  0.00  0.00    +0.103 C 
BRANCH  23  24
ATOM     24  C   UNL     1       0.632  -2.000  -1.327  0.00  0.00    -0.027 A 
ATOM     25  C   UNL     1       1.488  -2.778  -0.571  0.00  0.00    +0.006 A 
ATOM     26  C   UNL     1       1.408  -4.157  -0.636  0.00  0.00    +0.004 A 
ATOM     27  C   UNL     1       0.472  -4.757  -1.457  0.00  0.00    -0.050 A 
ATOM     28  C   UNL     1      -0.384  -3.979  -2.213  0.00  0.00    +0.004 A 
ATOM     29  C   UNL     1      -0.308  -2.601  -2.145  0.00  0.00    +0.006 A 
ATOM     30  C   UNL     1       0.387  -6.260  -1.528  0.00  0.00    +0.044 C 
ENDBRANCH  23  24
BRANCH  23  32
ATOM     31  C   UNL     1      -0.019   1.526   0.010  0.00  0.00    +0.006 C 
ATOM     32  C   UNL     1       0.002  -0.004   0.002  0.00  0.00    +0.024 C 
ENDBRANCH  23  32
ENDBRANCH  19  23
ENDBRANCH  18  20
ENDBRANCH   1  18
TORSDOF 7
