REMARK  Name = ZINC27695030
REMARK  14 active torsions:
REMARK  status: ('A' for Active; 'I' for Inactive)
REMARK    1  A    between atoms: C_1  and  C_2
REMARK    2  A    between atoms: C_2  and  C_4
REMARK    3  A    between atoms: C_2  and  C_14
REMARK    4  A    between atoms: C_7  and  C_10
REMARK    5  A    between atoms: C_10  and  C_11
REMARK    6  A    between atoms: C_11  and  C_12
REMARK    7  A    between atoms: C_11  and  C_13
REMARK    8  A    between atoms: N_22  and  C_23
REMARK    9  A    between atoms: C_23  and  C_24
REMARK   10  A    between atoms: C_24  and  C_26
REMARK   11  A    between atoms: C_24  and  O_40
REMARK   12  A    between atoms: C_26  and  N_27
REMARK   13  A    between atoms: N_27  and  C_28
REMARK   14  A    between atoms: N_27  and  C_34
REMARK                            x       y       z     vdW  Elec       q    Type
REMARK                         _______ _______ _______ _____ _____    ______ ____
ROOT
ATOM      1  C   UNL     1      -1.593  -1.417  -0.404  0.00  0.00    +0.118 A 
ATOM      2  N   UNL     1      -2.450  -1.345  -1.380  0.00  0.00    -0.232 NA
ATOM      3  C   UNL     1      -1.848  -1.706  -2.543  0.00  0.00    +0.089 A 
ATOM      4  C   UNL     1      -2.289  -1.807  -3.865  0.00  0.00    +0.030 A 
ATOM      5  C   UNL     1      -1.423  -2.209  -4.842  0.00  0.00    +0.002 A 
ATOM      6  C   UNL     1      -0.105  -2.520  -4.536  0.00  0.00    +0.002 A 
ATOM      7  C   UNL     1       0.351  -2.427  -3.239  0.00  0.00    +0.028 A 
ATOM      8  C   UNL     1      -0.514  -2.020  -2.232  0.00  0.00    +0.069 A 
ATOM      9  N   UNL     1      -0.383  -1.822  -0.873  0.00  0.00    -0.325 N 
ENDROOT
BRANCH   1  11
ATOM     10  C   UNL     1      -2.361   0.362   1.145  0.00  0.00    +0.020 C 
ATOM     11  C   UNL     1      -1.897  -1.092   1.036  0.00  0.00    +0.082 C 
BRANCH  11  12
ATOM     12  C   UNL     1      -2.985  -2.006   1.539  0.00  0.00    -0.037 A 
ATOM     13  C   UNL     1      -4.223  -2.009   0.924  0.00  0.00    +0.004 A 
ATOM     14  C   UNL     1      -5.221  -2.847   1.385  0.00  0.00    +0.004 A 
ATOM     15  C   UNL     1      -4.981  -3.682   2.460  0.00  0.00    -0.047 A 
ATOM     16  C   UNL     1      -3.743  -3.679   3.074  0.00  0.00    +0.004 A 
ATOM     17  C   UNL     1      -2.743  -2.845   2.611  0.00  0.00    +0.004 A 
BRANCH  15  18
ATOM     18  C   UNL     1      -6.069  -4.595   2.963  0.00  0.00    +0.038 C 
BRANCH  18  19
ATOM     19  C   UNL     1      -5.989  -5.936   2.232  0.00  0.00    -0.013 C 
ATOM     20  C   UNL     1      -4.676  -6.635   2.591  0.00  0.00    +0.007 C 
ATOM     21  C   UNL     1      -7.167  -6.817   2.651  0.00  0.00    +0.007 C 
ENDBRANCH  18  19
ENDBRANCH  15  18
ENDBRANCH  11  12
ENDBRANCH   1  11
BRANCH   9  22
ATOM     22  C   UNL     1       0.835  -2.015  -0.081  0.00  0.00    +0.153 C 
BRANCH  22  23
ATOM     23  C   UNL     1       0.889  -3.457   0.427  0.00  0.00    +0.118 C 
BRANCH  23  24
ATOM     24  O   UNL     1       1.014  -4.349  -0.682  0.00  0.00    -0.392 OA
ATOM     25  H   UNL     1       1.842  -4.252  -1.173  0.00  0.00    +0.210 HD
ENDBRANCH  23  24
BRANCH  23  26
ATOM     26  C   UNL     1       2.094  -3.626   1.355  0.00  0.00    -0.045 C 
BRANCH  26  27
ATOM     27  N   UNL     1       2.038  -4.946   1.996  0.00  0.00    +0.385 N 
ATOM     28  H   UNL     1       1.111  -5.103   2.362  0.00  0.00    -0.081 HD
BRANCH  27  29
ATOM     29  C   UNL     1       2.356  -5.984   1.006  0.00  0.00    -0.068 C 
ATOM     30  C   UNL     1       1.700  -7.303   1.421  0.00  0.00    -0.015 C 
ATOM     31  C   UNL     1       2.031  -8.384   0.391  0.00  0.00    -0.002 C 
ATOM     32  C   UNL     1       3.548  -8.570   0.317  0.00  0.00    -0.000 C 
ATOM     33  C   UNL     1       4.204  -7.252  -0.099  0.00  0.00    -0.002 C 
ATOM     34  C   UNL     1       3.873  -6.170   0.932  0.00  0.00    -0.015 C 
ENDBRANCH  27  29
BRANCH  27  35
ATOM     35  C   UNL     1       3.013  -5.000   3.093  0.00  0.00    -0.068 C 
ATOM     36  C   UNL     1       3.016  -6.403   3.704  0.00  0.00    -0.015 C 
ATOM     37  C   UNL     1       4.032  -6.460   4.847  0.00  0.00    -0.002 C 
ATOM     38  C   UNL     1       3.650  -5.438   5.919  0.00  0.00    -0.000 C 
ATOM     39  C   UNL     1       3.647  -4.035   5.309  0.00  0.00    -0.002 C 
ATOM     40  C   UNL     1       2.631  -3.978   4.166  0.00  0.00    -0.015 C 
ENDBRANCH  27  35
ENDBRANCH  26  27
ENDBRANCH  23  26
ENDBRANCH  22  23
ENDBRANCH   9  22
TORSDOF 11
