REMARK  Name = ZINC12329788
REMARK  5 active torsions:
REMARK  status: ('A' for Active; 'I' for Inactive)
REMARK    1  A    between atoms: C_6  and  C_7
REMARK    2  A    between atoms: C_7  and  C_9
REMARK    3  A    between atoms: C_7  and  O_27
REMARK    4  A    between atoms: C_9  and  N_50
REMARK    5  A    between atoms: C_16  and  O_26
REMARK                            x       y       z     vdW  Elec       q    Type
REMARK                         _______ _______ _______ _____ _____    ______ ____
ROOT
ATOM      1  C   UNL     1       2.464  -4.671   0.522  0.00  0.00    -0.075 C 
ATOM      2  C   UNL     1       2.442  -6.202   0.525  0.00  0.00    +0.029 C 
ATOM      3  C   UNL     1       2.764  -6.711   1.931  0.00  0.00    +0.110 C 
ATOM      4  C   UNL     1       1.761  -6.127   2.927  0.00  0.00    +0.029 C 
ATOM      5  C   UNL     1       1.806  -4.599   2.853  0.00  0.00    -0.075 C 
ATOM      6  C   UNL     1       2.676  -8.241   1.952  0.00  0.00    +0.084 C 
ATOM      7  C   UNL     1       3.607  -8.792   0.869  0.00  0.00    +0.152 C 
ATOM      8  C   UNL     1       4.956  -8.128   0.974  0.00  0.00    +0.024 A 
ATOM      9  C   UNL     1       6.042  -8.726   0.356  0.00  0.00    +0.029 A 
ATOM     10  C   UNL     1       7.293  -8.143   0.427  0.00  0.00    +0.042 A 
ATOM     11  C   UNL     1       7.464  -6.957   1.119  0.00  0.00    +0.023 A 
ATOM     12  C   UNL     1       6.386  -6.358   1.738  0.00  0.00    +0.047 A 
ATOM     13  C   UNL     1       5.125  -6.943   1.668  0.00  0.00    +0.127 A 
ATOM     14  O   UNL     1       4.089  -6.325   2.293  0.00  0.00    -0.485 OA
ATOM     15 CL   UNL     1       8.648  -8.897  -0.352  0.00  0.00    -0.084 Cl
ATOM     16  N   UNL     1       1.454  -4.175   1.481  0.00  0.00    +0.382 N 
ATOM     17  H   UNL     1       0.539  -4.571   1.234  0.00  0.00    -0.082 HD
ENDROOT
BRANCH   7  18
ATOM     18  O   UNL     1       3.756 -10.203   1.043  0.00  0.00    -0.387 OA
ATOM     19  H   UNL     1       4.332 -10.621   0.388  0.00  0.00    +0.210 HD
ENDBRANCH   7  18
BRANCH  16  20
ATOM     20  C   UNL     1       1.374  -2.702   1.412  0.00  0.00    -0.042 C 
BRANCH  20  21
ATOM     21  C   UNL     1       0.173  -2.234   2.236  0.00  0.00    +0.128 C 
BRANCH  21  27
ATOM     22  C   UNL     1       0.617   0.063   3.124  0.00  0.00    +0.007 A 
ATOM     23  C   UNL     1       0.509   1.439   3.041  0.00  0.00    +0.020 A 
ATOM     24  C   UNL     1      -0.163   2.017   1.979  0.00  0.00    +0.041 A 
ATOM     25  C   UNL     1      -0.726   1.218   1.000  0.00  0.00    +0.020 A 
ATOM     26  C   UNL     1      -0.617  -0.158   1.084  0.00  0.00    +0.007 A 
ATOM     27  C   UNL     1       0.054  -0.735   2.146  0.00  0.00    -0.021 A 
ATOM     28 CL   UNL     1      -0.300   3.744   1.875  0.00  0.00    -0.084 Cl
ENDBRANCH  21  27
BRANCH  21  29
ATOM     29  O   UNL     1      -1.018  -2.838   1.727  0.00  0.00    -0.389 OA
ATOM     30  H   UNL     1      -1.204  -2.622   0.803  0.00  0.00    +0.210 HD
ENDBRANCH  21  29
ENDBRANCH  20  21
ENDBRANCH  16  20
TORSDOF 5
