REMARK  Name = ZINC22000991
REMARK  11 active torsions:
REMARK  status: ('A' for Active; 'I' for Inactive)
REMARK    1  A    between atoms: C_1  and  C_2
REMARK    2  A    between atoms: C_7  and  C_9
REMARK    3  A    between atoms: C_7  and  C_10
REMARK    4  A    between atoms: N_13  and  C_17
REMARK    5  A    between atoms: C_17  and  C_18
REMARK    6  A    between atoms: C_18  and  O_20
REMARK    7  A    between atoms: O_20  and  C_21
REMARK    8  A    between atoms: C_21  and  C_22
REMARK    9  A    between atoms: N_24  and  C_25
REMARK   10  A    between atoms: C_30  and  C_31
REMARK   11  A    between atoms: C_31  and  C_32
REMARK                            x       y       z     vdW  Elec       q    Type
REMARK                         _______ _______ _______ _____ _____    ______ ____
ROOT
ATOM      1  C   UNL     1      -4.166  -3.865  -3.734  0.00  0.00    +0.326 C 
ATOM      2  O   UNL     1      -3.909  -2.696  -3.901  0.00  0.00    -0.249 OA
ENDROOT
BRANCH   1   3
ATOM      3  C   UNL     1      -3.438  -4.654  -2.676  0.00  0.00    +0.238 C 
BRANCH   3  15
ATOM      4  C   UNL     1      -0.594   1.411  -0.357  0.00  0.00    +0.007 C 
ATOM      5  C   UNL     1      -0.377  -0.102  -0.306  0.00  0.00    -0.011 C 
ATOM      6  C   UNL     1      -1.693  -0.818  -0.622  0.00  0.00    +0.038 C 
ATOM      7  C   UNL     1      -1.483  -2.326  -0.551  0.00  0.00    +0.113 C 
ATOM      8  C   UNL     1      -0.991  -2.738   0.833  0.00  0.00    +0.041 C 
ATOM      9  C   UNL     1       0.323  -2.015   1.144  0.00  0.00    -0.032 C 
ATOM     10  C   UNL     1       0.096  -0.503   1.093  0.00  0.00    +0.009 C 
ATOM     11  C   UNL     1       0.804  -2.412   2.541  0.00  0.00    +0.011 C 
ATOM     12  C   UNL     1       1.379  -2.407   0.109  0.00  0.00    +0.011 C 
ATOM     13  C   UNL     1      -2.762  -3.055  -0.894  0.00  0.00    +0.247 C 
ATOM     14  O   UNL     1      -3.821  -2.996  -0.306  0.00  0.00    -0.273 OA
ATOM     15  N   UNL     1      -2.477  -3.784  -1.993  0.00  0.00    -0.213 N 
ATOM     16  C   UNL     1      -1.208  -3.614  -2.382  0.00  0.00    +0.310 C 
ATOM     17  O   UNL     1      -0.717  -4.166  -3.348  0.00  0.00    -0.252 OA
ATOM     18  N   UNL     1      -0.535  -2.763  -1.584  0.00  0.00    -0.285 N 
ATOM     19  H   UNL     1       0.392  -2.492  -1.674  0.00  0.00    +0.151 HD
ENDBRANCH   3  15
ENDBRANCH   1   3
BRANCH   1  20
ATOM     20  O   UNL     1      -5.101  -4.461  -4.491  0.00  0.00    -0.454 OA
BRANCH  20  21
ATOM     21  C   UNL     1      -5.751  -3.653  -5.474  0.00  0.00    +0.328 C 
BRANCH  21  22
ATOM     22  C   UNL     1      -6.760  -4.486  -6.221  0.00  0.00    +0.255 C 
ATOM     23  O   UNL     1      -6.909  -5.656  -5.939  0.00  0.00    -0.272 OA
ATOM     24  N   UNL     1      -7.498  -3.931  -7.203  0.00  0.00    -0.282 N 
ATOM     25  H   UNL     1      -7.329  -3.016  -7.478  0.00  0.00    +0.155 HD
BRANCH  24  26
ATOM     26  C   UNL     1      -8.508  -4.674  -7.824  0.00  0.00    +0.037 A 
ATOM     27  C   UNL     1      -9.220  -5.622  -7.101  0.00  0.00    +0.023 A 
ATOM     28  C   UNL     1     -10.216  -6.354  -7.717  0.00  0.00    +0.002 A 
ATOM     29  C   UNL     1     -10.505  -6.143  -9.053  0.00  0.00    +0.000 A 
ATOM     30  C   UNL     1      -9.798  -5.200  -9.776  0.00  0.00    +0.006 A 
ATOM     31  C   UNL     1      -8.805  -4.460  -9.164  0.00  0.00    -0.022 A 
BRANCH  31  32
ATOM     32  C   UNL     1      -8.040  -3.427  -9.950  0.00  0.00    +0.072 C 
BRANCH  32  33
ATOM     33  C   UNL     1      -6.768  -4.039 -10.479  0.00  0.00    -0.043 A 
ATOM     34  C   UNL     1      -5.612  -3.992  -9.723  0.00  0.00    +0.004 A 
ATOM     35  C   UNL     1      -4.445  -4.553 -10.208  0.00  0.00    +0.000 A 
ATOM     36  C   UNL     1      -4.435  -5.162 -11.449  0.00  0.00    +0.000 A 
ATOM     37  C   UNL     1      -5.592  -5.211 -12.205  0.00  0.00    +0.000 A 
ATOM     38  C   UNL     1      -6.759  -4.653 -11.718  0.00  0.00    +0.004 A 
ENDBRANCH  32  33
ENDBRANCH  31  32
ENDBRANCH  24  26
ENDBRANCH  21  22
ENDBRANCH  20  21
ENDBRANCH   1  20
TORSDOF 8
