REMARK  Name = ZINC40724493
REMARK  4 active torsions:
REMARK  status: ('A' for Active; 'I' for Inactive)
REMARK    1  A    between atoms: C_7  and  O_11
REMARK    2  A    between atoms: O_11  and  C_12
REMARK    3  A    between atoms: C_13  and  N_23
REMARK    4  A    between atoms: C_14  and  N_18
REMARK                            x       y       z     vdW  Elec       q    Type
REMARK                         _______ _______ _______ _____ _____    ______ ____
ROOT
ATOM      1  C   UNL     1       4.615  -2.959  -0.043  0.00  0.00    +0.246 A 
ATOM      2  C   UNL     1       4.798  -4.328  -0.233  0.00  0.00    +0.128 A 
ATOM      3  C   UNL     1       6.093  -4.794  -0.475  0.00  0.00    +0.149 A 
ATOM      4  N   UNL     1       7.094  -3.919  -0.514  0.00  0.00    -0.219 NA
ATOM      5  C   UNL     1       6.877  -2.633  -0.329  0.00  0.00    +0.227 A 
ATOM      6  N   UNL     1       5.671  -2.153  -0.104  0.00  0.00    -0.199 NA
ENDROOT
BRANCH   3   7
ATOM      7  N   UNL     1       6.330  -6.149  -0.670  0.00  0.00    -0.314 N 
ATOM      8  C   UNL     1       5.319  -7.214  -0.607  0.00  0.00    +0.106 C 
ATOM      9  C   UNL     1       6.045  -8.551  -0.862  0.00  0.00    +0.020 C 
ATOM     10  C   UNL     1       7.516  -8.223  -0.494  0.00  0.00    +0.020 C 
ATOM     11  C   UNL     1       7.637  -6.755  -0.982  0.00  0.00    +0.106 C 
ENDBRANCH   3   7
BRANCH   2  12
ATOM     12  N   UNL     1       3.710  -5.214  -0.183  0.00  0.00    -0.351 N 
ATOM     13  H   UNL     1       2.805  -4.869  -0.137  0.00  0.00    +0.143 HD
ATOM     14  H   UNL     1       3.864  -6.172  -0.194  0.00  0.00    +0.143 HD
ENDBRANCH   2  12
BRANCH   1  15
ATOM     15  O   UNL     1       3.378  -2.456   0.194  0.00  0.00    -0.434 OA
BRANCH  15  22
ATOM     16  C   UNL     1       2.993   1.184  -3.183  0.00  0.00    +0.020 A 
ATOM     17  C   UNL     1       2.934   1.835  -1.984  0.00  0.00    +0.013 A 
ATOM     18  C   UNL     1       3.017   1.069  -0.807  0.00  0.00    +0.018 A 
ATOM     19  C   UNL     1       2.962   1.669   0.463  0.00  0.00    +0.027 A 
ATOM     20  C   UNL     1       3.046   0.894   1.580  0.00  0.00    +0.019 A 
ATOM     21  C   UNL     1       3.185  -0.487   1.484  0.00  0.00    +0.049 A 
ATOM     22  C   UNL     1       3.241  -1.106   0.268  0.00  0.00    +0.156 A 
ATOM     23  C   UNL     1       3.158  -0.337  -0.911  0.00  0.00    +0.114 A 
ATOM     24  N   UNL     1       3.209  -0.912  -2.115  0.00  0.00    -0.251 NA
ATOM     25  C   UNL     1       3.133  -0.202  -3.215  0.00  0.00    +0.111 A 
ATOM     26 BR   UNL     1       2.774   3.545   0.619  0.00  0.00    -0.050 Br
ENDBRANCH  15  22
ENDBRANCH   1  15
TORSDOF 4
