REMARK  Name = ZINC35095695
REMARK  10 active torsions:
REMARK  status: ('A' for Active; 'I' for Inactive)
REMARK    1  A    between atoms: C_1  and  C_2
REMARK    2  A    between atoms: C_2  and  C_40
REMARK    3  A    between atoms: C_7  and  C_11
REMARK    4  A    between atoms: C_11  and  N_12
REMARK    5  A    between atoms: N_12  and  C_13
REMARK    6  A    between atoms: C_13  and  C_14
REMARK    7  A    between atoms: C_14  and  N_15
REMARK    8  A    between atoms: C_21  and  C_23
REMARK    9  A    between atoms: N_29  and  C_30
REMARK   10  A    between atoms: C_33  and  C_36
REMARK                            x       y       z     vdW  Elec       q    Type
REMARK                         _______ _______ _______ _____ _____    ______ ____
ROOT
ATOM      1  N   UNL     1       1.276  -3.232   3.408  0.00  0.00    -0.280 N 
ATOM      2  C   UNL     1       1.859  -4.428   3.194  0.00  0.00    +0.307 C 
ATOM      3  O   UNL     1       2.790  -4.784   3.890  0.00  0.00    -0.252 OA
ATOM      4  N   UNL     1       1.408  -5.230   2.209  0.00  0.00    -0.269 N 
ATOM      5  H   UNL     1       0.617  -4.982   1.705  0.00  0.00    +0.156 HD
ENDROOT
BRANCH   4   6
ATOM      6  C   UNL     1       2.081  -6.421   1.913  0.00  0.00    +0.035 A 
ATOM      7  C   UNL     1       1.372  -7.529   1.470  0.00  0.00    +0.024 A 
ATOM      8  C   UNL     1       2.040  -8.703   1.178  0.00  0.00    +0.014 A 
ATOM      9  C   UNL     1       3.412  -8.775   1.328  0.00  0.00    +0.055 A 
ATOM     10  C   UNL     1       4.121  -7.673   1.770  0.00  0.00    +0.014 A 
ATOM     11  C   UNL     1       3.461  -6.495   2.058  0.00  0.00    +0.024 A 
BRANCH   9  12
ATOM     12  C   UNL     1       4.137 -10.057   1.009  0.00  0.00    +0.417 C 
ATOM     13  F   UNL     1       4.519 -10.055  -0.337  0.00  0.00    -0.166 F 
ATOM     14  F   UNL     1       5.276 -10.162   1.816  0.00  0.00    -0.166 F 
ATOM     15  F   UNL     1       3.291 -11.144   1.252  0.00  0.00    -0.166 F 
ENDBRANCH   9  12
ENDBRANCH   4   6
BRANCH   1  16
ATOM     16  C   UNL     1       0.153  -2.803   2.571  0.00  0.00    +0.140 C 
BRANCH  16  22
ATOM     17  C   UNL     1       0.476   1.704   0.323  0.00  0.00    +0.012 C 
ATOM     18  C   UNL     1       0.452   0.178   0.211  0.00  0.00    -0.025 C 
ATOM     19  C   UNL     1       1.675  -0.414  -0.519  0.00  0.00    -0.000 C 
ATOM     20  C   UNL     1       1.405  -1.862  -0.949  0.00  0.00    +0.031 C 
ATOM     21  C   UNL     1       0.887  -2.654   0.227  0.00  0.00    -0.025 C 
ATOM     22  C   UNL     1       0.678  -2.050   1.375  0.00  0.00    -0.053 C 
ATOM     23  C   UNL     1       0.997  -0.546   1.456  0.00  0.00    +0.022 C 
ATOM     24  C   UNL     1       2.394  -0.297   0.836  0.00  0.00    +0.012 C 
ATOM     25  C   UNL     1      -0.891  -0.364  -0.283  0.00  0.00    +0.012 C 
ENDBRANCH  16  22
ENDBRANCH   1  16
BRANCH   1  26
ATOM     26  C   UNL     1       1.766  -2.360   4.479  0.00  0.00    +0.125 C 
BRANCH  26  27
ATOM     27  C   UNL     1       1.013  -2.671   5.774  0.00  0.00    +0.103 C 
BRANCH  27  28
ATOM     28  N   UNL     1       1.504  -1.797   6.848  0.00  0.00    -0.298 NA
ATOM     29  C   UNL     1       2.906  -2.095   7.170  0.00  0.00    +0.103 C 
ATOM     30  C   UNL     1       3.432  -1.050   8.159  0.00  0.00    +0.123 C 
ATOM     31  N   UNL     1       2.525  -1.002   9.316  0.00  0.00    -0.299 N 
ATOM     32  C   UNL     1       1.085  -0.844   9.065  0.00  0.00    +0.123 C 
ATOM     33  C   UNL     1       0.650  -1.897   8.040  0.00  0.00    +0.103 C 
ATOM     34  C   UNL     1       3.001  -1.101  10.573  0.00  0.00    +0.219 C 
ATOM     35  O   UNL     1       4.192  -1.232  10.762  0.00  0.00    -0.275 OA
BRANCH  34  36
ATOM     36  C   UNL     1       2.054  -1.050  11.744  0.00  0.00    +0.075 C 
ATOM     37  C   UNL     1       1.668   0.378  12.162  0.00  0.00    +0.013 C 
ATOM     38  C   UNL     1       1.777  -0.103  13.619  0.00  0.00    +0.001 C 
ATOM     39  C   UNL     1       2.753  -1.177  13.108  0.00  0.00    +0.013 C 
ENDBRANCH  34  36
ENDBRANCH  27  28
ENDBRANCH  26  27
ENDBRANCH   1  26
TORSDOF 8
