REMARK  Name = ZINC36556118
REMARK  16 active torsions:
REMARK  status: ('A' for Active; 'I' for Inactive)
REMARK    1  A    between atoms: C_1  and  C_2
REMARK    2  A    between atoms: C_5  and  S_8
REMARK    3  A    between atoms: S_8  and  C_11
REMARK    4  A    between atoms: C_11  and  N_12
REMARK    5  A    between atoms: C_13  and  C_15
REMARK    6  A    between atoms: C_15  and  C_17
REMARK    7  A    between atoms: C_15  and  N_26
REMARK    8  A    between atoms: C_17  and  C_19
REMARK    9  A    between atoms: C_17  and  C_20
REMARK   10  A    between atoms: N_26  and  C_27
REMARK   11  A    between atoms: C_27  and  C_28
REMARK   12  A    between atoms: C_31  and  C_33
REMARK   13  A    between atoms: C_34  and  C_36
REMARK   14  A    between atoms: C_36  and  C_37
REMARK   15  A    between atoms: C_37  and  C_38
REMARK   16  A    between atoms: C_37  and  C_39
REMARK                            x       y       z     vdW  Elec       q    Type
REMARK                         _______ _______ _______ _____ _____    ______ ____
ROOT
ATOM      1  C   UNL     1       3.191  -4.866   3.476  0.00  0.00    +0.169 C 
ENDROOT
BRANCH   1   3
ATOM      2  N   UNL     1       1.385  -4.133   1.952  0.00  0.00    -0.295 N 
ATOM      3  C   UNL     1       2.177  -5.130   2.392  0.00  0.00    +0.235 C 
ATOM      4  O   UNL     1       2.075  -6.241   1.915  0.00  0.00    -0.274 OA
ATOM      5  H   UNL     1       1.411  -3.265   2.386  0.00  0.00    +0.150 HD
BRANCH   2   6
ATOM      6  C   UNL     1       0.484  -4.358   0.819  0.00  0.00    +0.278 C 
BRANCH   6   7
ATOM      7  S   UNL     1      -1.161  -4.810   1.436  0.00  0.00    +0.013 S 
ATOM      8  O   UNL     1      -1.050  -5.811   2.439  0.00  0.00    -0.168 OA
ATOM      9  O   UNL     1      -2.064  -4.971   0.350  0.00  0.00    -0.168 OA
BRANCH   7  14
ATOM     10  C   UNL     1      -3.127   0.088   4.359  0.00  0.00    +0.044 C 
ATOM     11  C   UNL     1      -2.636  -1.135   3.629  0.00  0.00    -0.050 A 
ATOM     12  C   UNL     1      -2.901  -1.289   2.281  0.00  0.00    +0.005 A 
ATOM     13  C   UNL     1      -2.451  -2.411   1.611  0.00  0.00    +0.027 A 
ATOM     14  C   UNL     1      -1.734  -3.379   2.289  0.00  0.00    +0.090 A 
ATOM     15  C   UNL     1      -1.468  -3.225   3.637  0.00  0.00    +0.027 A 
ATOM     16  C   UNL     1      -1.915  -2.101   4.306  0.00  0.00    +0.005 A 
ENDBRANCH   7  14
ENDBRANCH   6   7
ENDBRANCH   2   6
ENDBRANCH   1   3
BRANCH   1  17
ATOM     17  N   UNL     1       3.580  -6.133   4.100  0.00  0.00    -0.282 N 
ATOM     18  C   UNL     1       3.293  -6.361   5.397  0.00  0.00    +0.217 C 
ATOM     19  O   UNL     1       3.683  -7.376   5.934  0.00  0.00    -0.276 OA
BRANCH  17  20
ATOM     20  C   UNL     1       4.281  -7.151   3.314  0.00  0.00    +0.182 C 
BRANCH  20  21
ATOM     21  C   UNL     1       5.768  -6.932   3.420  0.00  0.00    +0.122 A 
ATOM     22  C   UNL     1       6.579  -7.474   4.347  0.00  0.00    +0.046 A 
ATOM     23  C   UNL     1       7.884  -7.003   4.074  0.00  0.00    +0.045 A 
ATOM     24  C   UNL     1       7.793  -6.203   2.998  0.00  0.00    +0.102 A 
ATOM     25  O   UNL     1       6.510  -6.168   2.602  0.00  0.00    -0.463 OA
ATOM     26  C   UNL     1       8.937  -5.473   2.342  0.00  0.00    +0.086 C 
ENDBRANCH  20  21
ENDBRANCH  17  20
BRANCH  18  27
ATOM     27  C   UNL     1       2.489  -5.356   6.179  0.00  0.00    +0.099 C 
BRANCH  27  28
ATOM     28  C   UNL     1       2.384  -5.809   7.637  0.00  0.00    -0.008 C 
ATOM     29  C   UNL     1       3.764  -5.734   8.294  0.00  0.00    +0.008 C 
ATOM     30  C   UNL     1       1.412  -4.896   8.386  0.00  0.00    +0.008 C 
ENDBRANCH  27  28
ENDBRANCH  18  27
ENDBRANCH   1  17
BRANCH   1  31
ATOM     31  C   UNL     1       4.425  -4.196   2.868  0.00  0.00    +0.045 C 
ATOM     32  C   UNL     1       5.421  -3.859   3.979  0.00  0.00    +0.015 C 
BRANCH  31  33
ATOM     33  C   UNL     1       4.013  -2.930   2.161  0.00  0.00    -0.042 A 
ATOM     34  C   UNL     1       3.438  -1.896   2.876  0.00  0.00    +0.004 A 
ATOM     35  C   UNL     1       3.060  -0.735   2.228  0.00  0.00    +0.000 A 
ATOM     36  C   UNL     1       3.257  -0.608   0.866  0.00  0.00    +0.000 A 
ATOM     37  C   UNL     1       3.833  -1.642   0.151  0.00  0.00    +0.000 A 
ATOM     38  C   UNL     1       4.215  -2.801   0.800  0.00  0.00    +0.004 A 
ENDBRANCH  31  33
ENDBRANCH   1  31
TORSDOF 11
