REMARK  Name = ZINC20331572
REMARK  7 active torsions:
REMARK  status: ('A' for Active; 'I' for Inactive)
REMARK    1  A    between atoms: C_1  and  O_2
REMARK    2  A    between atoms: O_2  and  C_3
REMARK    3  A    between atoms: N_15  and  C_19
REMARK    4  A    between atoms: C_19  and  C_20
REMARK    5  A    between atoms: C_20  and  C_21
REMARK    6  A    between atoms: C_21  and  C_22
REMARK    7  A    between atoms: C_22  and  C_23
REMARK                            x       y       z     vdW  Elec       q    Type
REMARK                         _______ _______ _______ _____ _____    ______ ____
ROOT
ATOM      1  C   UNL     1      -3.945  14.271   0.149  0.00  0.00    +0.121 A 
ATOM      2  C   UNL     1      -3.938  14.377   1.538  0.00  0.00    +0.047 A 
ATOM      3  C   UNL     1      -3.945  13.250   2.328  0.00  0.00    +0.030 A 
ATOM      4  C   UNL     1      -3.960  11.987   1.741  0.00  0.00    +0.049 A 
ATOM      5  C   UNL     1      -3.967  11.876   0.338  0.00  0.00    +0.027 A 
ATOM      6  C   UNL     1      -3.961  13.030  -0.453  0.00  0.00    +0.057 A 
ATOM      7  C   UNL     1      -3.982  10.445   0.035  0.00  0.00    +0.079 A 
ATOM      8  C   UNL     1      -3.982   9.779   1.247  0.00  0.00    +0.129 A 
ATOM      9  N   UNL     1      -3.969  10.714   2.269  0.00  0.00    -0.349 N 
ATOM     10  H   UNL     1      -3.965  10.571   3.360  0.00  0.00    +0.166 HD
ATOM     11  C   UNL     1      -4.001   8.360   1.240  0.00  0.00    +0.279 A 
ATOM     12  O   UNL     1      -4.007   7.741   2.289  0.00  0.00    -0.265 OA
ATOM     13  N   UNL     1      -4.008   7.704   0.063  0.00  0.00    -0.287 N 
ATOM     14  C   UNL     1      -4.007   8.371  -1.104  0.00  0.00    +0.161 A 
ATOM     15  S   UNL     1      -4.022   7.492  -2.572  0.00  0.00    -0.013 S 
ATOM     16  N   UNL     1      -3.995   9.717  -1.141  0.00  0.00    -0.333 N 
ATOM     17  H   UNL     1      -3.995  10.238  -2.110  0.00  0.00    +0.168 HD
ENDROOT
BRANCH   1  19
ATOM     18  C   UNL     1      -3.923  16.648   0.071  0.00  0.00    +0.277 C 
ATOM     19  O   UNL     1      -3.938  15.395  -0.616  0.00  0.00    -0.495 OA
ENDBRANCH   1  19
BRANCH  13  20
ATOM     20  C   UNL     1      -4.023   6.239   0.055  0.00  0.00    +0.127 C 
BRANCH  20  21
ATOM     21  C   UNL     1      -2.585   5.715   0.045  0.00  0.00    +0.022 C 
BRANCH  21  22
ATOM     22  C   UNL     1      -2.601   4.185   0.037  0.00  0.00    +0.011 C 
BRANCH  22  23
ATOM     23  C   UNL     1      -1.163   3.660   0.028  0.00  0.00    +0.096 C 
BRANCH  23  24
ATOM     24  C   UNL     1      -1.178   2.154   0.019  0.00  0.00    +0.216 C 
ATOM     25  O   UNL     1      -2.235   1.558   0.021  0.00  0.00    -0.276 OA
ATOM     26  N   UNL     1      -0.018   1.468   0.010  0.00  0.00    -0.297 N 
ATOM     27  C   UNL     1       0.002  -0.004   0.002  0.00  0.00    +0.113 C 
ATOM     28  C   UNL     1       0.626  -0.458  -1.317  0.00  0.00    +0.054 C 
ATOM     29  C   UNL     1       1.895   0.302  -1.600  0.00  0.00    -0.041 A 
ATOM     30  C   UNL     1       2.790  -0.253  -2.506  0.00  0.00    +0.004 A 
ATOM     31  C   UNL     1       3.967   0.395  -2.817  0.00  0.00    +0.000 A 
ATOM     32  C   UNL     1       4.261   1.609  -2.223  0.00  0.00    +0.000 A 
ATOM     33  C   UNL     1       3.376   2.161  -1.320  0.00  0.00    +0.005 A 
ATOM     34  C   UNL     1       2.193   1.507  -1.004  0.00  0.00    -0.027 A 
ATOM     35  C   UNL     1       1.276   2.159   0.002  0.00  0.00    +0.143 C 
ENDBRANCH  23  24
ENDBRANCH  22  23
ENDBRANCH  21  22
ENDBRANCH  20  21
ENDBRANCH  13  20
TORSDOF 6
