REMARK  Name = ZINC36273172
REMARK  12 active torsions:
REMARK  status: ('A' for Active; 'I' for Inactive)
REMARK    1  A    between atoms: C_1  and  C_2
REMARK    2  A    between atoms: C_2  and  N_3
REMARK    3  A    between atoms: N_3  and  C_4
REMARK    4  A    between atoms: N_3  and  C_6
REMARK    5  A    between atoms: C_4  and  C_5
REMARK    6  A    between atoms: C_6  and  C_7
REMARK    7  A    between atoms: C_8  and  C_17
REMARK    8  A    between atoms: C_13  and  N_16
REMARK    9  A    between atoms: C_20  and  O_25
REMARK   10  A    between atoms: C_21  and  O_23
REMARK   11  A    between atoms: O_23  and  C_24
REMARK   12  A    between atoms: O_25  and  C_26
REMARK                            x       y       z     vdW  Elec       q    Type
REMARK                         _______ _______ _______ _____ _____    ______ ____
ROOT
ATOM      1  C   UNL     1      -1.113   0.910  -2.329  0.00  0.00    +0.035 A 
ATOM      2  C   UNL     1      -1.955   1.911  -1.945  0.00  0.00    +0.091 A 
ATOM      3  N   UNL     1      -1.885   2.893  -2.856  0.00  0.00    -0.228 NA
ATOM      4  C   UNL     1      -1.025   2.546  -3.804  0.00  0.00    +0.138 A 
ATOM      5  N   UNL     1      -0.522   1.309  -3.495  0.00  0.00    -0.303 N 
ATOM      6  C   UNL     1       0.399   0.712  -4.311  0.00  0.00    +0.115 A 
ATOM      7  C   UNL     1       0.830   1.335  -5.435  0.00  0.00    +0.041 A 
ATOM      8  C   UNL     1       0.331   2.609  -5.773  0.00  0.00    +0.028 A 
ATOM      9  C   UNL     1      -0.591   3.206  -4.971  0.00  0.00    +0.048 A 
ENDROOT
BRANCH   2  10
ATOM     10  C   UNL     1      -2.805   1.913  -0.728  0.00  0.00    +0.006 A 
ATOM     11  C   UNL     1      -3.481   0.755  -0.347  0.00  0.00    +0.014 A 
ATOM     12  C   UNL     1      -4.271   0.757   0.785  0.00  0.00    +0.050 A 
ATOM     13  C   UNL     1      -4.393   1.910   1.546  0.00  0.00    +0.162 A 
ATOM     14  C   UNL     1      -3.719   3.069   1.170  0.00  0.00    +0.162 A 
ATOM     15  C   UNL     1      -2.922   3.070   0.039  0.00  0.00    +0.059 A 
BRANCH  14  16
ATOM     16  O   UNL     1      -3.840   4.199   1.918  0.00  0.00    -0.491 OA
ATOM     17  C   UNL     1      -3.120   5.351   1.474  0.00  0.00    +0.277 C 
ENDBRANCH  14  16
BRANCH  13  18
ATOM     18  O   UNL     1      -5.172   1.908   2.660  0.00  0.00    -0.491 OA
ATOM     19  C   UNL     1      -5.834   0.685   2.987  0.00  0.00    +0.277 C 
ENDBRANCH  13  18
ENDBRANCH   2  10
BRANCH   7  20
ATOM     20  N   UNL     1       1.774   0.711  -6.262  0.00  0.00    -0.357 N 
ATOM     21  H   UNL     1       2.117  -0.165  -6.030  0.00  0.00    +0.142 HD
ATOM     22  H   UNL     1       2.083   1.157  -7.066  0.00  0.00    +0.142 HD
ENDBRANCH   7  20
BRANCH   1  23
ATOM     23  C   UNL     1      -0.875  -0.388  -1.602  0.00  0.00    -0.022 C 
BRANCH  23  24
ATOM     24  N   UNL     1      -0.101  -0.130  -0.381  0.00  0.00    +0.383 N 
ATOM     25  H   UNL     1      -0.551   0.596   0.156  0.00  0.00    -0.081 HD
BRANCH  24  27
ATOM     26  C   UNL     1      -1.421  -1.708   0.947  0.00  0.00    -0.017 C 
ATOM     27  C   UNL     1      -0.027  -1.359   0.421  0.00  0.00    -0.082 C 
ENDBRANCH  24  27
BRANCH  24  28
ATOM     28  C   UNL     1       1.257   0.300  -0.743  0.00  0.00    -0.082 C 
ATOM     29  C   UNL     1       1.214   1.739  -1.262  0.00  0.00    -0.017 C 
ENDBRANCH  24  28
ENDBRANCH  23  24
ENDBRANCH   1  23
TORSDOF 8
