REMARK  Name = ZINC00051320
REMARK  5 active torsions:
REMARK  status: ('A' for Active; 'I' for Inactive)
REMARK    1  A    between atoms: C_2  and  O_3
REMARK    2  A    between atoms: O_3  and  C_4
REMARK    3  A    between atoms: C_4  and  C_6
REMARK    4  A    between atoms: C_7  and  N_20
REMARK    5  A    between atoms: C_11  and  C_15
REMARK                            x       y       z     vdW  Elec       q    Type
REMARK                         _______ _______ _______ _____ _____    ______ ____
ROOT
ATOM      1  C   UNL     1       1.018  10.036   0.045  0.00  0.00    +0.120 A 
ATOM      2  C   UNL     1       2.091   9.168   0.030  0.00  0.00    +0.055 A 
ATOM      3  C   UNL     1       1.823   7.740   0.025  0.00  0.00    +0.029 A 
ATOM      4  C   UNL     1       2.752   6.666   0.011  0.00  0.00    +0.014 A 
ATOM      5  C   UNL     1       2.291   5.387   0.009  0.00  0.00    +0.029 A 
ATOM      6  C   UNL     1       0.913   5.129   0.020  0.00  0.00    +0.079 A 
ATOM      7  N   UNL     1       0.045   6.136   0.028  0.00  0.00    -0.239 NA
ATOM      8  C   UNL     1       0.453   7.386   0.036  0.00  0.00    +0.111 A 
ATOM      9  S   UNL     1      -0.393   8.947   0.052  0.00  0.00    -0.060 S 
ENDROOT
BRANCH   6  10
ATOM     10  C   UNL     1       0.425   3.737   0.017  0.00  0.00    +0.038 A 
ATOM     11  C   UNL     1      -0.866   3.275   0.027  0.00  0.00    +0.017 A 
ATOM     12  C   UNL     1      -1.081   1.916   0.017  0.00  0.00    +0.008 A 
ATOM     13  C   UNL     1      -0.013   1.076   0.008  0.00  0.00    +0.046 A 
ATOM     14  S   UNL     1       1.360   2.217   0.001  0.00  0.00    -0.095 S 
ENDBRANCH   6  10
BRANCH   2  15
ATOM     15  N   UNL     1       3.393   9.648   0.020  0.00  0.00    -0.356 N 
ATOM     16  H   UNL     1       4.138   9.027   0.009  0.00  0.00    +0.142 HD
ATOM     17  H   UNL     1       3.558  10.603   0.024  0.00  0.00    +0.142 HD
ENDBRANCH   2  15
BRANCH   1  18
ATOM     18  C   UNL     1       1.034  11.449   0.053  0.00  0.00    +0.352 C 
ATOM     19  O   UNL     1       2.095  12.046   0.047  0.00  0.00    -0.244 OA
BRANCH  18  20
ATOM     20  O   UNL     1      -0.128  12.138   0.068  0.00  0.00    -0.430 OA
BRANCH  20  22
ATOM     21  C   UNL     1      -1.174  14.204   0.089  0.00  0.00    +0.049 C 
ATOM     22  C   UNL     1      -0.065  13.493   0.075  0.00  0.00    +0.191 C 
ENDBRANCH  20  22
ENDBRANCH  18  20
ENDBRANCH   1  18
TORSDOF 5
