REMARK  Name = ZINC07056732
REMARK  6 active torsions:
REMARK  status: ('A' for Active; 'I' for Inactive)
REMARK    1  A    between atoms: C_1  and  C_2
REMARK    2  A    between atoms: C_5  and  S_9
REMARK    3  A    between atoms: C_6  and  C_8
REMARK    4  A    between atoms: S_9  and  N_12
REMARK    5  A    between atoms: N_12  and  C_13
REMARK    6  A    between atoms: C_18  and  N_19
REMARK                            x       y       z     vdW  Elec       q    Type
REMARK                         _______ _______ _______ _____ _____    ______ ____
ROOT
ATOM      1  N   UNL     1       1.686  -5.190   0.440  0.00  0.00    -0.214 N 
ATOM      2  H   UNL     1       2.251  -5.627  -0.216  0.00  0.00    +0.174 HD
ENDROOT
BRANCH   1   3
ATOM      3  C   UNL     1       2.114  -5.077   1.768  0.00  0.00    +0.069 A 
ATOM      4  C   UNL     1       1.196  -5.168   2.804  0.00  0.00    +0.026 A 
ATOM      5  C   UNL     1       1.621  -5.057   4.115  0.00  0.00    +0.002 A 
ATOM      6  C   UNL     1       2.959  -4.855   4.398  0.00  0.00    +0.002 A 
ATOM      7  C   UNL     1       3.881  -4.763   3.371  0.00  0.00    +0.025 A 
ATOM      8  C   UNL     1       3.464  -4.879   2.054  0.00  0.00    +0.052 A 
BRANCH   8   9
ATOM      9  N   UNL     1       4.397  -4.792   1.013  0.00  0.00    -0.328 N 
ATOM     10  C   UNL     1       4.727  -3.493   0.410  0.00  0.00    +0.105 C 
ATOM     11  C   UNL     1       6.246  -3.301   0.453  0.00  0.00    +0.019 C 
ATOM     12  C   UNL     1       6.926  -4.497  -0.219  0.00  0.00    +0.003 C 
ATOM     13  C   UNL     1       6.579  -5.778   0.544  0.00  0.00    +0.019 C 
ATOM     14  C   UNL     1       5.068  -5.997   0.506  0.00  0.00    +0.105 C 
ENDBRANCH   8   9
ENDBRANCH   1   3
BRANCH   1  15
ATOM     15  S   UNL     1       0.215  -4.577  -0.011  0.00  0.00    +0.073 S 
ATOM     16  O   UNL     1      -0.748  -5.146   0.866  0.00  0.00    -0.150 OA
ATOM     17  O   UNL     1       0.134  -4.714  -1.423  0.00  0.00    -0.150 OA
BRANCH  15  22
ATOM     18  C   UNL     1       0.320   1.343   1.147  0.00  0.00    +0.044 C 
ATOM     19  C   UNL     1       0.294  -0.135   0.858  0.00  0.00    -0.050 A 
ATOM     20  C   UNL     1      -0.565  -0.962   1.559  0.00  0.00    +0.005 A 
ATOM     21  C   UNL     1      -0.589  -2.318   1.294  0.00  0.00    +0.029 A 
ATOM     22  C   UNL     1       0.245  -2.848   0.326  0.00  0.00    +0.111 A 
ATOM     23  C   UNL     1       1.102  -2.022  -0.375  0.00  0.00    -0.024 A 
ATOM     24  C   UNL     1       1.123  -0.664  -0.113  0.00  0.00    +0.008 A 
ATOM     25  C   UNL     1       2.011  -2.599  -1.429  0.00  0.00    +0.046 C 
ENDBRANCH  15  22
ENDBRANCH   1  15
TORSDOF 4
