REMARK  Name = ZINC48440108
REMARK  6 active torsions:
REMARK  status: ('A' for Active; 'I' for Inactive)
REMARK    1  A    between atoms: C_1  and  C_2
REMARK    2  A    between atoms: C_4  and  N_10
REMARK    3  A    between atoms: C_7  and  O_8
REMARK    4  A    between atoms: O_8  and  C_9
REMARK    5  A    between atoms: N_10  and  C_11
REMARK    6  A    between atoms: C_11  and  C_12
REMARK                            x       y       z     vdW  Elec       q    Type
REMARK                         _______ _______ _______ _____ _____    ______ ____
ROOT
ATOM      1  N   UNL     1       0.028  -2.770  -2.421  0.00  0.00    -0.340 N 
ATOM      2  H   UNL     1       0.017  -2.281  -3.259  0.00  0.00    +0.146 HD
ENDROOT
BRANCH   1   6
ATOM      3  C   UNL     1      -0.018   1.503   0.010  0.00  0.00    +0.047 C 
ATOM      4  C   UNL     1       0.002  -0.004   0.002  0.00  0.00    -0.007 A 
ATOM      5  C   UNL     1       0.006  -0.688  -1.198  0.00  0.00    +0.030 A 
ATOM      6  C   UNL     1       0.025  -2.076  -1.206  0.00  0.00    +0.028 A 
ATOM      7  C   UNL     1       0.041  -2.776  -0.006  0.00  0.00    +0.026 A 
ATOM      8  C   UNL     1       0.037  -2.091   1.193  0.00  0.00    +0.048 A 
ATOM      9  C   UNL     1       0.023  -0.704   1.199  0.00  0.00    +0.123 A 
BRANCH   9  10
ATOM     10  O   UNL     1       0.025  -0.029   2.380  0.00  0.00    -0.495 OA
ATOM     11  C   UNL     1       0.046  -0.814   3.575  0.00  0.00    +0.277 C 
ENDBRANCH   9  10
ENDBRANCH   1   6
BRANCH   1  12
ATOM     12  C   UNL     1       0.049  -4.235  -2.428  0.00  0.00    +0.137 C 
BRANCH  12  13
ATOM     13  C   UNL     1       0.048  -4.730  -3.852  0.00  0.00    -0.026 A 
ATOM     14  C   UNL     1      -1.150  -4.968  -4.499  0.00  0.00    +0.054 A 
ATOM     15  C   UNL     1      -1.154  -5.423  -5.807  0.00  0.00    +0.168 A 
ATOM     16  C   UNL     1       0.052  -5.641  -6.468  0.00  0.00    +0.180 A 
ATOM     17  C   UNL     1       1.250  -5.400  -5.814  0.00  0.00    +0.064 A 
ATOM     18  C   UNL     1       1.246  -4.940  -4.509  0.00  0.00    +0.024 A 
ATOM     19 BR   UNL     1       2.891  -5.694  -6.707  0.00  0.00    -0.046 Br
ATOM     20  O   UNL     1      -0.216  -6.083  -7.731  0.00  0.00    -0.451 OA
ATOM     21  C   UNL     1      -1.586  -6.523  -7.702  0.00  0.00    +0.466 C 
ATOM     22  O   UNL     1      -2.178  -5.729  -6.656  0.00  0.00    -0.453 OA
ENDBRANCH  12  13
ENDBRANCH   1  12
TORSDOF 4
