REMARK  Name = ZINC59105196
REMARK  9 active torsions:
REMARK  status: ('A' for Active; 'I' for Inactive)
REMARK    1  A    between atoms: C_7  and  C_11
REMARK    2  A    between atoms: C_11  and  C_12
REMARK    3  A    between atoms: C_12  and  N_13
REMARK    4  A    between atoms: C_14  and  C_16
REMARK    5  A    between atoms: C_16  and  C_34
REMARK    6  A    between atoms: C_17  and  C_18
REMARK    7  A    between atoms: C_23  and  O_24
REMARK    8  A    between atoms: O_24  and  C_25
REMARK    9  A    between atoms: C_25  and  C_26
REMARK                            x       y       z     vdW  Elec       q    Type
REMARK                         _______ _______ _______ _____ _____    ______ ____
ROOT
ATOM      1  C   UNL     1      -1.848  -6.668  -2.702  0.00  0.00    +0.114 C 
ATOM      2  C   UNL     1      -2.703  -6.751  -3.780  0.00  0.00    +0.035 C 
ENDROOT
BRANCH   2   3
ATOM      3  C   UNL     1      -2.351  -6.106  -5.045  0.00  0.00    +0.019 A 
ATOM      4  C   UNL     1      -1.845  -4.798  -5.054  0.00  0.00    +0.026 A 
ATOM      5  C   UNL     1      -1.515  -4.199  -6.249  0.00  0.00    +0.019 A 
ATOM      6  C   UNL     1      -1.681  -4.882  -7.445  0.00  0.00    +0.019 A 
ATOM      7  C   UNL     1      -2.178  -6.171  -7.453  0.00  0.00    +0.047 A 
ATOM      8  C   UNL     1      -2.511  -6.795  -6.261  0.00  0.00    +0.128 A 
ATOM      9 BR   UNL     1      -0.833  -2.435  -6.261  0.00  0.00    -0.050 Br
BRANCH   8  10
ATOM     10  O   UNL     1      -2.994  -8.063  -6.267  0.00  0.00    -0.487 OA
BRANCH  10  11
ATOM     11  C   UNL     1      -3.130  -8.699  -7.540  0.00  0.00    +0.264 C 
BRANCH  11  12
ATOM     12  C   UNL     1      -3.677 -10.090  -7.350  0.00  0.00    -0.008 A 
ATOM     13  C   UNL     1      -2.812 -11.153  -7.163  0.00  0.00    +0.007 A 
ATOM     14  C   UNL     1      -3.312 -12.430  -6.989  0.00  0.00    +0.003 A 
ATOM     15  C   UNL     1      -4.677 -12.646  -7.001  0.00  0.00    +0.038 A 
ATOM     16  C   UNL     1      -5.544 -11.582  -7.188  0.00  0.00    +0.124 A 
ATOM     17  C   UNL     1      -5.042 -10.303  -7.356  0.00  0.00    +0.045 A 
ATOM     18  F   UNL     1      -6.878 -11.792  -7.201  0.00  0.00    -0.205 F 
ENDBRANCH  11  12
ENDBRANCH  10  11
ENDBRANCH   8  10
ENDBRANCH   2   3
BRANCH   1  20
ATOM     19  N   UNL     1       0.292  -5.910  -1.804  0.00  0.00    -0.310 N 
ATOM     20  C   UNL     1      -0.494  -6.123  -2.879  0.00  0.00    +0.254 C 
ATOM     21  O   UNL     1      -0.083  -5.863  -3.994  0.00  0.00    -0.269 OA
ATOM     22  H   UNL     1      -0.036  -6.116  -0.915  0.00  0.00    +0.149 HD
BRANCH  19  23
ATOM     23  C   UNL     1       1.641  -5.366  -1.980  0.00  0.00    +0.109 C 
BRANCH  23  24
ATOM     24  C   UNL     1       2.315  -5.223  -0.614  0.00  0.00    +0.056 C 
BRANCH  24  31
ATOM     25  C   UNL     1       3.988  -0.862  -1.015  0.00  0.00    +0.001 A 
ATOM     26  C   UNL     1       5.368  -0.824  -1.168  0.00  0.00    +0.002 A 
ATOM     27  C   UNL     1       6.104  -1.988  -1.191  0.00  0.00    +0.026 A 
ATOM     28  C   UNL     1       5.462  -3.215  -1.059  0.00  0.00    +0.047 A 
ATOM     29  C   UNL     1       4.064  -3.248  -0.904  0.00  0.00    +0.003 A 
ATOM     30  C   UNL     1       3.337  -2.056  -0.884  0.00  0.00    +0.010 A 
ATOM     31  C   UNL     1       3.703  -4.663  -0.794  0.00  0.00    -0.021 A 
ATOM     32  C   UNL     1       4.842  -5.368  -0.884  0.00  0.00    +0.087 A 
ATOM     33  N   UNL     1       5.904  -4.519  -1.043  0.00  0.00    -0.360 N 
ATOM     34  H   UNL     1       6.829  -4.795  -1.131  0.00  0.00    +0.165 HD
ENDBRANCH  24  31
ENDBRANCH  23  24
ENDBRANCH  19  23
ENDBRANCH   1  20
BRANCH   1  35
ATOM     35  C   UNL     1      -2.279  -7.114  -1.411  0.00  0.00    +0.104 C 
ATOM     36  N   UNL     1      -2.620  -7.467  -0.387  0.00  0.00    -0.191 NA
ENDBRANCH   1  35
TORSDOF 9
