REMARK  Name = ZINC23859022
REMARK  8 active torsions:
REMARK  status: ('A' for Active; 'I' for Inactive)
REMARK    1  A    between atoms: C_1  and  N_2
REMARK    2  A    between atoms: N_5  and  C_8
REMARK    3  A    between atoms: C_8  and  C_10
REMARK    4  A    between atoms: C_8  and  C_24
REMARK    5  A    between atoms: C_10  and  N_11
REMARK    6  A    between atoms: C_12  and  C_14
REMARK    7  A    between atoms: C_16  and  N_21
REMARK    8  A    between atoms: N_33  and  C_34
REMARK                            x       y       z     vdW  Elec       q    Type
REMARK                         _______ _______ _______ _____ _____    ______ ____
ROOT
ATOM      1  C   UNL     1       3.096  -2.179   4.332  0.00  0.00    +0.104 C 
ENDROOT
BRANCH   1   2
ATOM      2  C   UNL     1       1.649  -2.054   3.930  0.00  0.00    -0.028 A 
ATOM      3  C   UNL     1       0.676  -2.756   4.618  0.00  0.00    +0.007 A 
ATOM      4  C   UNL     1      -0.646  -2.643   4.247  0.00  0.00    +0.024 A 
ATOM      5  C   UNL     1      -1.013  -1.823   3.179  0.00  0.00    +0.033 A 
ATOM      6  C   UNL     1      -0.036  -1.118   2.498  0.00  0.00    -0.026 A 
ATOM      7  C   UNL     1       1.292  -1.238   2.875  0.00  0.00    +0.010 A 
ATOM      8  C   UNL     1      -0.367  -0.202   1.346  0.00  0.00    +0.038 C 
ATOM      9  C   UNL     1      -1.784  -0.494   0.847  0.00  0.00    +0.024 C 
ATOM     10  C   UNL     1      -2.709  -0.566   2.068  0.00  0.00    +0.105 C 
ATOM     11  N   UNL     1      -2.365  -1.757   2.848  0.00  0.00    -0.333 N 
ATOM     12  C   UNL     1      -3.207  -1.861   4.047  0.00  0.00    +0.129 C 
ENDBRANCH   1   2
BRANCH   1  17
ATOM     13  C   UNL     1       4.012  -7.306   2.147  0.00  0.00    -0.096 C 
ATOM     14  N   UNL     1       3.500  -5.993   2.562  0.00  0.00    +0.379 N 
ATOM     15  C   UNL     1       3.352  -5.924   4.023  0.00  0.00    -0.064 C 
ATOM     16  C   UNL     1       2.743  -4.573   4.407  0.00  0.00    +0.066 C 
ATOM     17  N   UNL     1       3.608  -3.491   3.917  0.00  0.00    -0.297 NA
ATOM     18  C   UNL     1       3.757  -3.561   2.456  0.00  0.00    +0.066 C 
ATOM     19  C   UNL     1       4.365  -4.911   2.072  0.00  0.00    -0.064 C 
ATOM     20  H   UNL     1       2.505  -5.862   2.113  0.00  0.00    -0.082 HD
ENDBRANCH   1  17
BRANCH   1  21
ATOM     21  C   UNL     1       3.218  -2.041   5.851  0.00  0.00    +0.128 C 
BRANCH  21  22
ATOM     22  N   UNL     1       4.612  -2.249   6.250  0.00  0.00    -0.309 N 
ATOM     23  C   UNL     1       4.942  -2.273   7.557  0.00  0.00    +0.246 C 
ATOM     24  O   UNL     1       4.083  -2.123   8.404  0.00  0.00    -0.270 OA
ATOM     25  H   UNL     1       5.389  -2.385   5.484  0.00  0.00    +0.149 HD
BRANCH  23  26
ATOM     26  C   UNL     1       6.348  -2.483   7.960  0.00  0.00    +0.057 A 
ATOM     27  C   UNL     1       7.337  -2.662   6.989  0.00  0.00    +0.047 A 
ATOM     28  C   UNL     1       8.648  -2.853   7.372  0.00  0.00    +0.127 A 
ATOM     29  C   UNL     1       8.985  -2.877   8.714  0.00  0.00    +0.034 A 
ATOM     30  C   UNL     1       8.011  -2.705   9.681  0.00  0.00    +0.023 A 
ATOM     31  C   UNL     1       6.694  -2.509   9.313  0.00  0.00    +0.053 A 
ATOM     32 CL   UNL     1       5.473  -2.293  10.528  0.00  0.00    -0.083 Cl
BRANCH  28  33
ATOM     33  N   UNL     1       9.697  -3.038   6.344  0.00  0.00    +0.056 N 
ATOM     34  O   UNL     1      10.854  -3.211   6.680  0.00  0.00    -0.126 OA
ATOM     35  O   UNL     1       9.402  -3.016   5.163  0.00  0.00    -0.126 OA
ENDBRANCH  28  33
ENDBRANCH  23  26
ENDBRANCH  21  22
ENDBRANCH   1  21
TORSDOF 6
