REMARK  Name = ZINC21358452
REMARK  9 active torsions:
REMARK  status: ('A' for Active; 'I' for Inactive)
REMARK    1  A    between atoms: C_1  and  C_2
REMARK    2  A    between atoms: C_2  and  C_3
REMARK    3  A    between atoms: C_2  and  N_4
REMARK    4  A    between atoms: C_8  and  S_14
REMARK    5  A    between atoms: S_14  and  N_17
REMARK    6  A    between atoms: C_23  and  C_25
REMARK    7  A    between atoms: C_25  and  C_28
REMARK    8  A    between atoms: C_31  and  O_34
REMARK    9  A    between atoms: O_34  and  C_35
REMARK                            x       y       z     vdW  Elec       q    Type
REMARK                         _______ _______ _______ _____ _____    ______ ____
ROOT
ATOM      1  N   UNL     1       0.307   6.113  -1.724  0.00  0.00    -0.174 NA
ATOM      2  C   UNL     1      -0.083   5.315  -2.896  0.00  0.00    +0.128 C 
ATOM      3  C   UNL     1      -1.103   4.259  -2.452  0.00  0.00    +0.125 C 
ATOM      4  N   UNL     1      -0.576   3.567  -1.267  0.00  0.00    -0.298 N 
ATOM      5  C   UNL     1      -0.192   4.364  -0.094  0.00  0.00    +0.125 C 
ATOM      6  C   UNL     1       0.833   5.421  -0.540  0.00  0.00    +0.128 C 
ATOM      7  C   UNL     1      -0.454   2.225  -1.255  0.00  0.00    +0.226 C 
ATOM      8  O   UNL     1      -0.683   1.586  -2.260  0.00  0.00    -0.275 OA
ENDROOT
BRANCH   1   9
ATOM      9  S   UNL     1       0.155   7.762  -1.739  0.00  0.00    +0.061 S 
ATOM     10  O   UNL     1       1.081   8.263  -0.784  0.00  0.00    -0.153 OA
ATOM     11  O   UNL     1       0.178   8.160  -3.103  0.00  0.00    -0.153 OA
BRANCH   9  16
ATOM     12  N   UNL     1      -5.234   9.056   0.436  0.00  0.00    -0.299 N 
ATOM     13  C   UNL     1      -4.029   8.751  -0.174  0.00  0.00    +0.060 A 
ATOM     14  C   UNL     1      -3.788   8.542  -1.542  0.00  0.00    +0.029 A 
ATOM     15  C   UNL     1      -2.526   8.250  -2.000  0.00  0.00    +0.030 A 
ATOM     16  C   UNL     1      -1.453   8.143  -1.130  0.00  0.00    +0.107 A 
ATOM     17  C   UNL     1      -1.661   8.344   0.224  0.00  0.00    +0.045 A 
ATOM     18  C   UNL     1      -2.922   8.640   0.680  0.00  0.00    +0.043 A 
ATOM     19  S   UNL     1      -3.615   8.966   2.283  0.00  0.00    -0.027 S 
ATOM     20  C   UNL     1      -5.305   9.229   1.771  0.00  0.00    +0.292 A 
ATOM     21  O   UNL     1      -6.275   9.498   2.455  0.00  0.00    -0.259 OA
BRANCH  12  23
ATOM     22  C   UNL     1      -7.484   8.166   0.079  0.00  0.00    +0.030 C 
ATOM     23  C   UNL     1      -6.445   9.192  -0.377  0.00  0.00    +0.085 C 
ATOM     24  C   UNL     1      -7.015  10.602  -0.211  0.00  0.00    +0.030 C 
ENDBRANCH  12  23
ENDBRANCH   9  16
ENDBRANCH   1   9
BRANCH   7  25
ATOM     25  C   UNL     1      -0.032   1.518   0.008  0.00  0.00    +0.072 C 
ATOM     26  C   UNL     1      -0.953   0.421   0.545  0.00  0.00    +0.022 C 
ATOM     27  C   UNL     1      -0.864   1.766   1.268  0.00  0.00    +0.022 C 
BRANCH  25  28
ATOM     28  C   UNL     1       1.453   1.327   0.180  0.00  0.00    -0.032 A 
ATOM     29  C   UNL     1       2.000   1.282   1.449  0.00  0.00    +0.008 A 
ATOM     30  C   UNL     1       3.360   1.101   1.610  0.00  0.00    +0.046 A 
ATOM     31  C   UNL     1       4.178   0.975   0.497  0.00  0.00    +0.120 A 
ATOM     32  C   UNL     1       3.628   1.025  -0.775  0.00  0.00    +0.046 A 
ATOM     33  C   UNL     1       2.266   1.201  -0.931  0.00  0.00    +0.008 A 
BRANCH  31  34
ATOM     34  O   UNL     1       5.517   0.801   0.653  0.00  0.00    -0.495 OA
ATOM     35  C   UNL     1       6.014   0.759   1.992  0.00  0.00    +0.277 C 
ENDBRANCH  31  34
ENDBRANCH  25  28
ENDBRANCH   7  25
TORSDOF 6
