REMARK  Name = ZINC14544057
REMARK  7 active torsions:
REMARK  status: ('A' for Active; 'I' for Inactive)
REMARK    1  A    between atoms: C_1  and  C_2
REMARK    2  A    between atoms: C_2  and  O_3
REMARK    3  A    between atoms: O_3  and  C_4
REMARK    4  A    between atoms: C_4  and  C_6
REMARK    5  A    between atoms: C_19  and  C_22
REMARK    6  A    between atoms: C_31  and  O_32
REMARK    7  A    between atoms: O_32  and  C_33
REMARK                            x       y       z     vdW  Elec       q    Type
REMARK                         _______ _______ _______ _____ _____    ______ ____
ROOT
ATOM      1  C   UNL     1       0.002  -0.004   0.002  0.00  0.00    +0.059 A 
ATOM      2  C   UNL     1      -1.199  -0.720   0.010  0.00  0.00    +0.017 A 
ATOM      3  C   UNL     1      -1.173  -2.085   0.003  0.00  0.00    +0.024 A 
ATOM      4  C   UNL     1       0.043  -2.765  -0.011  0.00  0.00    +0.031 A 
ATOM      5  C   UNL     1       1.245  -2.069  -0.021  0.00  0.00    -0.019 A 
ATOM      6  C   UNL     1       1.220  -0.686  -0.019  0.00  0.00    +0.021 A 
ATOM      7  C   UNL     1       2.571  -2.761  -0.042  0.00  0.00    +0.049 C 
ATOM      8  C   UNL     1       3.246  -2.699   1.308  0.00  0.00    -0.023 C 
ATOM      9  C   UNL     1       3.894  -3.814   1.542  0.00  0.00    -0.030 C 
ATOM     10  C   UNL     1       3.745  -4.771   0.376  0.00  0.00    +0.033 C 
ATOM     11  C   UNL     1       2.456  -4.269  -0.339  0.00  0.00    +0.029 C 
ATOM     12  C   UNL     1       1.259  -4.857   0.412  0.00  0.00    +0.109 C 
ATOM     13  N   UNL     1       0.042  -4.158  -0.012  0.00  0.00    -0.336 N 
ATOM     14  H   UNL     1      -0.746  -4.654  -0.287  0.00  0.00    +0.147 HD
ENDROOT
BRANCH  12  15
ATOM     15  C   UNL     1       1.135  -6.325   0.095  0.00  0.00    +0.022 A 
ATOM     16  C   UNL     1       1.521  -7.288   1.041  0.00  0.00    -0.009 A 
ATOM     17  C   UNL     1       2.028  -6.913   2.298  0.00  0.00    +0.009 A 
ATOM     18  C   UNL     1       2.392  -7.872   3.191  0.00  0.00    +0.001 A 
ATOM     19  C   UNL     1       2.270  -9.226   2.880  0.00  0.00    +0.001 A 
ATOM     20  C   UNL     1       1.784  -9.626   1.673  0.00  0.00    +0.008 A 
ATOM     21  C   UNL     1       1.397  -8.664   0.725  0.00  0.00    -0.017 A 
ATOM     22  C   UNL     1       0.889  -9.041  -0.531  0.00  0.00    +0.012 A 
ATOM     23  C   UNL     1       0.524  -8.085  -1.425  0.00  0.00    +0.046 A 
ATOM     24  C   UNL     1       0.641  -6.727  -1.114  0.00  0.00    +0.126 A 
BRANCH  24  25
ATOM     25  O   UNL     1       0.262  -5.794  -2.027  0.00  0.00    -0.495 OA
ATOM     26  C   UNL     1      -0.247  -6.275  -3.272  0.00  0.00    +0.277 C 
ENDBRANCH  24  25
ENDBRANCH  12  15
BRANCH   1  27
ATOM     27  C   UNL     1      -0.018   1.470   0.010  0.00  0.00    +0.339 C 
ATOM     28  O   UNL     1       1.026   2.091   0.004  0.00  0.00    -0.245 OA
BRANCH  27  29
ATOM     29  O   UNL     1      -1.194   2.127   0.019  0.00  0.00    -0.461 OA
BRANCH  29  31
ATOM     30  C   UNL     1      -2.559   4.144   0.037  0.00  0.00    +0.048 C 
ATOM     31  C   UNL     1      -1.138   3.578   0.027  0.00  0.00    +0.229 C 
ENDBRANCH  29  31
ENDBRANCH  27  29
ENDBRANCH   1  27
TORSDOF 5
