REMARK  Name = ZINC20102942
REMARK  8 active torsions:
REMARK  status: ('A' for Active; 'I' for Inactive)
REMARK    1  A    between atoms: C_1  and  C_2
REMARK    2  A    between atoms: C_2  and  C_4
REMARK    3  A    between atoms: C_2  and  O_29
REMARK    4  A    between atoms: C_7  and  S_15
REMARK    5  A    between atoms: N_8  and  C_9
REMARK    6  A    between atoms: S_15  and  C_16
REMARK    7  A    between atoms: C_16  and  C_17
REMARK    8  A    between atoms: O_29  and  C_30
REMARK                            x       y       z     vdW  Elec       q    Type
REMARK                         _______ _______ _______ _____ _____    ______ ____
ROOT
ATOM      1  C   UNL     1      -6.125   2.760   0.219  0.00  0.00    +0.179 A 
ATOM      2  N   UNL     1      -5.412   3.840   0.375  0.00  0.00    -0.129 NA
ATOM      3  N   UNL     1      -4.169   3.535   0.494  0.00  0.00    -0.122 NA
ATOM      4  C   UNL     1      -4.018   2.233   0.421  0.00  0.00    +0.197 A 
ATOM      5  N   UNL     1      -5.263   1.696   0.237  0.00  0.00    -0.271 N 
ENDROOT
BRANCH   5   6
ATOM      6  C   UNL     1      -5.589   0.339   0.099  0.00  0.00    +0.050 A 
ATOM      7  C   UNL     1      -6.121  -0.130  -1.095  0.00  0.00    +0.026 A 
ATOM      8  C   UNL     1      -6.435  -1.469  -1.230  0.00  0.00    +0.002 A 
ATOM      9  C   UNL     1      -6.231  -2.338  -0.174  0.00  0.00    +0.000 A 
ATOM     10  C   UNL     1      -5.707  -1.872   1.018  0.00  0.00    +0.002 A 
ATOM     11  C   UNL     1      -5.385  -0.536   1.157  0.00  0.00    +0.026 A 
ENDBRANCH   5   6
BRANCH   1  13
ATOM     12  C   UNL     1      -8.302   2.950   1.393  0.00  0.00    +0.060 C 
ATOM     13  C   UNL     1      -7.621   2.696   0.046  0.00  0.00    +0.238 C 
BRANCH  13  14
ATOM     14  O   UNL     1      -8.036   3.690  -0.892  0.00  0.00    -0.480 OA
BRANCH  14  15
ATOM     15  C   UNL     1      -9.200   3.464  -1.556  0.00  0.00    +0.140 A 
ATOM     16  C   UNL     1      -9.985   2.368  -1.230  0.00  0.00    +0.047 A 
ATOM     17  C   UNL     1     -11.168   2.141  -1.906  0.00  0.00    +0.004 A 
ATOM     18  C   UNL     1     -11.571   3.005  -2.908  0.00  0.00    +0.002 A 
ATOM     19  C   UNL     1     -10.791   4.099  -3.235  0.00  0.00    +0.023 A 
ATOM     20  C   UNL     1      -9.609   4.334  -2.558  0.00  0.00    +0.083 A 
ATOM     21 CL   UNL     1      -8.633   5.711  -2.965  0.00  0.00    -0.080 Cl
ENDBRANCH  14  15
ENDBRANCH  13  14
ENDBRANCH   1  13
BRANCH   4  22
ATOM     22  S   UNL     1      -2.500   1.346   0.530  0.00  0.00    -0.078 S 
BRANCH  22  23
ATOM     23  C   UNL     1      -1.347   2.723   0.757  0.00  0.00    +0.151 C 
BRANCH  23  24
ATOM     24  C   UNL     1       0.057   2.188   0.878  0.00  0.00    +0.121 A 
ATOM     25  N   UNL     1       1.071   3.074   1.049  0.00  0.00    -0.310 N 
ATOM     26  H   UNL     1       0.858   4.152   1.101  0.00  0.00    +0.170 HD
ATOM     27  C   UNL     1       2.350   2.645   1.158  0.00  0.00    +0.259 A 
ATOM     28  O   UNL     1       3.270   3.428   1.311  0.00  0.00    -0.267 OA
ATOM     29  C   UNL     1       2.587   1.195   1.084  0.00  0.00    +0.065 A 
ATOM     30  C   UNL     1       3.865   0.651   1.184  0.00  0.00    +0.015 A 
ATOM     31  C   UNL     1       4.029  -0.715   1.107  0.00  0.00    +0.001 A 
ATOM     32  C   UNL     1       2.932  -1.549   0.931  0.00  0.00    +0.002 A 
ATOM     33  C   UNL     1       1.661  -1.031   0.829  0.00  0.00    +0.028 A 
ATOM     34  C   UNL     1       1.469   0.350   0.904  0.00  0.00    +0.078 A 
ATOM     35  N   UNL     1       0.234   0.903   0.809  0.00  0.00    -0.233 NA
ENDBRANCH  23  24
ENDBRANCH  22  23
ENDBRANCH   4  22
TORSDOF 7
