REMARK  Name = ZINC02825358
REMARK  4 active torsions:
REMARK  status: ('A' for Active; 'I' for Inactive)
REMARK    1  A    between atoms: C_5  and  C_7
REMARK    2  A    between atoms: C_7  and  S_8
REMARK    3  A    between atoms: S_8  and  C_9
REMARK    4  A    between atoms: C_22  and  C_25
REMARK                            x       y       z     vdW  Elec       q    Type
REMARK                         _______ _______ _______ _____ _____    ______ ____
ROOT
ATOM      1  C   UNL     1      -3.466  -2.247  -0.042  0.00  0.00    +0.213 A 
ATOM      2  N   UNL     1      -2.519  -2.584   0.828  0.00  0.00    -0.184 NA
ATOM      3  C   UNL     1      -1.400  -1.881   0.870  0.00  0.00    +0.248 A 
ATOM      4  C   UNL     1      -1.246  -0.795  -0.020  0.00  0.00    +0.156 A 
ATOM      5  N   UNL     1      -2.229  -0.509  -0.860  0.00  0.00    -0.141 NA
ATOM      6  N   UNL     1      -3.305  -1.218  -0.865  0.00  0.00    -0.122 NA
ATOM      7  C   UNL     1       0.002  -0.004   0.002  0.00  0.00    +0.028 A 
ATOM      8  C   UNL     1      -0.017   1.385   0.010  0.00  0.00    +0.012 A 
ATOM      9  C   UNL     1       1.173   2.088   0.002  0.00  0.00    +0.001 A 
ATOM     10  C   UNL     1       2.383   1.416  -0.013  0.00  0.00    +0.002 A 
ATOM     11  C   UNL     1       2.417   0.034  -0.016  0.00  0.00    +0.024 A 
ATOM     12  C   UNL     1       1.235  -0.684  -0.003  0.00  0.00    +0.040 A 
ATOM     13  N   UNL     1       1.231  -2.082   0.013  0.00  0.00    -0.303 N 
ATOM     14  C   UNL     1       0.774  -2.769   1.218  0.00  0.00    +0.329 C 
ATOM     15  O   UNL     1      -0.410  -2.181   1.745  0.00  0.00    -0.445 OA
ATOM     16  H   UNL     1       1.527  -2.586  -0.761  0.00  0.00    +0.150 HD
ENDROOT
BRANCH  14  17
ATOM     17  C   UNL     1       1.860  -2.706   2.261  0.00  0.00    +0.165 A 
ATOM     18  C   UNL     1       2.084  -3.622   3.219  0.00  0.00    +0.051 A 
ATOM     19  C   UNL     1       3.194  -3.168   3.969  0.00  0.00    +0.057 A 
ATOM     20  C   UNL     1       3.576  -1.996   3.429  0.00  0.00    +0.170 A 
ATOM     21  O   UNL     1       2.764  -1.721   2.394  0.00  0.00    -0.448 OA
ATOM     22 BR   UNL     1       5.012  -0.920   4.024  0.00  0.00    -0.008 Br
ENDBRANCH  14  17
BRANCH   1  23
ATOM     23  S   UNL     1      -4.959  -3.180  -0.104  0.00  0.00    -0.080 S 
BRANCH  23  24
ATOM     24  C   UNL     1      -5.830  -2.294  -1.419  0.00  0.00    +0.115 C 
BRANCH  24  29
ATOM     25  C   UNL     1      -9.512  -3.088  -1.160  0.00  0.00    +0.000 A 
ATOM     26  C   UNL     1      -9.641  -4.110  -2.082  0.00  0.00    +0.003 A 
ATOM     27  C   UNL     1      -8.537  -4.545  -2.791  0.00  0.00    +0.038 A 
ATOM     28  C   UNL     1      -7.303  -3.955  -2.580  0.00  0.00    +0.127 A 
ATOM     29  C   UNL     1      -7.174  -2.935  -1.653  0.00  0.00    -0.002 A 
ATOM     30  C   UNL     1      -8.279  -2.501  -0.946  0.00  0.00    +0.007 A 
ATOM     31  F   UNL     1      -6.224  -4.376  -3.276  0.00  0.00    -0.205 F 
ENDBRANCH  24  29
ENDBRANCH  23  24
ENDBRANCH   1  23
TORSDOF 4
