REMARK  Name = ZINC09833407
REMARK  8 active torsions:
REMARK  status: ('A' for Active; 'I' for Inactive)
REMARK    1  A    between atoms: C_1  and  C_2
REMARK    2  A    between atoms: C_2  and  C_3
REMARK    3  A    between atoms: C_10  and  C_12
REMARK    4  A    between atoms: C_15  and  S_18
REMARK    5  A    between atoms: N_16  and  C_17
REMARK    6  A    between atoms: S_18  and  C_19
REMARK    7  A    between atoms: C_19  and  C_20
REMARK    8  A    between atoms: N_22  and  C_23
REMARK                            x       y       z     vdW  Elec       q    Type
REMARK                         _______ _______ _______ _____ _____    ______ ____
ROOT
ATOM      1  S   UNL     1      -0.022   1.806   0.011  0.00  0.00    -0.077 S 
ENDROOT
BRANCH   1   5
ATOM      2  C   UNL     1       3.656   3.130  -0.040  0.00  0.00    +0.171 A 
ATOM      3  N   UNL     1       3.816   1.825  -0.053  0.00  0.00    -0.128 NA
ATOM      4  N   UNL     1       2.671   1.242  -0.034  0.00  0.00    -0.122 NA
ATOM      5  C   UNL     1       1.709   2.135  -0.016  0.00  0.00    +0.192 A 
ATOM      6  N   UNL     1       2.299   3.368  -0.016  0.00  0.00    -0.305 N 
ATOM      7  C   UNL     1       1.630   4.671   0.005  0.00  0.00    +0.153 C 
BRANCH   2  14
ATOM      8  C   UNL     1       8.927   6.415   0.714  0.00  0.00    -0.007 C 
ATOM      9  C   UNL     1       8.515   7.382  -0.399  0.00  0.00    +0.009 C 
ATOM     10  C   UNL     1       6.999   7.616  -0.313  0.00  0.00    +0.043 C 
ATOM     11  C   UNL     1       6.326   6.288  -0.178  0.00  0.00    -0.006 A 
ATOM     12  C   UNL     1       6.903   5.094   0.140  0.00  0.00    -0.036 A 
ATOM     13  C   UNL     1       6.059   3.992   0.209  0.00  0.00    +0.023 A 
ATOM     14  C   UNL     1       4.723   4.143  -0.049  0.00  0.00    +0.057 A 
ATOM     15  S   UNL     1       4.612   5.893  -0.392  0.00  0.00    -0.090 S 
ATOM     16  C   UNL     1       8.403   5.011   0.409  0.00  0.00    +0.039 C 
BRANCH   8  18
ATOM     17  C   UNL     1      10.864   5.519   2.014  0.00  0.00    +0.004 C 
ATOM     18  C   UNL     1      10.453   6.376   0.815  0.00  0.00    +0.000 C 
ENDBRANCH   8  18
ENDBRANCH   2  14
ENDBRANCH   1   5
BRANCH   1  19
ATOM     19  C   UNL     1       0.002  -0.004  -0.005  0.00  0.00    +0.173 C 
BRANCH  19  20
ATOM     20  C   UNL     1      -1.411  -0.526   0.015  0.00  0.00    +0.227 C 
ATOM     21  O   UNL     1      -2.344   0.250   0.037  0.00  0.00    -0.275 OA
ATOM     22  N   UNL     1      -1.640  -1.854   0.008  0.00  0.00    -0.285 N 
ATOM     23  H   UNL     1      -0.898  -2.473  -0.077  0.00  0.00    +0.155 HD
BRANCH  22  24
ATOM     24  C   UNL     1      -2.949  -2.340   0.123  0.00  0.00    +0.035 A 
ATOM     25  C   UNL     1      -3.191  -3.523   0.812  0.00  0.00    +0.025 A 
ATOM     26  C   UNL     1      -4.479  -4.005   0.935  0.00  0.00    +0.029 A 
ATOM     27  C   UNL     1      -5.534  -3.313   0.359  0.00  0.00    +0.067 A 
ATOM     28  C   UNL     1      -5.293  -2.127  -0.338  0.00  0.00    +0.069 A 
ATOM     29  C   UNL     1      -3.999  -1.643  -0.455  0.00  0.00    +0.051 A 
ATOM     30  N   UNL     1      -6.528  -1.670  -0.794  0.00  0.00    -0.306 N 
ATOM     31  H   UNL     1      -6.678  -0.864  -1.312  0.00  0.00    +0.170 HD
ATOM     32  C   UNL     1      -7.476  -2.537  -0.392  0.00  0.00    +0.325 A 
ATOM     33  O   UNL     1      -8.666  -2.431  -0.624  0.00  0.00    -0.247 OA
ATOM     34  N   UNL     1      -6.909  -3.539   0.306  0.00  0.00    -0.306 N 
ATOM     35  H   UNL     1      -7.377  -4.290   0.703  0.00  0.00    +0.170 HD
ENDBRANCH  22  24
ENDBRANCH  19  20
ENDBRANCH   1  19
TORSDOF 6
