REMARK  Name = ZINC00924880
REMARK  8 active torsions:
REMARK  status: ('A' for Active; 'I' for Inactive)
REMARK    1  A    between atoms: C_1  and  O_2
REMARK    2  A    between atoms: O_2  and  C_3
REMARK    3  A    between atoms: C_10  and  C_15
REMARK    4  A    between atoms: C_15  and  N_16
REMARK    5  A    between atoms: N_16  and  C_17
REMARK    6  A    between atoms: N_16  and  S_24
REMARK    7  A    between atoms: C_17  and  C_18
REMARK    8  A    between atoms: S_24  and  C_27
REMARK                            x       y       z     vdW  Elec       q    Type
REMARK                         _______ _______ _______ _____ _____    ______ ____
ROOT
ATOM      1  N   UNL     1      -0.168   6.390  -1.532  0.00  0.00    -0.170 NA
ENDROOT
BRANCH   1   2
ATOM      2  S   UNL     1      -0.141   5.888   0.045  0.00  0.00    +0.061 S 
ATOM      3  O   UNL     1      -1.392   6.254   0.610  0.00  0.00    -0.153 OA
ATOM      4  O   UNL     1       1.098   6.324   0.589  0.00  0.00    -0.153 OA
BRANCH   2   5
ATOM      5  C   UNL     1      -0.091   4.126   0.030  0.00  0.00    +0.109 A 
ATOM      6  C   UNL     1      -1.269   3.403   0.035  0.00  0.00    +0.032 A 
ATOM      7  C   UNL     1      -1.234   2.021   0.030  0.00  0.00    +0.051 A 
ATOM      8  C   UNL     1      -0.016   1.357   0.009  0.00  0.00    +0.162 A 
ATOM      9  C   UNL     1       1.168   2.084   0.002  0.00  0.00    +0.164 A 
ATOM     10  C   UNL     1       1.126   3.471   0.014  0.00  0.00    +0.078 A 
ATOM     11  O   UNL     1       2.373   1.453  -0.018  0.00  0.00    -0.485 OA
ATOM     12  C   UNL     1       2.381   0.069   0.348  0.00  0.00    +0.270 C 
ATOM     13  C   UNL     1       1.229  -0.629  -0.390  0.00  0.00    +0.270 C 
ATOM     14  O   UNL     1       0.002  -0.004   0.002  0.00  0.00    -0.485 OA
ENDBRANCH   2   5
ENDBRANCH   1   2
BRANCH   1  15
ATOM     15  C   UNL     1      -1.449   6.576  -2.219  0.00  0.00    +0.150 C 
BRANCH  15  23
ATOM     16  C   UNL     1      -2.106  12.511  -3.886  0.00  0.00    +0.121 A 
ATOM     17  C   UNL     1      -2.791  12.913  -2.742  0.00  0.00    +0.047 A 
ATOM     18  C   UNL     1      -3.072  12.011  -1.739  0.00  0.00    +0.030 A 
ATOM     19  C   UNL     1      -2.671  10.685  -1.865  0.00  0.00    +0.049 A 
ATOM     20  C   UNL     1      -1.979  10.275  -3.019  0.00  0.00    +0.002 A 
ATOM     21  C   UNL     1      -1.699  11.200  -4.031  0.00  0.00    +0.055 A 
ATOM     22  C   UNL     1      -1.564   8.876  -3.139  0.00  0.00    +0.020 A 
ATOM     23  C   UNL     1      -1.862   8.023  -2.128  0.00  0.00    +0.033 A 
ATOM     24  C   UNL     1      -2.563   8.483  -0.993  0.00  0.00    +0.254 A 
ATOM     25  O   UNL     1      -2.826   7.698  -0.098  0.00  0.00    -0.268 OA
ATOM     26  N   UNL     1      -2.944   9.767  -0.871  0.00  0.00    -0.322 N 
ATOM     27  H   UNL     1      -3.432  10.060  -0.049  0.00  0.00    +0.169 HD
BRANCH  16  29
ATOM     28  C   UNL     1      -2.285  14.754  -4.654  0.00  0.00    +0.277 C 
ATOM     29  O   UNL     1      -1.837  13.414  -4.866  0.00  0.00    -0.495 OA
ENDBRANCH  16  29
ENDBRANCH  15  23
ENDBRANCH   1  15
BRANCH   1  30
ATOM     30  C   UNL     1       1.088   6.648  -2.241  0.00  0.00    +0.141 C 
BRANCH  30  31
ATOM     31  C   UNL     1       1.495   5.401  -3.028  0.00  0.00    +0.134 C 
ATOM     32  C   UNL     1       2.816   5.662  -3.777  0.00  0.00    +0.035 C 
ATOM     33  C   UNL     1       3.779   4.576  -3.239  0.00  0.00    +0.031 C 
ATOM     34  C   UNL     1       2.794   3.514  -2.685  0.00  0.00    +0.160 C 
ATOM     35  O   UNL     1       1.726   4.307  -2.124  0.00  0.00    -0.375 OA
ENDBRANCH  30  31
ENDBRANCH   1  30
TORSDOF 7
