REMARK  Name = ZINC41076950
REMARK  8 active torsions:
REMARK  status: ('A' for Active; 'I' for Inactive)
REMARK    1  A    between atoms: C_1  and  C_2
REMARK    2  A    between atoms: C_5  and  N_9
REMARK    3  A    between atoms: N_12  and  C_13
REMARK    4  A    between atoms: N_12  and  C_26
REMARK    5  A    between atoms: C_13  and  C_14
REMARK    6  A    between atoms: C_26  and  C_27
REMARK    7  A    between atoms: C_27  and  C_28
REMARK    8  A    between atoms: C_27  and  C_29
REMARK                            x       y       z     vdW  Elec       q    Type
REMARK                         _______ _______ _______ _____ _____    ______ ____
ROOT
ATOM      1  N   UNL     1       0.498  -4.344  -0.225  0.00  0.00    -0.269 N 
ATOM      2  C   UNL     1       0.377  -4.931   0.982  0.00  0.00    +0.307 C 
ATOM      3  O   UNL     1       0.336  -4.250   1.989  0.00  0.00    -0.252 OA
ATOM      4  N   UNL     1       0.300  -6.274   1.074  0.00  0.00    -0.281 N 
ATOM      5  H   UNL     1       0.459  -4.881  -1.032  0.00  0.00    +0.156 HD
ENDROOT
BRANCH   1  10
ATOM      6  C   UNL     1       1.238   1.271  -0.583  0.00  0.00    +0.047 C 
ATOM      7  C   UNL     1       1.041  -0.220  -0.488  0.00  0.00    -0.015 A 
ATOM      8  C   UNL     1       1.588  -0.923   0.569  0.00  0.00    +0.008 A 
ATOM      9  C   UNL     1       1.410  -2.289   0.659  0.00  0.00    +0.024 A 
ATOM     10  C   UNL     1       0.679  -2.959  -0.314  0.00  0.00    +0.038 A 
ATOM     11  C   UNL     1       0.129  -2.253  -1.375  0.00  0.00    +0.062 A 
ATOM     12  C   UNL     1       0.306  -0.883  -1.457  0.00  0.00    +0.128 A 
ATOM     13  F   UNL     1      -0.232  -0.193  -2.486  0.00  0.00    -0.205 F 
ENDBRANCH   1  10
BRANCH   4  14
ATOM     14  C   UNL     1       0.058  -6.907   2.372  0.00  0.00    +0.145 C 
BRANCH  14  15
ATOM     15  C   UNL     1      -1.423  -6.924   2.655  0.00  0.00    -0.016 A 
ATOM     16  C   UNL     1      -2.003  -5.931   3.372  0.00  0.00    +0.076 A 
ATOM     17  C   UNL     1      -3.390  -5.957   3.631  0.00  0.00    +0.249 A 
ATOM     18  O   UNL     1      -3.891  -5.054   4.277  0.00  0.00    -0.268 OA
ATOM     19  N   UNL     1      -4.173  -6.954   3.181  0.00  0.00    -0.322 N 
ATOM     20  H   UNL     1      -5.123  -6.941   3.376  0.00  0.00    +0.169 HD
ATOM     21  C   UNL     1      -3.644  -7.993   2.445  0.00  0.00    +0.049 A 
ATOM     22  C   UNL     1      -2.267  -8.011   2.155  0.00  0.00    +0.003 A 
ATOM     23  C   UNL     1      -1.727  -9.060   1.405  0.00  0.00    +0.010 A 
ATOM     24  C   UNL     1      -2.542 -10.059   0.953  0.00  0.00    +0.001 A 
ATOM     25  C   UNL     1      -3.901 -10.043   1.232  0.00  0.00    +0.002 A 
ATOM     26  C   UNL     1      -4.454  -9.024   1.980  0.00  0.00    +0.026 A 
ENDBRANCH  14  15
ENDBRANCH   4  14
BRANCH   4  27
ATOM     27  C   UNL     1       0.459  -7.100  -0.126  0.00  0.00    +0.112 C 
BRANCH  27  28
ATOM     28  C   UNL     1       1.948  -7.332  -0.392  0.00  0.00    +0.000 C 
ATOM     29  C   UNL     1       2.547  -8.155   0.749  0.00  0.00    +0.009 C 
ATOM     30  C   UNL     1       2.118  -8.088  -1.711  0.00  0.00    +0.009 C 
ENDBRANCH  27  28
ENDBRANCH   4  27
TORSDOF 5
