REMARK  Name = ZINC22156559
REMARK  11 active torsions:
REMARK  status: ('A' for Active; 'I' for Inactive)
REMARK    1  A    between atoms: C_1  and  C_2
REMARK    2  A    between atoms: C_2  and  C_3
REMARK    3  A    between atoms: C_3  and  N_4
REMARK    4  A    between atoms: N_4  and  C_5
REMARK    5  A    between atoms: C_5  and  C_6
REMARK    6  A    between atoms: N_8  and  C_9
REMARK    7  A    between atoms: C_14  and  C_15
REMARK    8  A    between atoms: C_16  and  C_18
REMARK    9  A    between atoms: C_18  and  S_19
REMARK   10  A    between atoms: S_19  and  C_20
REMARK   11  A    between atoms: C_23  and  C_26
REMARK                            x       y       z     vdW  Elec       q    Type
REMARK                         _______ _______ _______ _____ _____    ______ ____
ROOT
ATOM      1  N   UNL     1       2.407   1.044  -0.032  0.00  0.00    -0.292 N 
ATOM      2  C   UNL     1       2.907   0.613  -1.207  0.00  0.00    +0.226 C 
ATOM      3  O   UNL     1       2.424   1.000  -2.250  0.00  0.00    -0.275 OA
ENDROOT
BRANCH   1   4
ATOM      4  C   UNL     1       2.989   0.576   1.228  0.00  0.00    +0.108 C 
BRANCH   4   6
ATOM      5  C   UNL     1       2.879  -1.185   2.997  0.00  0.00    +0.005 C 
ATOM      6  C   UNL     1       2.270  -0.696   1.681  0.00  0.00    +0.016 C 
ENDBRANCH   4   6
ENDBRANCH   1   4
BRANCH   1   7
ATOM      7  C   UNL     1       1.280   1.980  -0.015  0.00  0.00    +0.203 C 
BRANCH   7   8
ATOM      8  C   UNL     1      -0.014   1.209   0.005  0.00  0.00    +0.235 C 
ATOM      9  O   UNL     1       0.003  -0.004   0.005  0.00  0.00    -0.274 OA
ATOM     10  N   UNL     1      -1.191   1.867   0.018  0.00  0.00    -0.284 N 
ATOM     11  H   UNL     1      -1.207   2.963   0.109  0.00  0.00    +0.155 HD
BRANCH  10  12
ATOM     12  C   UNL     1      -2.391   1.155  -0.086  0.00  0.00    +0.036 A 
ATOM     13  C   UNL     1      -2.411  -0.091  -0.699  0.00  0.00    +0.023 A 
ATOM     14  C   UNL     1      -3.596  -0.793  -0.796  0.00  0.00    +0.002 A 
ATOM     15  C   UNL     1      -4.765  -0.251  -0.292  0.00  0.00    +0.000 A 
ATOM     16  C   UNL     1      -4.750   0.992   0.314  0.00  0.00    +0.005 A 
ATOM     17  C   UNL     1      -3.566   1.696   0.418  0.00  0.00    -0.029 A 
ATOM     18  C   UNL     1      -3.551   3.051   1.078  0.00  0.00    +0.045 C 
ENDBRANCH  10  12
ENDBRANCH   7   8
ENDBRANCH   1   7
BRANCH   2  19
ATOM     19  C   UNL     1       4.066  -0.350  -1.224  0.00  0.00    +0.173 C 
BRANCH  19  20
ATOM     20  S   UNL     1       4.503  -0.737  -2.938  0.00  0.00    -0.077 S 
BRANCH  20  21
ATOM     21  C   UNL     1       5.844  -1.847  -2.668  0.00  0.00    +0.185 A 
ATOM     22  N   UNL     1       6.579  -2.478  -3.631  0.00  0.00    -0.201 NA
ATOM     23  H   UNL     1       6.007  -1.945  -0.487  0.00  0.00    +0.191 HD
ATOM     24  C   UNL     1       7.507  -3.235  -2.953  0.00  0.00    +0.182 A 
ATOM     25  N   UNL     1       7.303  -3.037  -1.671  0.00  0.00    -0.152 NA
ATOM     26  N   UNL     1       6.323  -2.224  -1.504  0.00  0.00    -0.253 N 
BRANCH  24  27
ATOM     27  C   UNL     1       8.540  -4.105  -3.554  0.00  0.00    +0.021 A 
ATOM     28  C   UNL     1       8.642  -4.216  -4.942  0.00  0.00    +0.013 A 
ATOM     29  C   UNL     1       9.610  -5.027  -5.497  0.00  0.00    +0.021 A 
ATOM     30  C   UNL     1      10.473  -5.738  -4.681  0.00  0.00    +0.041 A 
ATOM     31  C   UNL     1      10.373  -5.636  -3.303  0.00  0.00    +0.021 A 
ATOM     32  C   UNL     1       9.412  -4.825  -2.736  0.00  0.00    +0.013 A 
ATOM     33 CL   UNL     1      11.684  -6.762  -5.387  0.00  0.00    -0.084 Cl
ENDBRANCH  24  27
ENDBRANCH  20  21
ENDBRANCH  19  20
ENDBRANCH   2  19
TORSDOF 9
