REMARK  Name = ZINC12348183
REMARK  6 active torsions:
REMARK  status: ('A' for Active; 'I' for Inactive)
REMARK    1  A    between atoms: C_1  and  C_2
REMARK    2  A    between atoms: C_2  and  C_3
REMARK    3  A    between atoms: C_2  and  C_4
REMARK    4  A    between atoms: C_7  and  C_10
REMARK    5  A    between atoms: N_15  and  C_18
REMARK    6  A    between atoms: C_16  and  O_17
REMARK                            x       y       z     vdW  Elec       q    Type
REMARK                         _______ _______ _______ _____ _____    ______ ____
ROOT
ATOM      1  C   UNL     1       2.707  -1.868  -4.752  0.00  0.00    +0.092 C 
ATOM      2  C   UNL     1       2.718  -3.370  -4.763  0.00  0.00    +0.067 A 
ATOM      3  C   UNL     1       3.892  -4.112  -4.496  0.00  0.00    +0.153 A 
ATOM      4  N   UNL     1       3.603  -5.378  -4.568  0.00  0.00    -0.148 NA
ATOM      5  N   UNL     1       2.241  -5.500  -4.887  0.00  0.00    -0.199 N 
ATOM      6  C   UNL     1       1.721  -4.245  -5.002  0.00  0.00    +0.222 A 
ATOM      7  N   UNL     1       5.098  -3.461  -4.220  0.00  0.00    -0.301 N 
ATOM      8  C   UNL     1       5.200  -2.124  -4.512  0.00  0.00    +0.017 C 
ATOM      9  C   UNL     1       4.127  -1.346  -4.761  0.00  0.00    +0.024 C 
ATOM     10  C   UNL     1       4.285   0.024  -5.047  0.00  0.00    +0.162 C 
ATOM     11  O   UNL     1       3.300   0.698  -5.277  0.00  0.00    -0.292 OA
ATOM     12  C   UNL     1       5.640   0.672  -5.076  0.00  0.00    +0.080 C 
ATOM     13  C   UNL     1       6.571  -0.086  -4.123  0.00  0.00    +0.014 C 
ATOM     14  C   UNL     1       6.599  -1.550  -4.553  0.00  0.00    +0.051 C 
ATOM     15  H   UNL     1       5.844  -3.943  -3.830  0.00  0.00    +0.153 HD
ENDROOT
BRANCH   1  19
ATOM     16  C   UNL     1       0.707  -0.490  -1.238  0.00  0.00    -0.045 A 
ATOM     17  C   UNL     1       0.222  -0.151  -2.487  0.00  0.00    +0.004 A 
ATOM     18  C   UNL     1       0.869  -0.597  -3.624  0.00  0.00    +0.005 A 
ATOM     19  C   UNL     1       2.002  -1.381  -3.513  0.00  0.00    -0.035 A 
ATOM     20  C   UNL     1       2.488  -1.720  -2.263  0.00  0.00    +0.005 A 
ATOM     21  C   UNL     1       1.843  -1.270  -1.126  0.00  0.00    +0.004 A 
BRANCH  16  23
ATOM     22  C   UNL     1      -0.019   1.526   0.010  0.00  0.00    +0.012 C 
ATOM     23  C   UNL     1       0.002  -0.004   0.002  0.00  0.00    +0.013 C 
ATOM     24  C   UNL     1      -1.433  -0.534   0.013  0.00  0.00    +0.012 C 
ENDBRANCH  16  23
ENDBRANCH   1  19
BRANCH   5  25
ATOM     25  C   UNL     1       1.540  -6.701  -5.057  0.00  0.00    +0.069 A 
ATOM     26  C   UNL     1       0.210  -6.792  -4.665  0.00  0.00    +0.028 A 
ATOM     27  C   UNL     1      -0.479  -7.977  -4.834  0.00  0.00    +0.002 A 
ATOM     28  C   UNL     1       0.154  -9.072  -5.391  0.00  0.00    +0.000 A 
ATOM     29  C   UNL     1       1.478  -8.986  -5.782  0.00  0.00    +0.002 A 
ATOM     30  C   UNL     1       2.170  -7.801  -5.622  0.00  0.00    +0.028 A 
ENDBRANCH   5  25
BRANCH   6  31
ATOM     31  O   UNL     1       0.434  -3.933  -5.303  0.00  0.00    -0.492 OA
ATOM     32  H   UNL     1       0.264  -3.838  -6.250  0.00  0.00    +0.294 HD
ENDBRANCH   6  31
TORSDOF 4
