REMARK  Name = ZINC51235033
REMARK  5 active torsions:
REMARK  status: ('A' for Active; 'I' for Inactive)
REMARK    1  A    between atoms: C_8  and  C_10
REMARK    2  A    between atoms: C_13  and  N_16
REMARK    3  A    between atoms: N_19  and  C_20
REMARK    4  A    between atoms: C_20  and  C_21
REMARK    5  A    between atoms: C_21  and  C_22
REMARK                            x       y       z     vdW  Elec       q    Type
REMARK                         _______ _______ _______ _____ _____    ______ ____
ROOT
ATOM      1  C   UNL     1       3.628  -3.357  -0.034  0.00  0.00    +0.037 A 
ATOM      2  C   UNL     1       2.967  -4.575   0.139  0.00  0.00    +0.015 A 
ATOM      3  C   UNL     1       3.680  -5.753   0.118  0.00  0.00    +0.024 A 
ATOM      4  C   UNL     1       5.058  -5.730  -0.074  0.00  0.00    +0.035 A 
ATOM      5  C   UNL     1       5.719  -4.519  -0.245  0.00  0.00    +0.024 A 
ATOM      6  C   UNL     1       5.011  -3.338  -0.232  0.00  0.00    +0.015 A 
ENDROOT
BRANCH   1  14
ATOM      7  C   UNL     1      -0.025   1.363   0.159  0.00  0.00    +0.002 A 
ATOM      8  C   UNL     1       1.144   2.078  -0.056  0.00  0.00    +0.004 A 
ATOM      9  C   UNL     1       2.352   1.424  -0.182  0.00  0.00    +0.048 A 
ATOM     10  C   UNL     1       2.401   0.041  -0.094  0.00  0.00    +0.156 A 
ATOM     11  C   UNL     1       1.220  -0.687   0.124  0.00  0.00    +0.110 A 
ATOM     12  C   UNL     1       0.004  -0.010   0.250  0.00  0.00    +0.031 A 
ATOM     13  N   UNL     1       1.572  -1.998   0.165  0.00  0.00    -0.209 NA
ATOM     14  C   UNL     1       2.866  -2.092  -0.013  0.00  0.00    +0.228 A 
ATOM     15  O   UNL     1       3.400  -0.866  -0.173  0.00  0.00    -0.435 OA
ENDBRANCH   1  14
BRANCH   4  16
ATOM     16  N   UNL     1       5.778  -6.926  -0.094  0.00  0.00    -0.269 N 
ATOM     17  C   UNL     1       5.215  -8.044  -0.593  0.00  0.00    +0.304 C 
ATOM     18  O   UNL     1       4.117  -7.992  -1.114  0.00  0.00    -0.253 OA
ATOM     19  N   UNL     1       5.868  -9.221  -0.515  0.00  0.00    -0.299 N 
ATOM     20  H   UNL     1       6.684  -6.953   0.252  0.00  0.00    +0.156 HD
ATOM     21  H   UNL     1       6.743  -9.263  -0.099  0.00  0.00    +0.150 HD
BRANCH  19  22
ATOM     22  C   UNL     1       5.255 -10.436  -1.058  0.00  0.00    +0.112 C 
BRANCH  22  23
ATOM     23  C   UNL     1       6.197 -11.622  -0.842  0.00  0.00    +0.081 C 
BRANCH  23  24
ATOM     24  C   UNL     1       5.567 -12.872  -1.400  0.00  0.00    +0.080 A 
ATOM     25  N   UNL     1       5.672 -13.366  -2.608  0.00  0.00    -0.252 NA
ATOM     26  C   UNL     1       5.055 -14.479  -2.950  0.00  0.00    +0.119 A 
ATOM     27  C   UNL     1       4.308 -15.088  -1.993  0.00  0.00    +0.066 A 
ATOM     28  S   UNL     1       4.564 -13.976  -0.619  0.00  0.00    -0.081 S 
ENDBRANCH  23  24
ENDBRANCH  22  23
ENDBRANCH  19  22
ENDBRANCH   4  16
TORSDOF 5
