REMARK  Name = ZINC35312922
REMARK  11 active torsions:
REMARK  status: ('A' for Active; 'I' for Inactive)
REMARK    1  A    between atoms: C_1  and  C_2
REMARK    2  A    between atoms: C_5  and  N_9
REMARK    3  A    between atoms: C_6  and  C_8
REMARK    4  A    between atoms: N_9  and  C_10
REMARK    5  A    between atoms: C_10  and  N_12
REMARK    6  A    between atoms: N_12  and  C_13
REMARK    7  A    between atoms: C_13  and  C_14
REMARK    8  A    between atoms: C_14  and  N_15
REMARK    9  A    between atoms: C_17  and  C_28
REMARK   10  A    between atoms: C_21  and  C_27
REMARK   11  A    between atoms: C_22  and  C_26
REMARK                            x       y       z     vdW  Elec       q    Type
REMARK                         _______ _______ _______ _____ _____    ______ ____
ROOT
ATOM      1  C   UNL     1      -0.311  -8.413  -2.175  0.00  0.00    +0.121 C 
ENDROOT
BRANCH   1   2
ATOM      2  N   UNL     1      -0.418  -9.140  -3.443  0.00  0.00    -0.327 N 
ATOM      3  C   UNL     1      -0.504 -10.520  -3.443  0.00  0.00    +0.137 A 
ATOM      4  C   UNL     1      -0.602 -11.209  -4.676  0.00  0.00    +0.092 A 
ATOM      5  C   UNL     1      -0.688 -12.594  -4.677  0.00  0.00    +0.032 A 
ATOM      6  C   UNL     1      -0.674 -13.260  -3.438  0.00  0.00    +0.002 A 
ATOM      7  C   UNL     1      -0.758 -14.661  -3.366  0.00  0.00    +0.013 A 
ATOM      8  C   UNL     1      -0.742 -15.275  -2.151  0.00  0.00    -0.047 A 
ATOM      9  C   UNL     1      -0.644 -14.531  -0.976  0.00  0.00    -0.045 A 
ATOM     10  C   UNL     1      -0.562 -13.173  -1.010  0.00  0.00    +0.032 A 
ATOM     11  C   UNL     1      -0.575 -12.502  -2.244  0.00  0.00    +0.073 A 
ATOM     12  N   UNL     1      -0.489 -11.167  -2.298  0.00  0.00    -0.231 NA
ATOM     13  C   UNL     1      -0.629 -15.242   0.352  0.00  0.00    +0.044 C 
ATOM     14  C   UNL     1      -0.832 -16.777  -2.075  0.00  0.00    +0.044 C 
ATOM     15  H   UNL     1      -0.429  -8.653  -4.282  0.00  0.00    +0.148 HD
BRANCH   4  16
ATOM     16  C   UNL     1      -0.611 -10.483  -5.910  0.00  0.00    +0.103 C 
ATOM     17  N   UNL     1      -0.619  -9.908  -6.890  0.00  0.00    -0.191 NA
ENDBRANCH   4  16
ENDBRANCH   1   2
BRANCH   1  18
ATOM     18  C   UNL     1      -0.231  -6.910  -2.454  0.00  0.00    +0.122 C 
BRANCH  18  19
ATOM     19  N   UNL     1      -0.124  -6.183  -1.187  0.00  0.00    -0.325 N 
ATOM     20  H   UNL     1      -0.114  -6.670  -0.348  0.00  0.00    +0.148 HD
BRANCH  19  21
ATOM     21  C   UNL     1      -0.041  -4.838  -1.187  0.00  0.00    +0.135 C 
ATOM     22  S   UNL     1      -0.059  -3.979  -2.668  0.00  0.00    -0.019 S 
BRANCH  21  23
ATOM     23  N   UNL     1       0.058  -4.169  -0.021  0.00  0.00    -0.297 N 
ATOM     24  H   UNL     1       0.132  -4.658   0.814  0.00  0.00    +0.154 HD
BRANCH  23  29
ATOM     25  C   UNL     1       0.041   1.503   0.004  0.00  0.00    +0.044 C 
ATOM     26  C   UNL     1       0.045  -0.004  -0.003  0.00  0.00    -0.050 A 
ATOM     27  C   UNL     1       0.857  -0.687  -0.890  0.00  0.00    +0.005 A 
ATOM     28  C   UNL     1       0.863  -2.068  -0.898  0.00  0.00    +0.024 A 
ATOM     29  C   UNL     1       0.054  -2.771  -0.015  0.00  0.00    +0.036 A 
ATOM     30  C   UNL     1      -0.759  -2.081   0.875  0.00  0.00    -0.029 A 
ATOM     31  C   UNL     1      -0.757  -0.700   0.883  0.00  0.00    +0.008 A 
ATOM     32  C   UNL     1      -1.639  -2.839   1.836  0.00  0.00    +0.045 C 
ENDBRANCH  23  29
ENDBRANCH  21  23
ENDBRANCH  19  21
ENDBRANCH  18  19
ENDBRANCH   1  18
TORSDOF 7
