REMARK  Name = ZINC66406637
REMARK  3 active torsions:
REMARK  status: ('A' for Active; 'I' for Inactive)
REMARK    1  A    between atoms: C_8  and  C_10
REMARK    2  A    between atoms: C_11  and  C_16
REMARK    3  A    between atoms: N_22  and  C_23
REMARK                            x       y       z     vdW  Elec       q    Type
REMARK                         _______ _______ _______ _____ _____    ______ ____
ROOT
ATOM      1  C   UNL     1       3.594  -3.778  -0.552  0.00  0.00    +0.108 A 
ATOM      2  C   UNL     1       4.948  -3.532  -0.819  0.00  0.00    +0.024 A 
ATOM      3  C   UNL     1       5.696  -4.301   0.100  0.00  0.00    +0.142 A 
ATOM      4  N   UNL     1       4.866  -4.959   0.861  0.00  0.00    -0.181 NA
ATOM      5  H   UNL     1       2.749  -5.010   0.901  0.00  0.00    +0.189 HD
ATOM      6  N   UNL     1       3.552  -4.655   0.489  0.00  0.00    -0.273 N 
ENDROOT
BRANCH   1  14
ATOM      7  C   UNL     1      -1.344  -1.853  -3.450  0.00  0.00    +0.001 A 
ATOM      8  C   UNL     1      -0.687  -0.633  -3.360  0.00  0.00    +0.004 A 
ATOM      9  C   UNL     1       0.547  -0.541  -2.751  0.00  0.00    +0.047 A 
ATOM     10  C   UNL     1       1.143  -1.678  -2.219  0.00  0.00    +0.136 A 
ATOM     11  C   UNL     1       0.472  -2.911  -2.313  0.00  0.00    +0.021 A 
ATOM     12  C   UNL     1      -0.776  -2.984  -2.935  0.00  0.00    +0.011 A 
ATOM     13  C   UNL     1       1.350  -3.889  -1.671  0.00  0.00    +0.060 A 
ATOM     14  C   UNL     1       2.444  -3.197  -1.254  0.00  0.00    +0.154 A 
ATOM     15  O   UNL     1       2.311  -1.895  -1.582  0.00  0.00    -0.453 OA
ENDBRANCH   1  14
BRANCH   2  16
ATOM     16  C   UNL     1       5.484  -2.647  -1.853  0.00  0.00    +0.032 C 
ATOM     17  C   UNL     1       6.640  -2.972  -2.495  0.00  0.00    +0.080 C 
ATOM     18  C   UNL     1       7.435  -4.217  -2.440  0.00  0.00    +0.276 C 
ATOM     19  O   UNL     1       7.100  -5.165  -1.747  0.00  0.00    -0.267 OA
ATOM     20  N   UNL     1       8.523  -4.248  -3.179  0.00  0.00    -0.154 NA
ATOM     21  C   UNL     1       8.898  -3.229  -3.934  0.00  0.00    +0.152 C 
ATOM     22  N   UNL     1       9.998  -3.129  -4.745  0.00  0.00    -0.322 N 
ATOM     23  S   UNL     1       7.617  -2.017  -3.648  0.00  0.00    -0.052 S 
ATOM     24  H   UNL     1      10.156  -2.317  -5.251  0.00  0.00    +0.148 HD
BRANCH  22  25
ATOM     25  C   UNL     1      10.936  -4.250  -4.849  0.00  0.00    +0.072 C 
ATOM     26  C   UNL     1      12.009  -4.144  -3.746  0.00  0.00    +0.022 C 
ATOM     27  C   UNL     1      13.308  -4.635  -4.432  0.00  0.00    +0.002 C 
ATOM     28  C   UNL     1      13.181  -4.053  -5.861  0.00  0.00    +0.002 C 
ATOM     29  C   UNL     1      11.681  -4.192  -6.194  0.00  0.00    +0.022 C 
ENDBRANCH  22  25
ENDBRANCH   2  16
TORSDOF 3
