REMARK  Name = ZINC09294494
REMARK  11 active torsions:
REMARK  status: ('A' for Active; 'I' for Inactive)
REMARK    1  A    between atoms: C_1  and  C_2
REMARK    2  A    between atoms: C_2  and  S_3
REMARK    3  A    between atoms: S_3  and  C_4
REMARK    4  A    between atoms: C_8  and  C_10
REMARK    5  A    between atoms: C_10  and  N_12
REMARK    6  A    between atoms: N_14  and  C_26
REMARK    7  A    between atoms: C_18  and  S_22
REMARK    8  A    between atoms: S_22  and  N_25
REMARK    9  A    between atoms: C_26  and  C_27
REMARK   10  A    between atoms: C_27  and  O_28
REMARK   11  A    between atoms: O_28  and  C_29
REMARK                            x       y       z     vdW  Elec       q    Type
REMARK                         _______ _______ _______ _____ _____    ______ ____
ROOT
ATOM      1  N   UNL     1       0.050  -3.042   0.532  0.00  0.00    -0.152 NA
ATOM      2  C   UNL     1       0.106  -4.310   0.137  0.00  0.00    +0.167 A 
ATOM      3  N   UNL     1       1.206  -5.051  -0.164  0.00  0.00    -0.319 N 
ATOM      4  C   UNL     1       1.067  -6.368  -0.561  0.00  0.00    +0.058 A 
ATOM      5  C   UNL     1       2.072  -7.284  -0.910  0.00  0.00    +0.029 A 
ATOM      6  C   UNL     1       1.754  -8.567  -1.286  0.00  0.00    +0.030 A 
ATOM      7  C   UNL     1       0.439  -8.997  -1.332  0.00  0.00    +0.106 A 
ATOM      8  C   UNL     1      -0.573  -8.115  -0.993  0.00  0.00    +0.045 A 
ATOM      9  C   UNL     1      -0.256  -6.831  -0.617  0.00  0.00    +0.041 A 
ATOM     10  S   UNL     1      -1.204  -5.418  -0.112  0.00  0.00    -0.052 S 
ENDROOT
BRANCH   7  11
ATOM     11  S   UNL     1       0.056 -10.647  -1.817  0.00  0.00    +0.056 S 
ATOM     12  O   UNL     1       1.216 -11.426  -1.556  0.00  0.00    -0.153 OA
ATOM     13  O   UNL     1      -1.210 -10.954  -1.251  0.00  0.00    -0.153 OA
BRANCH  11  14
ATOM     14  N   UNL     1      -0.149 -10.639  -3.460  0.00  0.00    -0.204 NA
ATOM     15  H   UNL     1       0.063 -11.431  -3.979  0.00  0.00    +0.144 HD
ATOM     16  H   UNL     1      -0.481  -9.843  -3.904  0.00  0.00    +0.144 HD
ENDBRANCH  11  14
ENDBRANCH   7  11
BRANCH   1  17
ATOM     17  C   UNL     1       1.148  -2.281   0.495  0.00  0.00    +0.269 C 
ATOM     18  O   UNL     1       1.728  -2.100  -0.562  0.00  0.00    -0.268 OA
BRANCH  17  23
ATOM     19  C   UNL     1       3.276  -0.280   2.867  0.00  0.00    +0.009 A 
ATOM     20  C   UNL     1       2.608  -0.490   4.068  0.00  0.00    +0.015 A 
ATOM     21  C   UNL     1       1.474  -1.279   4.104  0.00  0.00    +0.002 A 
ATOM     22  C   UNL     1       0.997  -1.862   2.947  0.00  0.00    +0.013 A 
ATOM     23  C   UNL     1       1.659  -1.656   1.737  0.00  0.00    +0.040 A 
ATOM     24  C   UNL     1       2.804  -0.862   1.700  0.00  0.00    +0.027 A 
BRANCH  19  25
ATOM     25  S   UNL     1       4.722   0.727   2.827  0.00  0.00    -0.125 S 
BRANCH  25  27
ATOM     26  C   UNL     1       6.179   2.142   4.659  0.00  0.00    +0.015 C 
ATOM     27  C   UNL     1       4.941   1.249   4.550  0.00  0.00    +0.071 C 
ENDBRANCH  25  27
ENDBRANCH  19  25
ENDBRANCH  17  23
ENDBRANCH   1  17
BRANCH   3  28
ATOM     28  C   UNL     1       2.540  -4.454  -0.067  0.00  0.00    +0.152 C 
BRANCH  28  29
ATOM     29  C   UNL     1       3.011  -4.028  -1.459  0.00  0.00    +0.181 C 
BRANCH  29  30
ATOM     30  O   UNL     1       4.282  -3.382  -1.356  0.00  0.00    -0.381 OA
ATOM     31  C   UNL     1       4.814  -2.943  -2.607  0.00  0.00    +0.194 C 
ENDBRANCH  29  30
ENDBRANCH  28  29
ENDBRANCH   3  28
TORSDOF 9
