REMARK  Name = ZINC39770247
REMARK  11 active torsions:
REMARK  status: ('A' for Active; 'I' for Inactive)
REMARK    1  A    between atoms: C_1  and  C_2
REMARK    2  A    between atoms: C_2  and  C_3
REMARK    3  A    between atoms: C_3  and  N_4
REMARK    4  A    between atoms: C_5  and  N_25
REMARK    5  A    between atoms: C_6  and  C_14
REMARK    6  A    between atoms: C_7  and  C_13
REMARK    7  A    between atoms: C_8  and  C_11
REMARK    8  A    between atoms: N_18  and  C_22
REMARK    9  A    between atoms: C_22  and  C_23
REMARK   10  A    between atoms: C_22  and  C_24
REMARK   11  A    between atoms: N_28  and  C_31
REMARK                            x       y       z     vdW  Elec       q    Type
REMARK                         _______ _______ _______ _____ _____    ______ ____
ROOT
ATOM      1  N   UNL     1      -1.512  -2.269   0.488  0.00  0.00    -0.295 N 
ATOM      2  C   UNL     1      -1.394  -2.773  -0.768  0.00  0.00    +0.112 A 
ATOM      3  C   UNL     1      -1.776  -4.096  -1.044  0.00  0.00    +0.019 A 
ATOM      4  C   UNL     1      -2.282  -4.900  -0.008  0.00  0.00    -0.017 A 
ATOM      5  C   UNL     1      -2.392  -4.360   1.270  0.00  0.00    +0.120 A 
ATOM      6  C   UNL     1      -1.988  -3.019   1.498  0.00  0.00    +0.270 A 
ATOM      7  O   UNL     1      -2.077  -2.543   2.615  0.00  0.00    -0.266 OA
ATOM      8  C   UNL     1      -2.699  -6.323  -0.277  0.00  0.00    +0.046 C 
ENDROOT
BRANCH   3   9
ATOM      9  C   UNL     1      -1.648  -4.633  -2.400  0.00  0.00    +0.032 C 
ATOM     10  C   UNL     1      -0.763  -5.636  -2.654  0.00  0.00    +0.077 C 
ATOM     11  C   UNL     1       0.200  -6.238  -1.789  0.00  0.00    +0.259 C 
ATOM     12  O   UNL     1       0.324  -5.870  -0.635  0.00  0.00    -0.269 OA
ATOM     13  N   UNL     1       0.953  -7.208  -2.278  0.00  0.00    -0.253 N 
ATOM     14  C   UNL     1       0.815  -7.617  -3.559  0.00  0.00    +0.121 C 
ATOM     15  S   UNL     1       1.673  -8.841  -4.393  0.00  0.00    -0.027 S 
ATOM     16  S   UNL     1      -0.495  -6.561  -4.159  0.00  0.00    -0.061 S 
BRANCH  13  17
ATOM     17  C   UNL     1       1.951  -7.850  -1.419  0.00  0.00    +0.077 C 
ATOM     18  C   UNL     1       1.643  -9.344  -1.306  0.00  0.00    +0.028 C 
ATOM     19  C   UNL     1       3.343  -7.661  -2.027  0.00  0.00    +0.028 C 
ENDBRANCH  13  17
ENDBRANCH   3   9
BRANCH   2  20
ATOM     20  N   UNL     1      -0.902  -1.987  -1.769  0.00  0.00    -0.313 N 
ATOM     21  C   UNL     1       0.523  -2.033  -2.123  0.00  0.00    +0.125 C 
ATOM     22  C   UNL     1       0.647  -2.345  -3.619  0.00  0.00    +0.124 C 
ATOM     23  N   UNL     1      -0.239  -1.440  -4.363  0.00  0.00    -0.327 N 
ATOM     24  C   UNL     1      -1.665  -1.395  -4.009  0.00  0.00    +0.124 C 
ATOM     25  C   UNL     1      -1.790  -1.086  -2.517  0.00  0.00    +0.125 C 
BRANCH  23  26
ATOM     26  C   UNL     1       0.264  -0.635  -5.388  0.00  0.00    +0.030 A 
ATOM     27  C   UNL     1       1.583  -0.780  -5.802  0.00  0.00    +0.023 A 
ATOM     28  C   UNL     1       2.077   0.017  -6.816  0.00  0.00    +0.002 A 
ATOM     29  C   UNL     1       1.262   0.957  -7.419  0.00  0.00    +0.000 A 
ATOM     30  C   UNL     1      -0.051   1.103  -7.010  0.00  0.00    +0.002 A 
ATOM     31  C   UNL     1      -0.553   0.306  -6.000  0.00  0.00    +0.023 A 
ENDBRANCH  23  26
ENDBRANCH   2  20
BRANCH   5  32
ATOM     32  C   UNL     1      -2.904  -5.152   2.347  0.00  0.00    +0.105 C 
ATOM     33  N   UNL     1      -3.310  -5.781   3.202  0.00  0.00    -0.191 NA
ENDBRANCH   5  32
BRANCH   1  34
ATOM     34  C   UNL     1      -1.107  -0.885   0.749  0.00  0.00    +0.126 C 
BRANCH  34  36
ATOM     35  C   UNL     1       0.759   0.581   1.531  0.00  0.00    +0.005 C 
ATOM     36  C   UNL     1       0.336  -0.864   1.259  0.00  0.00    +0.018 C 
ENDBRANCH  34  36
ENDBRANCH   1  34
TORSDOF 7
