REMARK  Name = ZINC21739244
REMARK  11 active torsions:
REMARK  status: ('A' for Active; 'I' for Inactive)
REMARK    1  A    between atoms: C_1  and  C_2
REMARK    2  A    between atoms: C_2  and  O_3
REMARK    3  A    between atoms: O_3  and  C_4
REMARK    4  A    between atoms: C_9  and  C_10
REMARK    5  A    between atoms: N_12  and  C_13
REMARK    6  A    between atoms: C_13  and  C_14
REMARK    7  A    between atoms: C_14  and  O_16
REMARK    8  A    between atoms: O_16  and  C_17
REMARK    9  A    between atoms: C_17  and  C_18
REMARK   10  A    between atoms: N_20  and  N_21
REMARK   11  A    between atoms: C_27  and  C_30
REMARK                            x       y       z     vdW  Elec       q    Type
REMARK                         _______ _______ _______ _____ _____    ______ ____
ROOT
ATOM      1  C   UNL     1       1.280   1.980   0.001  0.00  0.00    +0.329 C 
ENDROOT
BRANCH   1   2
ATOM      2  C   UNL     1      -0.014   1.209   0.009  0.00  0.00    +0.267 C 
ATOM      3  O   UNL     1       0.002  -0.004   0.002  0.00  0.00    -0.271 OA
ATOM      4  N   UNL     1      -1.191   1.867   0.018  0.00  0.00    -0.221 N 
ATOM      5  H   UNL     1      -1.206   2.966   0.024  0.00  0.00    +0.174 HD
BRANCH   4   6
ATOM      6  N   UNL     1      -2.394   1.150   0.020  0.00  0.00    -0.137 N 
ATOM      7  C   UNL     1      -3.188   1.004   1.101  0.00  0.00    +0.263 C 
ATOM      8  O   UNL     1      -3.004   1.451   2.212  0.00  0.00    -0.271 OA
ATOM      9  C   UNL     1      -4.357   0.167   0.633  0.00  0.00    +0.114 C 
ATOM     10  C   UNL     1      -5.660   0.944   0.781  0.00  0.00    +0.035 C 
ATOM     11  C   UNL     1      -6.827   0.090   0.276  0.00  0.00    +0.006 C 
ATOM     12  C   UNL     1      -6.893  -1.208   1.083  0.00  0.00    -0.014 C 
ATOM     13  C   UNL     1      -5.589  -1.988   0.906  0.00  0.00    +0.006 C 
ATOM     14  C   UNL     1      -4.418  -1.143   1.412  0.00  0.00    +0.035 C 
ATOM     15  C   UNL     1      -8.066  -2.056   0.588  0.00  0.00    +0.007 C 
ATOM     16  N   UNL     1      -4.067  -0.090  -0.783  0.00  0.00    -0.284 N 
ATOM     17  C   UNL     1      -2.902   0.529  -1.052  0.00  0.00    +0.326 C 
ATOM     18  O   UNL     1      -2.369   0.522  -2.145  0.00  0.00    -0.251 OA
ATOM     19  H   UNL     1      -4.763  -0.692  -1.387  0.00  0.00    +0.151 HD
ENDBRANCH   4   6
ENDBRANCH   1   2
BRANCH   1  20
ATOM     20  O   UNL     1       2.397   1.051  -0.015  0.00  0.00    -0.454 OA
BRANCH  20  21
ATOM     21  C   UNL     1       3.630   1.581  -0.024  0.00  0.00    +0.325 C 
ATOM     22  O   UNL     1       3.772   2.781  -0.019  0.00  0.00    -0.249 OA
BRANCH  21  23
ATOM     23  C   UNL     1       4.837   0.680  -0.041  0.00  0.00    +0.225 C 
BRANCH  23  26
ATOM     24  C   UNL     1       7.264   0.899  -0.062  0.00  0.00    +0.248 C 
ATOM     25  O   UNL     1       7.344  -0.315  -0.070  0.00  0.00    -0.270 OA
ATOM     26  N   UNL     1       6.055   1.494  -0.048  0.00  0.00    -0.301 N 
ATOM     27  H   UNL     1       5.982   2.592  -0.041  0.00  0.00    +0.150 HD
BRANCH  24  33
ATOM     28  C   UNL     1       9.749   1.104  -0.085  0.00  0.00    +0.133 A 
ATOM     29  C   UNL     1      10.896   1.885  -0.092  0.00  0.00    +0.046 A 
ATOM     30  C   UNL     1      10.795   3.262  -0.085  0.00  0.00    +0.004 A 
ATOM     31  C   UNL     1       9.552   3.874  -0.070  0.00  0.00    +0.001 A 
ATOM     32  C   UNL     1       8.403   3.113  -0.067  0.00  0.00    +0.017 A 
ATOM     33  C   UNL     1       8.490   1.719  -0.070  0.00  0.00    +0.078 A 
BRANCH  28  34
ATOM     34  O   UNL     1       9.847  -0.249  -0.093  0.00  0.00    -0.491 OA
BRANCH  34  36
ATOM     35  C   UNL     1      11.072  -2.332  -0.116  0.00  0.00    +0.048 C 
ATOM     36  C   UNL     1      11.163  -0.804  -0.109  0.00  0.00    +0.226 C 
ENDBRANCH  34  36
ENDBRANCH  28  34
ENDBRANCH  24  33
ENDBRANCH  23  26
ENDBRANCH  21  23
ENDBRANCH  20  21
ENDBRANCH   1  20
TORSDOF 9
