REMARK  Name = ZINC32124137
REMARK  5 active torsions:
REMARK  status: ('A' for Active; 'I' for Inactive)
REMARK    1  A    between atoms: C_1  and  C_2
REMARK    2  A    between atoms: C_6  and  C_21
REMARK    3  A    between atoms: C_7  and  O_9
REMARK    4  A    between atoms: C_13  and  C_14
REMARK    5  A    between atoms: C_19  and  O_20
REMARK                            x       y       z     vdW  Elec       q    Type
REMARK                         _______ _______ _______ _____ _____    ______ ____
ROOT
ATOM      1  C   UNL     1       2.151   1.474  -1.255  0.00  0.00    +0.013 C 
ATOM      2  C   UNL     1       1.420   1.960  -0.001  0.00  0.00    -0.007 C 
ATOM      3  C   UNL     1       1.376   3.492   0.020  0.00  0.00    -0.066 C 
ATOM      4  N   UNL     1       0.699   3.919   1.271  0.00  0.00    +0.394 N 
ATOM      5  C   UNL     1      -0.697   3.457   1.284  0.00  0.00    -0.061 C 
ATOM      6  C   UNL     1      -0.714   1.923   1.282  0.00  0.00    +0.020 C 
ATOM      7  C   UNL     1      -0.017   1.425   0.010  0.00  0.00    +0.130 C 
ATOM      8  C   UNL     1       0.068   1.423   2.502  0.00  0.00    +0.095 C 
ATOM      9  N   UNL     1       1.437   1.958   2.444  0.00  0.00    -0.310 NA
ATOM     10  C   UNL     1       2.142   1.457   1.255  0.00  0.00    +0.090 C 
ATOM     11  C   UNL     1       1.418   3.429   2.456  0.00  0.00    +0.037 C 
ATOM     12  H   UNL     1       0.699   5.018   1.313  0.00  0.00    -0.079 HD
ENDROOT
BRANCH  11  13
ATOM     13  C   UNL     1       0.722   3.912   3.702  0.00  0.00    -0.006 A 
ATOM     14  C   UNL     1       0.677   3.109   4.825  0.00  0.00    +0.007 A 
ATOM     15  C   UNL     1       0.043   3.554   5.970  0.00  0.00    +0.000 A 
ATOM     16  C   UNL     1      -0.557   4.799   5.991  0.00  0.00    +0.004 A 
ATOM     17  C   UNL     1      -0.519   5.604   4.869  0.00  0.00    +0.045 A 
ATOM     18  C   UNL     1       0.121   5.162   3.721  0.00  0.00    +0.120 A 
BRANCH  18  19
ATOM     19  O   UNL     1       0.159   5.952   2.615  0.00  0.00    -0.507 OA
ATOM     20  H   UNL     1      -0.318   6.943   2.631  0.00  0.00    +0.292 HD
ENDBRANCH  18  19
ENDBRANCH  11  13
BRANCH   6  21
ATOM     21  C   UNL     1      -2.130   1.409   1.330  0.00  0.00    -0.039 A 
ATOM     22  C   UNL     1      -2.612   0.614   0.306  0.00  0.00    +0.004 A 
ATOM     23  C   UNL     1      -3.909   0.139   0.353  0.00  0.00    +0.000 A 
ATOM     24  C   UNL     1      -4.727   0.466   1.418  0.00  0.00    +0.000 A 
ATOM     25  C   UNL     1      -4.247   1.264   2.439  0.00  0.00    +0.000 A 
ATOM     26  C   UNL     1      -2.949   1.736   2.395  0.00  0.00    +0.004 A 
ENDBRANCH   6  21
BRANCH   7  27
ATOM     27  O   UNL     1       0.002  -0.004   0.002  0.00  0.00    -0.390 OA
ATOM     28  H   UNL     1      -0.943  -0.567   0.008  0.00  0.00    +0.210 HD
ENDBRANCH   7  27
TORSDOF 4
