REMARK  Name = ZINC13723992
REMARK  6 active torsions:
REMARK  status: ('A' for Active; 'I' for Inactive)
REMARK    1  A    between atoms: C_3  and  C_9
REMARK    2  A    between atoms: C_12  and  C_14
REMARK    3  A    between atoms: C_14  and  N_43
REMARK    4  A    between atoms: C_15  and  C_16
REMARK    5  A    between atoms: C_15  and  N_43
REMARK    6  A    between atoms: C_16  and  C_17
REMARK                            x       y       z     vdW  Elec       q    Type
REMARK                         _______ _______ _______ _____ _____    ______ ____
ROOT
ATOM      1  C   UNL     1      -1.305   2.118   0.020  0.00  0.00    +0.136 A 
ATOM      2  C   UNL     1      -1.649   3.121   0.870  0.00  0.00    +0.050 A 
ATOM      3  C   UNL     1      -2.957   3.516   0.524  0.00  0.00    +0.043 A 
ATOM      4  C   UNL     1      -3.342   2.743  -0.510  0.00  0.00    +0.089 A 
ATOM      5  O   UNL     1      -2.339   1.903  -0.816  0.00  0.00    -0.462 OA
ENDROOT
BRANCH   1   8
ATOM      6  C   UNL     1       2.385   1.419  -0.014  0.00  0.00    +0.015 A 
ATOM      7  C   UNL     1       1.186   2.101   0.002  0.00  0.00    +0.014 A 
ATOM      8  C   UNL     1      -0.017   1.393   0.010  0.00  0.00    +0.036 A 
ATOM      9  C   UNL     1       0.002  -0.004   0.002  0.00  0.00    +0.053 A 
ATOM     10  C   UNL     1       1.209  -0.674  -0.013  0.00  0.00    +0.035 A 
ATOM     11  C   UNL     1       2.397   0.035  -0.021  0.00  0.00    +0.015 A 
ATOM     12  I   UNL     1       4.224  -0.991  -0.044  0.00  0.00    -0.044 I 
ATOM     13 CL   UNL     1      -1.488  -0.895   0.011  0.00  0.00    -0.083 Cl
ENDBRANCH   1   8
BRANCH   4  14
ATOM     14  C   UNL     1      -4.674   2.813  -1.211  0.00  0.00    -0.007 C 
BRANCH  14  15
ATOM     15  N   UNL     1      -4.582   3.770  -2.329  0.00  0.00    +0.384 N 
ATOM     16  H   UNL     1      -3.858   3.455  -2.986  0.00  0.00    -0.085 HD
ATOM     17  H   UNL     1      -4.332   4.696  -1.963  0.00  0.00    -0.085 HD
BRANCH  15  18
ATOM     18  C   UNL     1      -5.874   3.859  -3.035  0.00  0.00    -0.078 C 
BRANCH  18  19
ATOM     19  C   UNL     1      -5.748   4.858  -4.188  0.00  0.00    +0.011 C 
BRANCH  19  20
ATOM     20  C   UNL     1      -7.065   4.955  -4.914  0.00  0.00    -0.075 C 
ATOM     21  C   UNL     1      -7.878   5.903  -4.574  0.00  0.00    -0.028 C 
ATOM     22  C   UNL     1      -9.225   6.120  -5.199  0.00  0.00    +0.027 C 
ATOM     23  C   UNL     1      -9.316   5.371  -6.530  0.00  0.00    +0.004 C 
ATOM     24  C   UNL     1      -8.849   3.927  -6.306  0.00  0.00    +0.005 C 
ATOM     25  C   UNL     1      -7.350   3.949  -5.991  0.00  0.00    +0.030 C 
ENDBRANCH  19  20
ENDBRANCH  18  19
ENDBRANCH  15  18
ENDBRANCH  14  15
ENDBRANCH   4  14
TORSDOF 6
