REMARK  Name = ZINC15346188
REMARK  11 active torsions:
REMARK  status: ('A' for Active; 'I' for Inactive)
REMARK    1  A    between atoms: C_1  and  N_57
REMARK    2  A    between atoms: C_2  and  N_57
REMARK    3  A    between atoms: C_3  and  C_5
REMARK    4  A    between atoms: C_3  and  C_24
REMARK    5  A    between atoms: C_3  and  N_57
REMARK    6  A    between atoms: C_5  and  N_6
REMARK    7  A    between atoms: C_9  and  C_16
REMARK    8  A    between atoms: C_19  and  O_22
REMARK    9  A    between atoms: O_22  and  C_23
REMARK   10  A    between atoms: C_27  and  O_30
REMARK   11  A    between atoms: O_30  and  C_31
REMARK                            x       y       z     vdW  Elec       q    Type
REMARK                         _______ _______ _______ _____ _____    ______ ____
ROOT
ATOM      1  N   UNL     1      -2.471   1.688  -0.046  0.00  0.00    -0.330 N 
ATOM      2  C   UNL     1      -2.093   1.023  -1.199  0.00  0.00    +0.131 A 
ATOM      3  C   UNL     1      -0.771   0.524  -1.341  0.00  0.00    +0.055 A 
ATOM      4  C   UNL     1       0.354   0.593  -0.414  0.00  0.00    +0.002 A 
ATOM      5  C   UNL     1       1.535   0.041  -0.781  0.00  0.00    +0.056 A 
ATOM      6  S   UNL     1       1.203  -0.608  -2.408  0.00  0.00    -0.076 S 
ATOM      7  C   UNL     1      -0.498  -0.131  -2.560  0.00  0.00    +0.114 A 
ATOM      8  N   UNL     1      -1.423  -0.265  -3.490  0.00  0.00    -0.228 NA
ATOM      9  C   UNL     1      -2.637   0.215  -3.299  0.00  0.00    +0.224 A 
ATOM     10  N   UNL     1      -2.962   0.840  -2.181  0.00  0.00    -0.220 NA
ATOM     11  H   UNL     1      -1.862   1.736   0.707  0.00  0.00    +0.147 HD
ENDROOT
BRANCH   4  12
ATOM     12  C   UNL     1       0.207   1.253   0.904  0.00  0.00    -0.016 A 
ATOM     13  C   UNL     1      -0.096   2.612   0.975  0.00  0.00    +0.012 A 
ATOM     14  C   UNL     1      -0.236   3.223   2.204  0.00  0.00    +0.046 A 
ATOM     15  C   UNL     1      -0.067   2.488   3.369  0.00  0.00    +0.120 A 
ATOM     16  C   UNL     1       0.239   1.135   3.303  0.00  0.00    +0.046 A 
ATOM     17  C   UNL     1       0.376   0.518   2.077  0.00  0.00    +0.012 A 
BRANCH  15  18
ATOM     18  O   UNL     1      -0.201   3.094   4.579  0.00  0.00    -0.495 OA
ATOM     19  C   UNL     1      -0.517   4.487   4.575  0.00  0.00    +0.277 C 
ENDBRANCH  15  18
ENDBRANCH   4  12
BRANCH   1  20
ATOM     20  C   UNL     1      -3.790   2.319   0.037  0.00  0.00    +0.092 C 
BRANCH  20  21
ATOM     21  C   UNL     1      -4.845   1.256   0.351  0.00  0.00    -0.021 C 
BRANCH  21  22
ATOM     22  C   UNL     1      -4.597   0.694   1.727  0.00  0.00    -0.059 A 
ATOM     23  C   UNL     1      -4.974   1.415   2.845  0.00  0.00    +0.005 A 
ATOM     24  C   UNL     1      -4.753   0.899   4.108  0.00  0.00    +0.046 A 
ATOM     25  C   UNL     1      -4.141  -0.338   4.253  0.00  0.00    +0.120 A 
ATOM     26  C   UNL     1      -3.759  -1.057   3.130  0.00  0.00    +0.046 A 
ATOM     27  C   UNL     1      -3.988  -0.539   1.870  0.00  0.00    +0.005 A 
BRANCH  25  28
ATOM     28  O   UNL     1      -3.917  -0.845   5.494  0.00  0.00    -0.495 OA
ATOM     29  C   UNL     1      -4.337  -0.050   6.605  0.00  0.00    +0.277 C 
ENDBRANCH  25  28
ENDBRANCH  21  22
BRANCH  21  32
ATOM     30  C   UNL     1      -6.457   2.429  -1.024  0.00  0.00    -0.096 C 
ATOM     31  C   UNL     1      -7.215   0.892   0.687  0.00  0.00    -0.096 C 
ATOM     32  N   UNL     1      -6.182   1.885   0.323  0.00  0.00    +0.382 N 
ATOM     33  H   UNL     1      -6.204   2.653   1.004  0.00  0.00    -0.082 HD
ENDBRANCH  21  32
ENDBRANCH  20  21
ENDBRANCH   1  20
TORSDOF 7
