REMARK  Name = ZINC52455770
REMARK  4 active torsions:
REMARK  status: ('A' for Active; 'I' for Inactive)
REMARK    1  A    between atoms: C_1  and  C_2
REMARK    2  A    between atoms: C_4  and  C_7
REMARK    3  A    between atoms: C_7  and  N_8
REMARK    4  A    between atoms: C_12  and  C_14
REMARK                            x       y       z     vdW  Elec       q    Type
REMARK                         _______ _______ _______ _____ _____    ______ ____
ROOT
ATOM      1  N   UNL     1       1.428  -3.695  -1.929  0.00  0.00    +0.389 N 
ATOM      2  C   UNL     1       2.067  -2.635  -2.731  0.00  0.00    -0.077 C 
ATOM      3  C   UNL     1       2.523  -3.279  -4.058  0.00  0.00    -0.020 C 
ATOM      4  C   UNL     1       2.627  -4.785  -3.698  0.00  0.00    -0.013 C 
ATOM      5  C   UNL     1       1.448  -4.952  -2.707  0.00  0.00    -0.037 C 
ATOM      6  H   UNL     1       1.939  -3.821  -1.068  0.00  0.00    -0.080 HD
ENDROOT
BRANCH   5   7
ATOM      7  C   UNL     1       1.690  -6.128  -1.798  0.00  0.00    -0.058 A 
ATOM      8  C   UNL     1       2.598  -6.024  -0.760  0.00  0.00    +0.002 A 
ATOM      9  C   UNL     1       2.821  -7.103   0.076  0.00  0.00    +0.003 A 
ATOM     10  C   UNL     1       2.137  -8.287  -0.126  0.00  0.00    +0.038 A 
ATOM     11  C   UNL     1       1.228  -8.392  -1.165  0.00  0.00    +0.124 A 
ATOM     12  C   UNL     1       1.001  -7.309  -1.998  0.00  0.00    +0.040 A 
ATOM     13  F   UNL     1       0.560  -9.550  -1.364  0.00  0.00    -0.205 F 
ENDBRANCH   5   7
BRANCH   1  14
ATOM     14  C   UNL     1       0.039  -3.320  -1.631  0.00  0.00    +0.001 C 
BRANCH  14  18
ATOM     15  C   UNL     1      -0.018   1.503   0.010  0.00  0.00    +0.069 C 
ATOM     16  C   UNL     1       0.002  -0.004   0.002  0.00  0.00    +0.081 A 
ATOM     17  C   UNL     1       0.008  -0.824  -1.141  0.00  0.00    +0.068 A 
ATOM     18  C   UNL     1       0.027  -2.108  -0.735  0.00  0.00    +0.121 A 
ATOM     19  O   UNL     1       0.034  -2.119   0.606  0.00  0.00    -0.361 OA
ATOM     20  N   UNL     1       0.023  -0.775   1.052  0.00  0.00    -0.083 NA
ENDBRANCH  14  18
ENDBRANCH   1  14
TORSDOF 3
