REMARK  Name = ZINC37294480
REMARK  8 active torsions:
REMARK  status: ('A' for Active; 'I' for Inactive)
REMARK    1  A    between atoms: C_1  and  C_2
REMARK    2  A    between atoms: C_2  and  C_3
REMARK    3  A    between atoms: C_9  and  N_11
REMARK    4  A    between atoms: N_11  and  C_12
REMARK    5  A    between atoms: C_12  and  C_14
REMARK    6  A    between atoms: C_12  and  C_15
REMARK    7  A    between atoms: C_19  and  S_21
REMARK    8  A    between atoms: S_21  and  N_24
REMARK                            x       y       z     vdW  Elec       q    Type
REMARK                         _______ _______ _______ _____ _____    ______ ____
ROOT
ATOM      1  C   UNL     1       1.549  -3.861   0.165  0.00  0.00    -0.044 C 
ATOM      2  C   UNL     1       2.357  -4.262   1.402  0.00  0.00    -0.009 C 
ENDROOT
BRANCH   1   3
ATOM      3  C   UNL     1       0.161  -4.438   0.264  0.00  0.00    -0.060 A 
ATOM      4  C   UNL     1      -0.795  -3.812   1.042  0.00  0.00    +0.002 A 
ATOM      5  C   UNL     1      -2.068  -4.341   1.132  0.00  0.00    +0.002 A 
ATOM      6  C   UNL     1      -2.387  -5.497   0.444  0.00  0.00    +0.028 A 
ATOM      7  C   UNL     1      -1.432  -6.123  -0.335  0.00  0.00    +0.105 A 
ATOM      8  C   UNL     1      -0.159  -5.591  -0.428  0.00  0.00    +0.030 A 
BRANCH   7   9
ATOM      9  S   UNL     1      -1.838  -7.596  -1.212  0.00  0.00    +0.056 S 
ATOM     10  O   UNL     1      -0.616  -8.287  -1.432  0.00  0.00    -0.153 OA
ATOM     11  O   UNL     1      -2.934  -8.187  -0.528  0.00  0.00    -0.153 OA
BRANCH   9  12
ATOM     12  N   UNL     1      -2.399  -7.141  -2.701  0.00  0.00    -0.204 NA
ATOM     13  H   UNL     1      -2.450  -6.200  -2.934  0.00  0.00    +0.144 HD
ATOM     14  H   UNL     1      -2.678  -7.814  -3.341  0.00  0.00    +0.144 HD
ENDBRANCH   9  12
ENDBRANCH   7   9
ENDBRANCH   1   3
BRANCH   1  15
ATOM     15  N   UNL     1       1.467  -2.397   0.088  0.00  0.00    +0.385 N 
ATOM     16  H   UNL     1       2.396  -2.005   0.116  0.00  0.00    -0.085 HD
ATOM     17  H   UNL     1       0.932  -2.048   0.870  0.00  0.00    -0.085 HD
BRANCH  15  23
ATOM     18  C   UNL     1       0.593  -0.494  -1.183  0.00  0.00    -0.025 C 
ATOM     19  C   UNL     1      -0.092  -0.090  -2.490  0.00  0.00    +0.002 C 
ATOM     20  C   UNL     1       0.791  -0.492  -3.673  0.00  0.00    +0.000 C 
ATOM     21  C   UNL     1       1.007  -2.007  -3.658  0.00  0.00    -0.002 C 
ATOM     22  C   UNL     1       1.692  -2.410  -2.350  0.00  0.00    -0.015 C 
ATOM     23  C   UNL     1       0.809  -2.009  -1.167  0.00  0.00    -0.068 C 
BRANCH  18  25
ATOM     24  C   UNL     1      -0.404   1.432   0.058  0.00  0.00    +0.004 C 
ATOM     25  C   UNL     1      -0.290  -0.093   0.001  0.00  0.00    -0.002 C 
ENDBRANCH  18  25
ENDBRANCH  15  23
ENDBRANCH   1  15
TORSDOF 6
