REMARK  Name = ZINC37142071
REMARK  4 active torsions:
REMARK  status: ('A' for Active; 'I' for Inactive)
REMARK    1  A    between atoms: C_6  and  O_7
REMARK    2  A    between atoms: C_10  and  N_12
REMARK    3  A    between atoms: N_12  and  C_13
REMARK    4  A    between atoms: C_18  and  C_21
REMARK                            x       y       z     vdW  Elec       q    Type
REMARK                         _______ _______ _______ _____ _____    ______ ____
ROOT
ATOM      1  N   UNL     1       4.209   2.358  -1.350  0.00  0.00    +0.388 N 
ATOM      2  H   UNL     1       4.197   1.584  -1.997  0.00  0.00    -0.084 HD
ATOM      3  H   UNL     1       3.562   3.067  -1.662  0.00  0.00    -0.084 HD
ENDROOT
BRANCH   1  12
ATOM      4  C   UNL     1      -0.017   1.383   0.010  0.00  0.00    +0.046 A 
ATOM      5  C   UNL     1       1.175   2.085   0.002  0.00  0.00    +0.009 A 
ATOM      6  C   UNL     1       2.374   1.408  -0.015  0.00  0.00    -0.016 A 
ATOM      7  C   UNL     1       2.408   0.018  -0.030  0.00  0.00    +0.126 A 
ATOM      8  C   UNL     1       1.208  -0.685  -0.017  0.00  0.00    +0.091 A 
ATOM      9  C   UNL     1       0.002  -0.004   0.002  0.00  0.00    +0.120 A 
ATOM     10  O   UNL     1       3.689  -0.443  -0.068  0.00  0.00    -0.493 OA
ATOM     11  C   UNL     1       4.580   0.599   0.366  0.00  0.00    +0.218 C 
ATOM     12  C   UNL     1       3.813   1.887  -0.016  0.00  0.00    +0.001 C 
BRANCH   9  13
ATOM     13  O   UNL     1      -1.167  -0.697   0.014  0.00  0.00    -0.507 OA
ATOM     14  H   UNL     1      -1.517  -0.893  -0.866  0.00  0.00    +0.292 HD
ENDBRANCH   9  13
ENDBRANCH   1  12
BRANCH   1  15
ATOM     15  C   UNL     1       5.563   2.924  -1.288  0.00  0.00    -0.070 C 
ATOM     16  C   UNL     1       5.553   4.173  -0.404  0.00  0.00    -0.016 C 
ATOM     17  C   UNL     1       6.964   4.763  -0.339  0.00  0.00    -0.001 C 
ATOM     18  C   UNL     1       7.424   5.139  -1.749  0.00  0.00    +0.012 C 
ATOM     19  C   UNL     1       7.434   3.890  -2.632  0.00  0.00    +0.092 C 
ATOM     20  C   UNL     1       6.024   3.300  -2.697  0.00  0.00    -0.004 C 
BRANCH  19  21
ATOM     21  C   UNL     1       7.895   4.266  -4.042  0.00  0.00    +0.393 C 
ATOM     22  F   UNL     1       9.184   4.805  -3.983  0.00  0.00    -0.170 F 
ATOM     23  F   UNL     1       7.903   3.124  -4.850  0.00  0.00    -0.170 F 
ATOM     24  F   UNL     1       7.018   5.213  -4.582  0.00  0.00    -0.170 F 
ENDBRANCH  19  21
ENDBRANCH   1  15
TORSDOF 4
