REMARK  Name = ZINC13567325
REMARK  8 active torsions:
REMARK  status: ('A' for Active; 'I' for Inactive)
REMARK    1  A    between atoms: C_1  and  O_2
REMARK    2  A    between atoms: O_2  and  C_3
REMARK    3  A    between atoms: C_5  and  C_17
REMARK    4  A    between atoms: C_8  and  O_9
REMARK    5  A    between atoms: O_9  and  C_10
REMARK    6  A    between atoms: C_10  and  C_11
REMARK    7  A    between atoms: C_29  and  S_31
REMARK    8  A    between atoms: S_31  and  C_32
REMARK                            x       y       z     vdW  Elec       q    Type
REMARK                         _______ _______ _______ _____ _____    ______ ____
ROOT
ATOM      1  C   UNL     1       0.626  -0.619   1.042  0.00  0.00    +0.162 A 
ATOM      2  C   UNL     1       1.202   0.137   2.051  0.00  0.00    +0.053 A 
ATOM      3  C   UNL     1       1.836  -0.490   3.108  0.00  0.00    -0.036 A 
ATOM      4  C   UNL     1       1.897  -1.870   3.161  0.00  0.00    +0.008 A 
ATOM      5  C   UNL     1       1.325  -2.630   2.158  0.00  0.00    +0.050 A 
ATOM      6  C   UNL     1       0.683  -2.008   1.099  0.00  0.00    +0.162 A 
ENDROOT
BRANCH   3   7
ATOM      7  C   UNL     1       2.462   0.334   4.204  0.00  0.00    +0.066 C 
ATOM      8  C   UNL     1       3.959   0.031   4.277  0.00  0.00    +0.109 C 
ATOM      9  C   UNL     1       4.175  -1.341   4.857  0.00  0.00    +0.219 C 
ATOM     10  O   UNL     1       5.096  -2.022   4.459  0.00  0.00    -0.275 OA
ATOM     11  N   UNL     1       3.358  -1.822   5.812  0.00  0.00    -0.270 N 
ATOM     12  C   UNL     1       2.289  -1.072   6.271  0.00  0.00    +0.137 A 
ATOM     13  C   UNL     1       1.816  -0.009   5.519  0.00  0.00    +0.065 A 
ATOM     14  C   UNL     1       0.736   0.737   5.999  0.00  0.00    +0.258 A 
ATOM     15  O   UNL     1       0.297   1.679   5.359  0.00  0.00    -0.267 OA
ATOM     16  N   UNL     1       0.188   0.394   7.184  0.00  0.00    -0.302 N 
ATOM     17  H   UNL     1      -0.562   0.898   7.535  0.00  0.00    +0.171 HD
ATOM     18  C   UNL     1       0.688  -0.660   7.888  0.00  0.00    +0.171 A 
ATOM     19  N   UNL     1       1.706  -1.367   7.438  0.00  0.00    -0.208 NA
ATOM     20  H   UNL     1       3.520  -2.704   6.183  0.00  0.00    +0.156 HD
BRANCH  18  21
ATOM     21  S   UNL     1      -0.043  -1.089   9.432  0.00  0.00    -0.091 S 
ATOM     22  C   UNL     1       0.926  -2.516   9.995  0.00  0.00    +0.093 C 
ENDBRANCH  18  21
ENDBRANCH   3   7
BRANCH   1  24
ATOM     23  C   UNL     1      -0.017   1.425   0.010  0.00  0.00    +0.277 C 
ATOM     24  O   UNL     1       0.002  -0.004   0.002  0.00  0.00    -0.491 OA
ENDBRANCH   1  24
BRANCH   6  25
ATOM     25  O   UNL     1       0.115  -2.754   0.114  0.00  0.00    -0.484 OA
BRANCH  25  26
ATOM     26  C   UNL     1       0.211  -4.174   0.238  0.00  0.00    +0.264 C 
BRANCH  26  27
ATOM     27  C   UNL     1      -0.470  -4.829  -0.936  0.00  0.00    -0.010 A 
ATOM     28  C   UNL     1      -1.815  -5.141  -0.868  0.00  0.00    +0.007 A 
ATOM     29  C   UNL     1      -2.440  -5.741  -1.945  0.00  0.00    +0.000 A 
ATOM     30  C   UNL     1      -1.721  -6.029  -3.090  0.00  0.00    +0.000 A 
ATOM     31  C   UNL     1      -0.376  -5.716  -3.158  0.00  0.00    +0.000 A 
ATOM     32  C   UNL     1       0.248  -5.112  -2.083  0.00  0.00    +0.007 A 
ENDBRANCH  26  27
ENDBRANCH  25  26
ENDBRANCH   6  25
TORSDOF 6
