REMARK  Name = ZINC09542745
REMARK  8 active torsions:
REMARK  status: ('A' for Active; 'I' for Inactive)
REMARK    1  A    between atoms: C_1  and  C_2
REMARK    2  A    between atoms: C_2  and  O_3
REMARK    3  A    between atoms: O_3  and  C_4
REMARK    4  A    between atoms: C_8  and  C_11
REMARK    5  A    between atoms: C_9  and  O_10
REMARK    6  A    between atoms: C_14  and  C_26
REMARK    7  A    between atoms: C_16  and  C_18
REMARK    8  A    between atoms: C_29  and  C_32
REMARK                            x       y       z     vdW  Elec       q    Type
REMARK                         _______ _______ _______ _____ _____    ______ ____
ROOT
ATOM      1  C   UNL     1      -0.314  -6.430  -1.138  0.00  0.00    -0.028 C 
ATOM      2  C   UNL     1       0.049  -4.958  -1.347  0.00  0.00    +0.044 C 
ATOM      3  C   UNL     1       0.059  -4.249  -0.021  0.00  0.00    +0.040 C 
ATOM      4  N   UNL     1       0.078  -4.865   1.100  0.00  0.00    -0.299 NA
ATOM      5  C   UNL     1       0.088  -6.316   1.237  0.00  0.00    +0.081 C 
ATOM      6  N   UNL     1       0.497  -6.956  -0.022  0.00  0.00    +0.401 N 
ATOM      7  H   UNL     1       1.488  -6.758  -0.199  0.00  0.00    -0.081 HD
ATOM      8  H   UNL     1       0.358  -7.971   0.051  0.00  0.00    -0.081 HD
ENDROOT
BRANCH   5   9
ATOM      9  C   UNL     1      -1.292  -6.789   1.612  0.00  0.00    -0.039 A 
ATOM     10  C   UNL     1      -2.127  -5.970   2.350  0.00  0.00    +0.006 A 
ATOM     11  C   UNL     1      -3.393  -6.402   2.694  0.00  0.00    +0.040 A 
ATOM     12  C   UNL     1      -3.827  -7.656   2.299  0.00  0.00    +0.137 A 
ATOM     13  C   UNL     1      -2.991  -8.476   1.560  0.00  0.00    +0.053 A 
ATOM     14  C   UNL     1      -1.726  -8.039   1.212  0.00  0.00    +0.022 A 
ATOM     15 BR   UNL     1      -3.582 -10.190   1.019  0.00  0.00    -0.047 Br
ATOM     16  F   UNL     1      -5.066  -8.080   2.635  0.00  0.00    -0.204 F 
ENDBRANCH   5   9
BRANCH   3  17
ATOM     17  C   UNL     1       0.039  -2.773  -0.013  0.00  0.00    -0.004 A 
ATOM     18  C   UNL     1       0.041  -2.078   1.198  0.00  0.00    +0.010 A 
ATOM     19  C   UNL     1       0.023  -0.699   1.198  0.00  0.00    +0.004 A 
ATOM     20  C   UNL     1       0.002  -0.004   0.002  0.00  0.00    -0.050 A 
ATOM     21  C   UNL     1      -0.006  -0.686  -1.202  0.00  0.00    +0.004 A 
ATOM     22  C   UNL     1       0.018  -2.066  -1.217  0.00  0.00    +0.010 A 
ATOM     23  C   UNL     1      -0.018   1.503   0.010  0.00  0.00    +0.044 C 
ENDBRANCH   3  17
BRANCH   1  28
ATOM     24  C   UNL     1      -0.636  -7.925  -4.601  0.00  0.00    +0.162 A 
ATOM     25  C   UNL     1       0.539  -8.653  -4.692  0.00  0.00    +0.049 A 
ATOM     26  C   UNL     1       1.432  -8.660  -3.637  0.00  0.00    +0.004 A 
ATOM     27  C   UNL     1       1.158  -7.937  -2.491  0.00  0.00    +0.006 A 
ATOM     28  C   UNL     1      -0.016  -7.213  -2.391  0.00  0.00    -0.016 A 
ATOM     29  C   UNL     1      -0.915  -7.202  -3.445  0.00  0.00    +0.160 A 
BRANCH  29  30
ATOM     30  O   UNL     1      -2.067  -6.486  -3.351  0.00  0.00    -0.503 OA
ATOM     31  H   UNL     1      -1.991  -5.575  -3.666  0.00  0.00    +0.292 HD
ENDBRANCH  29  30
BRANCH  24  32
ATOM     32  O   UNL     1      -1.516  -7.918  -5.638  0.00  0.00    -0.489 OA
BRANCH  32  34
ATOM     33  C   UNL     1      -2.266  -8.553  -7.846  0.00  0.00    +0.048 C 
ATOM     34  C   UNL     1      -1.164  -8.683  -6.793  0.00  0.00    +0.226 C 
ENDBRANCH  32  34
ENDBRANCH  24  32
ENDBRANCH   1  28
TORSDOF 6
