REMARK  Name = ZINC08920269
REMARK  11 active torsions:
REMARK  status: ('A' for Active; 'I' for Inactive)
REMARK    1  A    between atoms: C_1  and  C_2
REMARK    2  A    between atoms: C_2  and  N_3
REMARK    3  A    between atoms: N_3  and  C_4
REMARK    4  A    between atoms: N_3  and  S_11
REMARK    5  A    between atoms: C_4  and  C_5
REMARK    6  A    between atoms: S_11  and  C_14
REMARK    7  A    between atoms: C_17  and  C_20
REMARK    8  A    between atoms: N_22  and  C_23
REMARK    9  A    between atoms: C_24  and  C_32
REMARK   10  A    between atoms: C_31  and  N_66
REMARK   11  A    between atoms: N_34  and  C_35
REMARK                            x       y       z     vdW  Elec       q    Type
REMARK                         _______ _______ _______ _____ _____    ______ ____
ROOT
ATOM      1  C   UNL     1      -1.187   1.624   0.017  0.00  0.00    +0.249 C 
ATOM      2  O   UNL     1      -1.204   2.839   0.023  0.00  0.00    -0.270 OA
ATOM      3  N   UNL     1      -0.011   0.966   0.007  0.00  0.00    -0.275 N 
ATOM      4  H   UNL     1       0.002  -0.004   0.002  0.00  0.00    +0.156 HD
ENDROOT
BRANCH   3   5
ATOM      5  C   UNL     1       1.179   1.675  -0.000  0.00  0.00    +0.085 A 
ATOM      6  C   UNL     1       2.478   1.181  -0.015  0.00  0.00    +0.068 A 
ATOM      7  C   UNL     1       3.560   2.147  -0.021  0.00  0.00    -0.027 A 
ATOM      8  C   UNL     1       3.177   3.444  -0.009  0.00  0.00    -0.021 A 
ATOM      9  S   UNL     1       1.409   3.393  -0.001  0.00  0.00    -0.079 S 
ATOM     10  C   UNL     1       4.081   4.637  -0.009  0.00  0.00    -0.036 C 
ATOM     11  C   UNL     1       5.827   3.025  -0.481  0.00  0.00    -0.074 C 
ATOM     12  C   UNL     1       5.041   1.787  -0.041  0.00  0.00    +0.018 C 
ATOM     13  C   UNL     1       6.412   5.277   0.190  0.00  0.00    -0.096 C 
ATOM     14  N   UNL     1       5.441   4.176   0.361  0.00  0.00    +0.381 N 
ATOM     15  H   UNL     1       5.438   3.884   1.346  0.00  0.00    -0.082 HD
BRANCH   6  16
ATOM     16  C   UNL     1       2.744  -0.261  -0.026  0.00  0.00    +0.246 C 
ATOM     17  O   UNL     1       2.844  -0.853  -1.084  0.00  0.00    -0.270 OA
ATOM     18  N   UNL     1       2.877  -0.929   1.137  0.00  0.00    -0.314 N 
ATOM     19  C   UNL     1       3.143  -2.370   1.126  0.00  0.00    +0.128 C 
ATOM     20  H   UNL     1       2.798  -0.457   1.980  0.00  0.00    +0.149 HD
ENDBRANCH   6  16
ENDBRANCH   3   5
BRANCH   1  24
ATOM     21  C   UNL     1      -4.836  -0.550   0.022  0.00  0.00    +0.106 A 
ATOM     22  C   UNL     1      -4.859   0.834   0.030  0.00  0.00    +0.029 A 
ATOM     23  C   UNL     1      -3.677   1.546   0.028  0.00  0.00    +0.015 A 
ATOM     24  C   UNL     1      -2.457   0.868   0.018  0.00  0.00    +0.037 A 
ATOM     25  C   UNL     1      -2.442  -0.528   0.005  0.00  0.00    +0.015 A 
ATOM     26  C   UNL     1      -3.631  -1.228   0.013  0.00  0.00    +0.029 A 
BRANCH  21  27
ATOM     27  S   UNL     1      -6.350  -1.451   0.023  0.00  0.00    +0.061 S 
ATOM     28  O   UNL     1      -6.059  -2.732   0.566  0.00  0.00    -0.153 OA
ATOM     29  O   UNL     1      -7.334  -0.592   0.584  0.00  0.00    -0.153 OA
BRANCH  27  30
ATOM     30  N   UNL     1      -6.778  -1.693  -1.558  0.00  0.00    -0.173 NA
BRANCH  30  32
ATOM     31  C   UNL     1      -6.727   0.268  -3.019  0.00  0.00    +0.022 C 
ATOM     32  C   UNL     1      -7.617  -0.710  -2.248  0.00  0.00    +0.106 C 
ENDBRANCH  30  32
BRANCH  30  33
ATOM     33  C   UNL     1      -6.318  -2.889  -2.267  0.00  0.00    +0.144 C 
BRANCH  33  34
ATOM     34  C   UNL     1      -7.380  -3.957  -2.192  0.00  0.00    -0.032 A 
ATOM     35  C   UNL     1      -7.377  -4.862  -1.148  0.00  0.00    +0.005 A 
ATOM     36  C   UNL     1      -8.353  -5.838  -1.076  0.00  0.00    +0.000 A 
ATOM     37  C   UNL     1      -9.327  -5.915  -2.055  0.00  0.00    +0.000 A 
ATOM     38  C   UNL     1      -9.326  -5.012  -3.102  0.00  0.00    +0.000 A 
ATOM     39  C   UNL     1      -8.353  -4.033  -3.171  0.00  0.00    +0.005 A 
ENDBRANCH  33  34
ENDBRANCH  30  33
ENDBRANCH  27  30
ENDBRANCH  21  27
ENDBRANCH   1  24
TORSDOF 8
