REMARK  Name = ZINC09209209
REMARK  7 active torsions:
REMARK  status: ('A' for Active; 'I' for Inactive)
REMARK    1  A    between atoms: C_1  and  C_2
REMARK    2  A    between atoms: C_2  and  C_4
REMARK    3  A    between atoms: C_2  and  S_13
REMARK    4  A    between atoms: N_9  and  C_10
REMARK    5  A    between atoms: C_10  and  C_11
REMARK    6  A    between atoms: C_10  and  C_12
REMARK    7  A    between atoms: S_13  and  C_14
REMARK                            x       y       z     vdW  Elec       q    Type
REMARK                         _______ _______ _______ _____ _____    ______ ____
ROOT
ATOM      1  C   UNL     1      -0.019   1.526   0.010  0.00  0.00    +0.029 C 
ATOM      2  C   UNL     1       0.002  -0.004   0.002  0.00  0.00    +0.137 C 
ENDROOT
BRANCH   2   3
ATOM      3  C   UNL     1       0.707  -0.490  -1.238  0.00  0.00    +0.233 C 
ATOM      4  O   UNL     1       0.067  -0.782  -2.225  0.00  0.00    -0.274 OA
ATOM      5  N   UNL     1       2.051  -0.601  -1.250  0.00  0.00    -0.239 N 
ATOM      6  C   UNL     1       2.682  -1.035  -2.358  0.00  0.00    +0.306 C 
ATOM      7  O   UNL     1       2.039  -1.327  -3.348  0.00  0.00    -0.252 OA
ATOM      8  N   UNL     1       4.025  -1.146  -2.370  0.00  0.00    -0.297 N 
ATOM      9  H   UNL     1       2.563  -0.367  -0.460  0.00  0.00    +0.159 HD
ATOM     10  H   UNL     1       4.537  -0.912  -1.580  0.00  0.00    +0.151 HD
BRANCH   8  11
ATOM     11  C   UNL     1       4.710  -1.618  -3.575  0.00  0.00    +0.068 C 
ATOM     12  C   UNL     1       4.946  -0.440  -4.523  0.00  0.00    +0.027 C 
ATOM     13  C   UNL     1       6.055  -2.237  -3.188  0.00  0.00    +0.027 C 
ENDBRANCH   8  11
ENDBRANCH   2   3
BRANCH   2  14
ATOM     14  S   UNL     1      -1.700  -0.632   0.015  0.00  0.00    -0.073 S 
BRANCH  14  15
ATOM     15  C   UNL     1      -2.335  -0.110   1.573  0.00  0.00    +0.192 A 
ATOM     16  N   UNL     1      -3.583  -0.420   1.905  0.00  0.00    -0.207 NA
ATOM     17  C   UNL     1      -4.114  -0.056   3.060  0.00  0.00    +0.129 A 
ATOM     18  C   UNL     1      -3.330   0.692   3.982  0.00  0.00    +0.047 A 
ATOM     19  C   UNL     1      -3.680   1.202   5.297  0.00  0.00    +0.021 A 
ATOM     20  C   UNL     1      -2.767   1.890   5.998  0.00  0.00    +0.048 A 
ATOM     21  S   UNL     1      -1.343   1.904   4.924  0.00  0.00    -0.077 S 
ATOM     22  C   UNL     1      -2.014   0.985   3.564  0.00  0.00    +0.114 A 
ATOM     23  N   UNL     1      -1.556   0.580   2.395  0.00  0.00    -0.215 NA
ATOM     24  N   UNL     1      -5.418  -0.398   3.368  0.00  0.00    -0.343 N 
ATOM     25  H   UNL     1      -5.948  -0.908   2.736  0.00  0.00    +0.144 HD
ATOM     26  H   UNL     1      -5.802  -0.128   4.217  0.00  0.00    +0.144 HD
ENDBRANCH  14  15
ENDBRANCH   2  14
TORSDOF 4
