REMARK  Name = ZINC06135181
REMARK  10 active torsions:
REMARK  status: ('A' for Active; 'I' for Inactive)
REMARK    1  A    between atoms: C_1  and  C_2
REMARK    2  A    between atoms: C_2  and  C_3
REMARK    3  A    between atoms: C_10  and  C_15
REMARK    4  A    between atoms: C_15  and  C_17
REMARK    5  A    between atoms: C_15  and  N_69
REMARK    6  A    between atoms: N_21  and  C_22
REMARK    7  A    between atoms: C_27  and  C_28
REMARK    8  A    between atoms: C_27  and  N_69
REMARK    9  A    between atoms: C_34  and  C_35
REMARK   10  A    between atoms: C_34  and  N_69
REMARK                            x       y       z     vdW  Elec       q    Type
REMARK                         _______ _______ _______ _____ _____    ______ ____
ROOT
ATOM      1  C   UNL     1       5.586  -0.043   0.288  0.00  0.00    +0.040 C 
ENDROOT
BRANCH   1   9
ATOM      2  C   UNL     1       0.590   3.066   2.202  0.00  0.00    -0.047 A 
ATOM      3  C   UNL     1       1.018   4.320   1.787  0.00  0.00    +0.005 A 
ATOM      4  C   UNL     1       2.240   4.476   1.167  0.00  0.00    +0.026 A 
ATOM      5  C   UNL     1       3.053   3.368   0.955  0.00  0.00    +0.049 A 
ATOM      6  C   UNL     1       2.615   2.099   1.378  0.00  0.00    -0.001 A 
ATOM      7  C   UNL     1       1.372   1.964   2.005  0.00  0.00    +0.013 A 
ATOM      8  C   UNL     1       3.478   0.938   1.150  0.00  0.00    +0.017 A 
ATOM      9  C   UNL     1       4.673   1.130   0.538  0.00  0.00    +0.011 A 
ATOM     10  C   UNL     1       5.065   2.424   0.133  0.00  0.00    +0.251 A 
ATOM     11  O   UNL     1       6.143   2.574  -0.416  0.00  0.00    -0.268 OA
ATOM     12  N   UNL     1       4.279   3.495   0.338  0.00  0.00    -0.322 N 
ATOM     13  H   UNL     1       4.588   4.398   0.038  0.00  0.00    +0.169 HD
BRANCH   2  15
ATOM     14  C   UNL     1      -1.827   2.660   1.824  0.00  0.00    +0.009 C 
ATOM     15  C   UNL     1      -0.749   2.921   2.878  0.00  0.00    +0.032 C 
ENDBRANCH   2  15
ENDBRANCH   1   9
BRANCH   1  16
ATOM     16  C   UNL     1       5.751  -0.244  -1.196  0.00  0.00    +0.143 A 
ATOM     17  N   UNL     1       6.475   0.486  -2.009  0.00  0.00    -0.115 NA
ATOM     18  N   UNL     1       6.359  -0.005  -3.195  0.00  0.00    -0.023 NA
ATOM     19  N   UNL     1       5.580  -1.029  -3.159  0.00  0.00    -0.044 NA
ATOM     20  N   UNL     1       5.188  -1.212  -1.943  0.00  0.00    -0.227 N 
BRANCH  20  21
ATOM     21  C   UNL     1       4.296  -2.272  -1.466  0.00  0.00    +0.111 C 
ATOM     22  C   UNL     1       4.891  -3.655  -1.804  0.00  0.00    +0.027 C 
ATOM     23  C   UNL     1       3.658  -4.518  -2.173  0.00  0.00    +0.002 C 
ATOM     24  C   UNL     1       2.759  -3.520  -2.944  0.00  0.00    +0.002 C 
ATOM     25  C   UNL     1       2.942  -2.186  -2.190  0.00  0.00    +0.027 C 
ENDBRANCH  20  21
ENDBRANCH   1  16
BRANCH   1  26
ATOM     26  N   UNL     1       6.910   0.239   0.880  0.00  0.00    +0.397 N 
ATOM     27  H   UNL     1       7.376   0.966   0.325  0.00  0.00    -0.079 HD
BRANCH  26  28
ATOM     28  C   UNL     1       6.751   0.724   2.268  0.00  0.00    -0.039 C 
BRANCH  28  29
ATOM     29  C   UNL     1       8.049   1.345   2.716  0.00  0.00    -0.046 A 
ATOM     30  C   UNL     1       9.006   0.580   3.364  0.00  0.00    +0.005 A 
ATOM     31  C   UNL     1      10.187   1.192   3.755  0.00  0.00    +0.020 A 
ATOM     32  C   UNL     1      10.366   2.538   3.495  0.00  0.00    +0.111 A 
ATOM     33  N   UNL     1       9.431   3.236   2.880  0.00  0.00    -0.263 NA
ATOM     34  C   UNL     1       8.297   2.686   2.491  0.00  0.00    +0.112 A 
ENDBRANCH  28  29
ENDBRANCH  26  28
BRANCH  26  35
ATOM     35  C   UNL     1       7.741  -0.983   0.865  0.00  0.00    -0.001 C 
BRANCH  35  36
ATOM     36  C   UNL     1       8.312  -1.161  -0.518  0.00  0.00    +0.089 A 
ATOM     37  C   UNL     1       9.405  -0.545  -1.003  0.00  0.00    +0.042 A 
ATOM     38  C   UNL     1       9.577  -1.000  -2.331  0.00  0.00    +0.041 A 
ATOM     39  C   UNL     1       8.579  -1.868  -2.577  0.00  0.00    +0.195 A 
ATOM     40  O   UNL     1       7.819  -1.965  -1.474  0.00  0.00    -0.470 OA
ENDBRANCH  35  36
ENDBRANCH  26  35
ENDBRANCH   1  26
TORSDOF 9
