REMARK  Name = ZINC45556014
REMARK  9 active torsions:
REMARK  status: ('A' for Active; 'I' for Inactive)
REMARK    1  A    between atoms: C_6  and  C_7
REMARK    2  A    between atoms: C_9  and  C_13
REMARK    3  A    between atoms: C_13  and  O_15
REMARK    4  A    between atoms: O_15  and  C_16
REMARK    5  A    between atoms: C_16  and  C_17
REMARK    6  A    between atoms: N_19  and  C_20
REMARK    7  A    between atoms: N_19  and  C_25
REMARK    8  A    between atoms: C_20  and  C_21
REMARK    9  A    between atoms: C_21  and  C_22
REMARK                            x       y       z     vdW  Elec       q    Type
REMARK                         _______ _______ _______ _____ _____    ______ ____
ROOT
ATOM      1  C   UNL     1      -5.371  -5.093  -0.225  0.00  0.00    +0.328 C 
ENDROOT
BRANCH   1   2
ATOM      2  C   UNL     1      -6.875  -5.003  -0.207  0.00  0.00    +0.258 C 
ATOM      3  O   UNL     1      -7.422  -3.943  -0.427  0.00  0.00    -0.272 OA
ATOM      4  N   UNL     1      -7.612  -6.100   0.054  0.00  0.00    -0.268 N 
BRANCH   4   5
ATOM      5  C   UNL     1      -9.004  -5.997   0.171  0.00  0.00    +0.037 A 
ATOM      6  C   UNL     1      -9.827  -6.588  -0.778  0.00  0.00    +0.026 A 
ATOM      7  C   UNL     1     -11.199  -6.485  -0.661  0.00  0.00    +0.040 A 
ATOM      8  C   UNL     1     -11.754  -5.793   0.402  0.00  0.00    +0.124 A 
ATOM      9  C   UNL     1     -10.935  -5.204   1.351  0.00  0.00    +0.040 A 
ATOM     10  C   UNL     1      -9.563  -5.309   1.240  0.00  0.00    +0.026 A 
ATOM     11  F   UNL     1     -13.097  -5.693   0.515  0.00  0.00    -0.205 F 
ENDBRANCH   4   5
BRANCH   4  12
ATOM     12  C   UNL     1      -6.958  -7.401   0.215  0.00  0.00    +0.123 C 
BRANCH  12  13
ATOM     13  C   UNL     1      -6.593  -7.610   1.686  0.00  0.00    +0.115 C 
BRANCH  13  14
ATOM     14  C   UNL     1      -5.920  -8.948   1.852  0.00  0.00    +0.212 C 
ATOM     15  O   UNL     1      -5.749  -9.664   0.888  0.00  0.00    -0.276 OA
ATOM     16  N   UNL     1      -5.508  -9.349   3.071  0.00  0.00    -0.329 N 
ATOM     17  H   UNL     1      -5.645  -8.776   3.842  0.00  0.00    +0.145 HD
ATOM     18  H   UNL     1      -5.075 -10.210   3.178  0.00  0.00    +0.145 HD
ENDBRANCH  13  14
ENDBRANCH  12  13
ENDBRANCH   4  12
ENDBRANCH   1   2
BRANCH   1  19
ATOM     19  O   UNL     1      -4.821  -3.808  -0.522  0.00  0.00    -0.451 OA
BRANCH  19  20
ATOM     20  C   UNL     1      -3.477  -3.715  -0.577  0.00  0.00    +0.358 C 
ATOM     21  O   UNL     1      -2.791  -4.699  -0.377  0.00  0.00    -0.243 OA
BRANCH  20  24
ATOM     22  C   UNL     1      -1.382  -0.801  -1.273  0.00  0.00    +0.093 A 
ATOM     23  C   UNL     1      -1.484  -2.171  -0.968  0.00  0.00    +0.064 A 
ATOM     24  C   UNL     1      -2.840  -2.424  -0.878  0.00  0.00    +0.143 A 
ATOM     25  N   UNL     1      -3.473  -1.237  -1.124  0.00  0.00    -0.270 N 
ATOM     26  H   UNL     1      -4.434  -1.109  -1.128  0.00  0.00    +0.189 HD
ATOM     27  N   UNL     1      -2.604  -0.317  -1.344  0.00  0.00    -0.173 NA
BRANCH  22  33
ATOM     28  C   UNL     1      -0.171   1.322  -1.766  0.00  0.00    +0.011 A 
ATOM     29  C   UNL     1       1.002   2.026  -1.950  0.00  0.00    +0.016 A 
ATOM     30  C   UNL     1       2.222   1.383  -1.844  0.00  0.00    +0.018 A 
ATOM     31  C   UNL     1       2.274   0.031  -1.553  0.00  0.00    +0.016 A 
ATOM     32  C   UNL     1       1.107  -0.682  -1.366  0.00  0.00    +0.011 A 
ATOM     33  C   UNL     1      -0.124  -0.039  -1.473  0.00  0.00    +0.002 A 
ATOM     34 BR   UNL     1       3.825   2.354  -2.099  0.00  0.00    -0.050 Br
ENDBRANCH  22  33
ENDBRANCH  20  24
ENDBRANCH  19  20
ENDBRANCH   1  19
TORSDOF 9
