REMARK  Name = ZINC38984177
REMARK  8 active torsions:
REMARK  status: ('A' for Active; 'I' for Inactive)
REMARK    1  A    between atoms: C_1  and  C_2
REMARK    2  A    between atoms: C_5  and  C_33
REMARK    3  A    between atoms: C_6  and  S_8
REMARK    4  A    between atoms: S_8  and  N_11
REMARK    5  A    between atoms: C_13  and  N_23
REMARK    6  A    between atoms: N_23  and  C_24
REMARK    7  A    between atoms: C_27  and  C_30
REMARK    8  A    between atoms: C_30  and  O_32
REMARK                            x       y       z     vdW  Elec       q    Type
REMARK                         _______ _______ _______ _____ _____    ______ ____
ROOT
ATOM      1  N   UNL     1      -1.330  -3.619   3.050  0.00  0.00    -0.110 NA
ATOM      2  C   UNL     1      -1.611  -4.492   3.973  0.00  0.00    +0.192 C 
ATOM      3  C   UNL     1      -2.877  -5.314   3.890  0.00  0.00    +0.237 C 
ATOM      4  N   UNL     1      -3.138  -6.284   4.965  0.00  0.00    -0.359 N 
ATOM      5  C   UNL     1      -2.271  -6.388   5.933  0.00  0.00    +0.063 A 
ATOM      6  C   UNL     1      -2.485  -7.343   7.031  0.00  0.00    +0.027 A 
ATOM      7  C   UNL     1      -1.563  -7.422   8.016  0.00  0.00    +0.002 A 
ATOM      8  C   UNL     1      -0.411  -6.619   8.016  0.00  0.00    +0.002 A 
ATOM      9  C   UNL     1      -0.146  -5.721   7.043  0.00  0.00    +0.030 A 
ATOM     10  C   UNL     1      -1.045  -5.553   5.959  0.00  0.00    +0.089 A 
ATOM     11  N   UNL     1      -0.780  -4.679   5.010  0.00  0.00    -0.226 NA
ATOM     12  H   UNL     1      -3.938  -6.834   4.954  0.00  0.00    +0.162 HD
ENDROOT
BRANCH   1  13
ATOM     13  S   UNL     1       0.064  -2.730   3.150  0.00  0.00    +0.101 S 
ATOM     14  O   UNL     1       1.141  -3.645   3.000  0.00  0.00    -0.146 OA
ATOM     15  O   UNL     1      -0.071  -1.891   4.289  0.00  0.00    -0.146 OA
BRANCH  13  21
ATOM     16  C   UNL     1      -0.010   2.029   0.989  0.00  0.00    +0.044 C 
ATOM     17  C   UNL     1       0.067   0.535   0.808  0.00  0.00    -0.049 A 
ATOM     18  C   UNL     1       0.170  -0.003  -0.462  0.00  0.00    +0.004 A 
ATOM     19  C   UNL     1       0.240  -1.373  -0.628  0.00  0.00    +0.005 A 
ATOM     20  C   UNL     1       0.208  -2.206   0.475  0.00  0.00    -0.024 A 
ATOM     21  C   UNL     1       0.106  -1.669   1.744  0.00  0.00    +0.116 A 
ATOM     22  C   UNL     1       0.040  -0.298   1.911  0.00  0.00    +0.032 A 
ATOM     23  C   UNL     1       0.284  -3.700   0.293  0.00  0.00    +0.046 C 
ENDBRANCH  13  21
ENDBRANCH   1  13
BRANCH   3  24
ATOM     24  N   UNL     1      -4.011  -4.387   3.841  0.00  0.00    -0.318 N 
ATOM     25  H   UNL     1      -4.035  -3.619   4.432  0.00  0.00    +0.148 HD
BRANCH  24  26
ATOM     26  C   UNL     1      -5.052  -4.609   2.947  0.00  0.00    +0.029 A 
ATOM     27  C   UNL     1      -6.045  -3.646   2.785  0.00  0.00    +0.024 A 
ATOM     28  C   UNL     1      -7.073  -3.861   1.903  0.00  0.00    +0.017 A 
ATOM     29  C   UNL     1      -7.123  -5.049   1.166  0.00  0.00    +0.059 A 
ATOM     30  C   UNL     1      -6.124  -6.013   1.331  0.00  0.00    +0.017 A 
ATOM     31  C   UNL     1      -5.096  -5.790   2.211  0.00  0.00    +0.024 A 
BRANCH  29  32
ATOM     32  C   UNL     1      -8.227  -5.284   0.218  0.00  0.00    +0.337 C 
ATOM     33  O   UNL     1      -9.095  -4.445   0.076  0.00  0.00    -0.245 OA
BRANCH  32  34
ATOM     34  O   UNL     1      -8.274  -6.429  -0.491  0.00  0.00    -0.477 OA
ATOM     35  H   UNL     1      -9.034  -6.492  -1.085  0.00  0.00    +0.295 HD
ENDBRANCH  32  34
ENDBRANCH  29  32
ENDBRANCH  24  26
ENDBRANCH   3  24
TORSDOF 6
