REMARK  Name = ZINC08861944
REMARK  20 active torsions:
REMARK  status: ('A' for Active; 'I' for Inactive)
REMARK    1  A    between atoms: C_1  and  C_2
REMARK    2  A    between atoms: C_2  and  N_72
REMARK    3  A    between atoms: C_3  and  C_4
REMARK    4  A    between atoms: C_3  and  N_72
REMARK    5  A    between atoms: C_5  and  C_6
REMARK    6  A    between atoms: C_5  and  N_72
REMARK    7  A    between atoms: C_6  and  N_7
REMARK    8  A    between atoms: C_8  and  C_29
REMARK    9  A    between atoms: C_10  and  C_15
REMARK   10  A    between atoms: C_11  and  O_14
REMARK   11  A    between atoms: C_15  and  C_17
REMARK   12  A    between atoms: C_18  and  C_28
REMARK   13  A    between atoms: C_19  and  C_24
REMARK   14  A    between atoms: C_22  and  C_23
REMARK   15  A    between atoms: C_24  and  O_26
REMARK   16  A    between atoms: O_26  and  C_27
REMARK   17  A    between atoms: C_31  and  O_37
REMARK   18  A    between atoms: C_34  and  O_35
REMARK   19  A    between atoms: O_35  and  C_36
REMARK   20  A    between atoms: O_37  and  C_38
REMARK                            x       y       z     vdW  Elec       q    Type
REMARK                         _______ _______ _______ _____ _____    ______ ____
ROOT
ATOM      1  N   UNL     1       1.869  -0.042   0.470  0.00  0.00    -0.285 N 
ATOM      2  C   UNL     1       0.520   0.336   0.034  0.00  0.00    +0.148 C 
ATOM      3  C   UNL     1      -0.250  -0.954  -0.120  0.00  0.00    +0.071 C 
ATOM      4  C   UNL     1       0.599  -1.957   0.202  0.00  0.00    +0.188 C 
ATOM      5  C   UNL     1       1.911  -1.383   0.567  0.00  0.00    +0.282 C 
ATOM      6  O   UNL     1       2.884  -2.028   0.905  0.00  0.00    -0.267 OA
ENDROOT
BRANCH   2   7
ATOM      7  C   UNL     1      -0.135   1.210   1.073  0.00  0.00    +0.023 A 
ATOM      8  C   UNL     1       0.103   0.983   2.415  0.00  0.00    +0.055 A 
ATOM      9  C   UNL     1      -0.499   1.787   3.371  0.00  0.00    +0.121 A 
ATOM     10  C   UNL     1      -1.341   2.818   2.980  0.00  0.00    +0.049 A 
ATOM     11  C   UNL     1      -1.578   3.045   1.639  0.00  0.00    +0.049 A 
ATOM     12  C   UNL     1      -0.972   2.244   0.682  0.00  0.00    +0.126 A 
BRANCH  12  13
ATOM     13  O   UNL     1      -1.202   2.470  -0.639  0.00  0.00    -0.495 OA
ATOM     14  C   UNL     1      -1.987   3.616  -0.974  0.00  0.00    +0.277 C 
ENDBRANCH  12  13
BRANCH   9  15
ATOM     15  O   UNL     1      -0.264   1.564   4.692  0.00  0.00    -0.495 OA
ATOM     16  C   UNL     1      -0.918   2.431   5.622  0.00  0.00    +0.277 C 
ENDBRANCH   9  15
ENDBRANCH   2   7
BRANCH   4  17
ATOM     17  O   UNL     1       0.295  -3.275   0.193  0.00  0.00    -0.502 OA
ATOM     18  H   UNL     1       1.097  -3.804   0.471  0.00  0.00    +0.292 HD
ENDBRANCH   4  17
BRANCH   3  19
ATOM     19  C   UNL     1      -1.649  -1.094  -0.538  0.00  0.00    +0.197 C 
ATOM     20  O   UNL     1      -2.542  -1.008   0.285  0.00  0.00    -0.287 OA
BRANCH  19  21
ATOM     21  C   UNL     1      -1.974  -1.337  -1.956  0.00  0.00    +0.046 A 
ATOM     22  C   UNL     1      -3.252  -1.624  -2.487  0.00  0.00    -0.008 A 
ATOM     23  C   UNL     1      -3.099  -1.774  -3.834  0.00  0.00    +0.128 A 
ATOM     24  N   UNL     1      -1.767  -1.597  -4.142  0.00  0.00    -0.352 N 
ATOM     25  H   UNL     1      -1.383  -1.653  -5.031  0.00  0.00    +0.166 HD
ATOM     26  C   UNL     1      -1.085  -1.334  -3.016  0.00  0.00    +0.025 A 
ATOM     27  C   UNL     1       0.397  -1.078  -2.923  0.00  0.00    +0.064 C 
ATOM     28  C   UNL     1      -4.539  -1.740  -1.712  0.00  0.00    +0.047 C 
BRANCH  23  29
ATOM     29  C   UNL     1      -4.168  -2.078  -4.791  0.00  0.00    +0.356 C 
ATOM     30  O   UNL     1      -5.312  -2.213  -4.402  0.00  0.00    -0.243 OA
BRANCH  29  31
ATOM     31  O   UNL     1      -3.883  -2.207  -6.103  0.00  0.00    -0.463 OA
ATOM     32  C   UNL     1      -4.990  -2.509  -6.992  0.00  0.00    +0.280 C 
ENDBRANCH  29  31
ENDBRANCH  23  29
ENDBRANCH  19  21
ENDBRANCH   3  19
BRANCH   1  33
ATOM     33  C   UNL     1       2.975   0.878   0.750  0.00  0.00    +0.090 C 
BRANCH  33  34
ATOM     34  C   UNL     1       3.032   1.165   2.251  0.00  0.00    -0.060 C 
BRANCH  34  35
ATOM     35  N   UNL     1       4.212   2.011   2.530  0.00  0.00    +0.380 N 
ATOM     36  H   UNL     1       5.041   1.574   2.111  0.00  0.00    -0.082 HD
BRANCH  35  38
ATOM     37  C   UNL     1       2.844   4.069   2.597  0.00  0.00    -0.017 C 
ATOM     38  C   UNL     1       4.024   3.352   1.938  0.00  0.00    -0.082 C 
ENDBRANCH  35  38
BRANCH  35  39
ATOM     39  C   UNL     1       4.416   2.127   3.990  0.00  0.00    -0.082 C 
ATOM     40  C   UNL     1       5.755   2.820   4.247  0.00  0.00    -0.017 C 
ENDBRANCH  35  39
ENDBRANCH  34  35
ENDBRANCH  33  34
ENDBRANCH   1  33
TORSDOF 13
