REMARK  Name = ZINC36206290
REMARK  13 active torsions:
REMARK  status: ('A' for Active; 'I' for Inactive)
REMARK    1  A    between atoms: C_1  and  C_2
REMARK    2  A    between atoms: C_2  and  C_3
REMARK    3  A    between atoms: C_2  and  N_4
REMARK    4  A    between atoms: N_4  and  C_5
REMARK    5  A    between atoms: N_4  and  C_25
REMARK    6  A    between atoms: C_5  and  C_6
REMARK    7  A    between atoms: C_12  and  C_17
REMARK    8  A    between atoms: C_20  and  O_23
REMARK    9  A    between atoms: O_23  and  C_24
REMARK   10  A    between atoms: C_25  and  C_26
REMARK   11  A    between atoms: C_26  and  C_28
REMARK   12  A    between atoms: C_26  and  O_35
REMARK   13  A    between atoms: C_28  and  C_29
REMARK                            x       y       z     vdW  Elec       q    Type
REMARK                         _______ _______ _______ _____ _____    ______ ____
ROOT
ATOM      1  C   UNL     1       1.437   1.454  -2.071  0.00  0.00    +0.094 A 
ATOM      2  N   UNL     1       2.501   2.272  -2.277  0.00  0.00    -0.312 N 
ATOM      3  H   UNL     1       3.398   1.929  -2.139  0.00  0.00    +0.170 HD
ATOM      4  C   UNL     1       2.336   3.549  -2.670  0.00  0.00    +0.260 A 
ATOM      5  O   UNL     1       3.302   4.270  -2.852  0.00  0.00    -0.267 OA
ATOM      6  C   UNL     1       1.009   4.047  -2.872  0.00  0.00    +0.080 A 
ATOM      7  C   UNL     1       0.576   5.374  -3.291  0.00  0.00    +0.004 A 
ATOM      8  C   UNL     1      -0.751   5.617  -3.416  0.00  0.00    +0.056 A 
ATOM      9  S   UNL     1      -1.499   4.061  -2.973  0.00  0.00    -0.076 S 
ATOM     10  C   UNL     1      -0.028   3.129  -2.634  0.00  0.00    +0.116 A 
ATOM     11  N   UNL     1       0.214   1.878  -2.252  0.00  0.00    -0.229 NA
ENDROOT
BRANCH   7  12
ATOM     12  C   UNL     1       1.568   6.438  -3.574  0.00  0.00    -0.016 A 
ATOM     13  C   UNL     1       2.580   6.713  -2.655  0.00  0.00    +0.012 A 
ATOM     14  C   UNL     1       3.502   7.703  -2.922  0.00  0.00    +0.046 A 
ATOM     15  C   UNL     1       3.423   8.426  -4.104  0.00  0.00    +0.120 A 
ATOM     16  C   UNL     1       2.417   8.156  -5.021  0.00  0.00    +0.046 A 
ATOM     17  C   UNL     1       1.495   7.163  -4.763  0.00  0.00    +0.012 A 
BRANCH  15  18
ATOM     18  O   UNL     1       4.334   9.402  -4.365  0.00  0.00    -0.495 OA
ATOM     19  C   UNL     1       4.194  10.107  -5.600  0.00  0.00    +0.277 C 
ENDBRANCH  15  18
ENDBRANCH   7  12
BRANCH   1  20
ATOM     20  C   UNL     1       1.670   0.032  -1.633  0.00  0.00    -0.003 C 
BRANCH  20  21
ATOM     21  N   UNL     1       0.384  -0.596  -1.303  0.00  0.00    +0.388 N 
ATOM     22  H   UNL     1      -0.324  -0.270  -1.944  0.00  0.00    -0.081 HD
BRANCH  21  24
ATOM     23  C   UNL     1       1.010  -0.840   1.052  0.00  0.00    -0.014 C 
ATOM     24  C   UNL     1       0.002  -0.239   0.070  0.00  0.00    -0.074 C 
ATOM     25  C   UNL     1      -0.007   1.284   0.217  0.00  0.00    -0.014 C 
ENDBRANCH  21  24
BRANCH  21  26
ATOM     26  C   UNL     1       0.509  -2.056  -1.412  0.00  0.00    -0.046 C 
BRANCH  26  27
ATOM     27  C   UNL     1      -0.872  -2.699  -1.266  0.00  0.00    +0.102 C 
BRANCH  27  28
ATOM     28  O   UNL     1      -1.325  -2.553   0.082  0.00  0.00    -0.393 OA
ATOM     29  H   UNL     1      -0.717  -2.914   0.742  0.00  0.00    +0.210 HD
ENDBRANCH  27  28
BRANCH  27  30
ATOM     30  C   UNL     1      -0.782  -4.185  -1.616  0.00  0.00    +0.064 C 
BRANCH  30  31
ATOM     31  C   UNL     1      -2.162  -4.791  -1.592  0.00  0.00    -0.045 A 
ATOM     32  C   UNL     1      -2.660  -5.329  -0.420  0.00  0.00    +0.004 A 
ATOM     33  C   UNL     1      -3.925  -5.885  -0.397  0.00  0.00    +0.000 A 
ATOM     34  C   UNL     1      -4.693  -5.902  -1.546  0.00  0.00    +0.000 A 
ATOM     35  C   UNL     1      -4.196  -5.364  -2.718  0.00  0.00    +0.000 A 
ATOM     36  C   UNL     1      -2.932  -4.804  -2.740  0.00  0.00    +0.004 A 
ENDBRANCH  30  31
ENDBRANCH  27  30
ENDBRANCH  26  27
ENDBRANCH  21  26
ENDBRANCH  20  21
ENDBRANCH   1  20
TORSDOF 10
