REMARK  Name = ZINC49372380
REMARK  3 active torsions:
REMARK  status: ('A' for Active; 'I' for Inactive)
REMARK    1  A    between atoms: C_5  and  C_6
REMARK    2  A    between atoms: C_6  and  S_7
REMARK    3  A    between atoms: S_7  and  C_8
REMARK                            x       y       z     vdW  Elec       q    Type
REMARK                         _______ _______ _______ _____ _____    ______ ____
ROOT
ATOM      1  C   UNL     1      -2.983  -2.470  -1.523  0.00  0.00    +0.196 A 
ATOM      2  N   UNL     1      -3.494  -2.904  -0.392  0.00  0.00    -0.122 NA
ATOM      3  N   UNL     1      -4.467  -3.713  -0.623  0.00  0.00    -0.127 NA
ATOM      4  C   UNL     1      -4.636  -3.845  -1.926  0.00  0.00    +0.180 A 
ATOM      5  N   UNL     1      -3.692  -3.047  -2.535  0.00  0.00    -0.275 N 
ATOM      6  C   UNL     1      -3.624  -2.973  -3.900  0.00  0.00    +0.115 A 
ATOM      7  C   UNL     1      -4.483  -3.677  -4.666  0.00  0.00    +0.059 A 
ATOM      8  C   UNL     1      -5.460  -4.498  -4.072  0.00  0.00    +0.045 A 
ATOM      9  C   UNL     1      -5.536  -4.588  -2.717  0.00  0.00    +0.087 A 
ATOM     10 CL   UNL     1      -6.737  -5.595  -1.971  0.00  0.00    -0.080 Cl
ATOM     11 CL   UNL     1      -4.382  -3.569  -6.396  0.00  0.00    -0.082 Cl
ENDROOT
BRANCH   1  12
ATOM     12  S   UNL     1      -1.638  -1.347  -1.699  0.00  0.00    -0.080 S 
BRANCH  12  13
ATOM     13  C   UNL     1      -1.156  -0.969   0.009  0.00  0.00    +0.119 C 
BRANCH  13  18
ATOM     14  C   UNL     1      -0.016   1.351   0.009  0.00  0.00    +0.013 A 
ATOM     15  C   UNL     1       1.183   2.038   0.002  0.00  0.00    +0.023 A 
ATOM     16  C   UNL     1       2.343   1.335  -0.013  0.00  0.00    +0.055 A 
ATOM     17  S   UNL     1       1.753  -0.350  -0.017  0.00  0.00    -0.086 S 
ATOM     18  C   UNL     1       0.002  -0.004   0.002  0.00  0.00    +0.001 A 
ATOM     19 BR   UNL     1       4.123   1.974  -0.027  0.00  0.00    -0.043 Br
ENDBRANCH  13  18
ENDBRANCH  12  13
ENDBRANCH   1  12
TORSDOF 3
