REMARK  Name = ZINC06431525
REMARK  8 active torsions:
REMARK  status: ('A' for Active; 'I' for Inactive)
REMARK    1  A    between atoms: C_1  and  C_2
REMARK    2  A    between atoms: C_5  and  C_8
REMARK    3  A    between atoms: C_8  and  N_9
REMARK    4  A    between atoms: C_10  and  C_12
REMARK    5  A    between atoms: C_12  and  S_13
REMARK    6  A    between atoms: S_13  and  C_14
REMARK    7  A    between atoms: C_15  and  C_30
REMARK    8  A    between atoms: C_16  and  C_26
REMARK                            x       y       z     vdW  Elec       q    Type
REMARK                         _______ _______ _______ _____ _____    ______ ____
ROOT
ATOM      1  C   UNL     1      -2.748   2.637   2.316  0.00  0.00    +0.116 A 
ATOM      2  C   UNL     1      -2.079   2.183   1.166  0.00  0.00    +0.095 A 
ATOM      3  C   UNL     1      -0.723   1.881   1.251  0.00  0.00    +0.080 A 
ATOM      4  C   UNL     1      -0.030   2.026   2.468  0.00  0.00    -0.013 A 
ATOM      5  C   UNL     1      -0.776   2.469   3.540  0.00  0.00    +0.046 A 
ATOM      6  N   UNL     1      -2.069   2.754   3.438  0.00  0.00    -0.244 NA
ATOM      7  C   UNL     1      -0.188   2.669   4.919  0.00  0.00    +0.056 C 
ATOM      8  C   UNL     1      -0.105   1.307   5.614  0.00  0.00    +0.006 C 
ATOM      9  C   UNL     1       0.682   0.324   4.758  0.00  0.00    +0.000 C 
ATOM     10  C   UNL     1       2.072   0.916   4.694  0.00  0.00    +0.000 C 
ATOM     11  C   UNL     1       2.296   1.924   3.583  0.00  0.00    +0.005 C 
ATOM     12  C   UNL     1       1.424   1.654   2.366  0.00  0.00    +0.037 C 
ENDROOT
BRANCH   3  13
ATOM     13  C   UNL     1      -0.017   1.395   0.010  0.00  0.00    +0.419 C 
ATOM     14  F   UNL     1       0.926   0.422   0.360  0.00  0.00    -0.166 F 
ATOM     15  F   UNL     1       0.630   2.469  -0.610  0.00  0.00    -0.166 F 
ATOM     16  F   UNL     1      -0.952   0.842  -0.872  0.00  0.00    -0.166 F 
ENDBRANCH   3  13
BRANCH   2  17
ATOM     17  C   UNL     1      -2.781   2.029  -0.073  0.00  0.00    +0.102 C 
ATOM     18  N   UNL     1      -3.337   1.907  -1.056  0.00  0.00    -0.191 NA
ENDBRANCH   2  17
BRANCH   1  19
ATOM     19  S   UNL     1      -4.461   3.043   2.256  0.00  0.00    -0.095 S 
BRANCH  19  20
ATOM     20  C   UNL     1      -4.726   3.543   3.975  0.00  0.00    +0.171 C 
BRANCH  20  22
ATOM     21  N   UNL     1      -6.597   4.356   5.374  0.00  0.00    -0.311 N 
ATOM     22  C   UNL     1      -6.166   3.944   4.165  0.00  0.00    +0.224 C 
ATOM     23  O   UNL     1      -6.937   3.897   3.230  0.00  0.00    -0.275 OA
ATOM     24  H   UNL     1      -5.980   4.394   6.122  0.00  0.00    +0.149 HD
BRANCH  21  25
ATOM     25  C   UNL     1      -7.997   4.747   5.559  0.00  0.00    +0.139 C 
BRANCH  25  30
ATOM     26  C   UNL     1      -8.844   6.343  11.047  0.00  0.00    +0.044 C 
ATOM     27  C   UNL     1      -8.623   5.927   9.616  0.00  0.00    -0.050 A 
ATOM     28  C   UNL     1      -8.244   6.865   8.674  0.00  0.00    +0.003 A 
ATOM     29  C   UNL     1      -8.041   6.483   7.361  0.00  0.00    +0.005 A 
ATOM     30  C   UNL     1      -8.217   5.163   6.990  0.00  0.00    -0.030 A 
ATOM     31  C   UNL     1      -8.601   4.226   7.931  0.00  0.00    +0.005 A 
ATOM     32  C   UNL     1      -8.800   4.607   9.245  0.00  0.00    +0.003 A 
ENDBRANCH  25  30
ENDBRANCH  21  25
ENDBRANCH  20  22
ENDBRANCH  19  20
ENDBRANCH   1  19
TORSDOF 7
