REMARK  Name = ZINC12976697
REMARK  9 active torsions:
REMARK  status: ('A' for Active; 'I' for Inactive)
REMARK    1  A    between atoms: C_1  and  C_2
REMARK    2  A    between atoms: C_4  and  C_31
REMARK    3  A    between atoms: C_10  and  S_13
REMARK    4  A    between atoms: N_11  and  N_12
REMARK    5  A    between atoms: S_13  and  C_14
REMARK    6  A    between atoms: C_14  and  C_15
REMARK    7  A    between atoms: N_17  and  C_18
REMARK    8  A    between atoms: C_18  and  C_20
REMARK    9  A    between atoms: C_18  and  C_21
REMARK                            x       y       z     vdW  Elec       q    Type
REMARK                         _______ _______ _______ _____ _____    ______ ____
ROOT
ATOM      1  C   UNL     1      -4.540   1.685  -4.363  0.00  0.00    +0.173 C 
ENDROOT
BRANCH   1   2
ATOM      2  C   UNL     1      -3.126   2.206  -4.374  0.00  0.00    +0.224 C 
ATOM      3  O   UNL     1      -2.861   3.227  -4.973  0.00  0.00    -0.275 OA
ATOM      4  N   UNL     1      -2.157   1.539  -3.717  0.00  0.00    -0.312 N 
ATOM      5  H   UNL     1      -2.369   0.723  -3.237  0.00  0.00    +0.149 HD
BRANCH   4   6
ATOM      6  C   UNL     1      -0.782   2.046  -3.727  0.00  0.00    +0.076 C 
ATOM      7  C   UNL     1      -0.066   1.553  -4.986  0.00  0.00    +0.028 C 
BRANCH   6   8
ATOM      8  C   UNL     1      -0.043   1.539  -2.488  0.00  0.00    -0.010 C 
ATOM      9  C   UNL     1      -0.759   2.033  -1.229  0.00  0.00    +0.012 C 
ATOM     10  C   UNL     1      -0.019   1.526   0.010  0.00  0.00    -0.010 C 
ATOM     11  C   UNL     1       1.417   2.055  -0.000  0.00  0.00    +0.007 C 
ATOM     12  C   UNL     1       2.133   1.562  -1.259  0.00  0.00    -0.010 C 
ATOM     13  C   UNL     1       1.393   2.069  -2.499  0.00  0.00    +0.012 C 
ATOM     14  C   UNL     1       2.154   0.032  -1.268  0.00  0.00    +0.007 C 
ATOM     15  C   UNL     1       0.718  -0.497  -1.257  0.00  0.00    -0.010 C 
ATOM     16  C   UNL     1       0.002  -0.004   0.002  0.00  0.00    +0.007 C 
ATOM     17  C   UNL     1      -0.022   0.009  -2.496  0.00  0.00    +0.012 C 
ENDBRANCH   6   8
ENDBRANCH   4   6
ENDBRANCH   1   2
BRANCH   1  18
ATOM     18  S   UNL     1      -5.599   2.792  -5.326  0.00  0.00    -0.075 S 
BRANCH  18  28
ATOM     19  C   UNL     1     -13.650   2.736  -7.149  0.00  0.00    +0.067 C 
ATOM     20  C   UNL     1     -12.560   1.995  -6.418  0.00  0.00    +0.061 A 
ATOM     21  C   UNL     1     -12.720   0.811  -5.691  0.00  0.00    +0.048 A 
ATOM     22  C   UNL     1     -11.513   0.463  -5.187  0.00  0.00    +0.045 A 
ATOM     23  N   UNL     1     -10.616   1.401  -5.586  0.00  0.00    -0.201 N 
ATOM     24  N   UNL     1     -11.302   2.352  -6.353  0.00  0.00    -0.169 NA
ATOM     25  C   UNL     1      -9.254   1.418  -5.282  0.00  0.00    +0.270 A 
ATOM     26  N   UNL     1      -8.608   0.537  -4.563  0.00  0.00    -0.106 NA
ATOM     27  N   UNL     1      -7.365   0.856  -4.487  0.00  0.00    -0.119 NA
ATOM     28  C   UNL     1      -7.146   1.967  -5.149  0.00  0.00    +0.210 A 
ATOM     29  N   UNL     1      -8.343   2.361  -5.682  0.00  0.00    -0.208 N 
ATOM     30  C   UNL     1     -11.218  -0.747  -4.338  0.00  0.00    +0.066 C 
BRANCH  29  31
ATOM     31  N   UNL     1      -8.581   3.465  -6.450  0.00  0.00    -0.293 N 
ATOM     32  H   UNL     1      -8.464   3.256  -7.430  0.00  0.00    +0.163 HD
ATOM     33  H   UNL     1      -9.499   3.842  -6.268  0.00  0.00    +0.163 HD
ENDBRANCH  29  31
ENDBRANCH  18  28
ENDBRANCH   1  18
TORSDOF 6
