REMARK  Name = ZINC09056437
REMARK  9 active torsions:
REMARK  status: ('A' for Active; 'I' for Inactive)
REMARK    1  A    between atoms: C_1  and  C_2
REMARK    2  A    between atoms: C_2  and  C_27
REMARK    3  A    between atoms: N_5  and  N_9
REMARK    4  A    between atoms: C_10  and  C_12
REMARK    5  A    between atoms: C_12  and  C_14
REMARK    6  A    between atoms: C_12  and  S_20
REMARK    7  A    between atoms: S_20  and  C_21
REMARK    8  A    between atoms: C_31  and  O_33
REMARK    9  A    between atoms: O_33  and  C_34
REMARK                            x       y       z     vdW  Elec       q    Type
REMARK                         _______ _______ _______ _____ _____    ______ ____
ROOT
ATOM      1  N   UNL     1      -4.868   1.198  -2.762  0.00  0.00    -0.222 N 
ATOM      2  C   UNL     1      -6.081   0.613  -2.720  0.00  0.00    +0.247 C 
ATOM      3  O   UNL     1      -6.343  -0.177  -1.838  0.00  0.00    -0.273 OA
ATOM      4  H   UNL     1      -4.658   1.830  -3.467  0.00  0.00    +0.174 HD
ENDROOT
BRANCH   1   9
ATOM      5  C   UNL     1      -2.984   0.727   1.452  0.00  0.00    +0.047 C 
ATOM      6  C   UNL     1      -2.512   0.980   0.019  0.00  0.00    +0.137 C 
ATOM      7  C   UNL     1      -3.574   1.717  -0.773  0.00  0.00    +0.267 C 
ATOM      8  O   UNL     1      -4.027   2.818  -0.542  0.00  0.00    -0.271 OA
ATOM      9  N   UNL     1      -3.909   0.895  -1.786  0.00  0.00    -0.137 N 
ATOM     10  C   UNL     1      -3.215  -0.248  -1.745  0.00  0.00    +0.327 C 
ATOM     11  O   UNL     1      -3.344  -1.146  -2.554  0.00  0.00    -0.251 OA
ATOM     12  N   UNL     1      -2.359  -0.292  -0.708  0.00  0.00    -0.280 N 
ATOM     13  H   UNL     1      -1.758  -1.020  -0.483  0.00  0.00    +0.152 HD
BRANCH   6  14
ATOM     14  C   UNL     1      -1.218   1.751   0.017  0.00  0.00    -0.012 A 
ATOM     15  C   UNL     1      -1.237   3.133   0.030  0.00  0.00    +0.006 A 
ATOM     16  C   UNL     1      -0.051   3.844   0.023  0.00  0.00    +0.004 A 
ATOM     17  C   UNL     1       1.157   3.173   0.008  0.00  0.00    +0.045 A 
ATOM     18  C   UNL     1       1.179   1.786   0.000  0.00  0.00    +0.120 A 
ATOM     19  C   UNL     1      -0.013   1.076   0.008  0.00  0.00    +0.051 A 
BRANCH  18  20
ATOM     20  O   UNL     1       2.366   1.125  -0.014  0.00  0.00    -0.495 OA
ATOM     21  C   UNL     1       3.553   1.921  -0.021  0.00  0.00    +0.277 C 
ENDBRANCH  18  20
ENDBRANCH   6  14
ENDBRANCH   1   9
BRANCH   2  22
ATOM     22  C   UNL     1      -7.112   0.940  -3.769  0.00  0.00    +0.168 C 
BRANCH  22  23
ATOM     23  C   UNL     1      -7.775   2.251  -3.432  0.00  0.00    -0.025 A 
ATOM     24  C   UNL     1      -8.461   2.391  -2.241  0.00  0.00    +0.005 A 
ATOM     25  C   UNL     1      -9.065   3.595  -1.929  0.00  0.00    +0.000 A 
ATOM     26  C   UNL     1      -8.991   4.655  -2.813  0.00  0.00    +0.000 A 
ATOM     27  C   UNL     1      -8.308   4.513  -4.006  0.00  0.00    +0.000 A 
ATOM     28  C   UNL     1      -7.700   3.311  -4.316  0.00  0.00    +0.005 A 
ENDBRANCH  22  23
BRANCH  22  29
ATOM     29  S   UNL     1      -8.362  -0.374  -3.819  0.00  0.00    -0.108 S 
BRANCH  29  30
ATOM     30  C   UNL     1      -9.396   0.072  -5.175  0.00  0.00    +0.009 A 
ATOM     31  C   UNL     1      -9.130   1.225  -5.903  0.00  0.00    +0.015 A 
ATOM     32  C   UNL     1      -9.939   1.569  -6.968  0.00  0.00    +0.001 A 
ATOM     33  C   UNL     1     -11.020   0.773  -7.303  0.00  0.00    +0.000 A 
ATOM     34  C   UNL     1     -11.290  -0.372  -6.576  0.00  0.00    +0.001 A 
ATOM     35  C   UNL     1     -10.482  -0.725  -5.514  0.00  0.00    +0.015 A 
ENDBRANCH  29  30
ENDBRANCH  22  29
ENDBRANCH   2  22
TORSDOF 7
