REMARK  Name = ZINC21218871
REMARK  7 active torsions:
REMARK  status: ('A' for Active; 'I' for Inactive)
REMARK    1  A    between atoms: C_1  and  C_2
REMARK    2  A    between atoms: C_2  and  O_3
REMARK    3  A    between atoms: O_3  and  C_4
REMARK    4  A    between atoms: C_7  and  C_12
REMARK    5  A    between atoms: C_9  and  O_10
REMARK    6  A    between atoms: O_10  and  C_11
REMARK    7  A    between atoms: C_17  and  C_27
REMARK                            x       y       z     vdW  Elec       q    Type
REMARK                         _______ _______ _______ _____ _____    ______ ____
ROOT
ATOM      1  C   UNL     1      -2.894   3.218   3.692  0.00  0.00    +0.032 C 
ATOM      2  C   UNL     1      -1.445   3.618   3.421  0.00  0.00    +0.059 C 
ATOM      3  C   UNL     1      -0.895   2.807   2.259  0.00  0.00    +0.017 C 
ATOM      4  C   UNL     1      -1.699   2.434   1.250  0.00  0.00    +0.037 C 
ATOM      5  C   UNL     1      -1.281   1.660   0.017  0.00  0.00    +0.139 C 
ATOM      6  N   UNL     1       0.045   1.087   0.099  0.00  0.00    -0.331 N 
ATOM      7  C   UNL     1       1.176   1.898   0.179  0.00  0.00    +0.049 A 
ATOM      8  C   UNL     1       2.119   1.928  -0.836  0.00  0.00    +0.025 A 
ATOM      9  C   UNL     1       3.203   2.783  -0.733  0.00  0.00    +0.002 A 
ATOM     10  C   UNL     1       3.345   3.603   0.371  0.00  0.00    +0.002 A 
ATOM     11  C   UNL     1       2.414   3.563   1.395  0.00  0.00    +0.025 A 
ATOM     12  C   UNL     1       1.341   2.693   1.303  0.00  0.00    +0.052 A 
ATOM     13  N   UNL     1       0.431   2.526   2.341  0.00  0.00    -0.316 N 
ATOM     14  C   UNL     1      -3.076   2.761   1.279  0.00  0.00    +0.163 C 
ATOM     15  O   UNL     1      -3.776   2.429   0.342  0.00  0.00    -0.292 OA
ATOM     16  C   UNL     1      -3.702   3.503   2.421  0.00  0.00    +0.088 C 
ATOM     17  H   UNL     1       0.173  -0.005   0.099  0.00  0.00    +0.147 HD
ATOM     18  H   UNL     1       0.854   2.136   3.278  0.00  0.00    +0.152 HD
ENDROOT
BRANCH   5  19
ATOM     19  C   UNL     1      -1.329   2.585  -1.172  0.00  0.00    +0.015 A 
ATOM     20  C   UNL     1      -1.272   3.954  -0.985  0.00  0.00    +0.047 A 
ATOM     21  C   UNL     1      -1.312   4.803  -2.078  0.00  0.00    +0.124 A 
ATOM     22  C   UNL     1      -1.420   4.282  -3.356  0.00  0.00    +0.041 A 
ATOM     23  C   UNL     1      -1.482   2.915  -3.542  0.00  0.00    +0.041 A 
ATOM     24  C   UNL     1      -1.437   2.065  -2.450  0.00  0.00    +0.129 A 
ATOM     25  F   UNL     1      -1.498   0.727  -2.631  0.00  0.00    -0.205 F 
ATOM     26  F   UNL     1      -1.250   6.140  -1.896  0.00  0.00    -0.205 F 
ENDBRANCH   5  19
BRANCH   1  30
ATOM     27  C   UNL     1      -4.450   5.524   6.941  0.00  0.00    +0.162 A 
ATOM     28  C   UNL     1      -3.963   6.157   5.809  0.00  0.00    +0.050 A 
ATOM     29  C   UNL     1      -3.461   5.409   4.761  0.00  0.00    +0.008 A 
ATOM     30  C   UNL     1      -3.443   4.029   4.838  0.00  0.00    -0.040 A 
ATOM     31  C   UNL     1      -3.933   3.390   5.963  0.00  0.00    +0.053 A 
ATOM     32  C   UNL     1      -4.433   4.134   7.019  0.00  0.00    +0.162 A 
BRANCH  32  33
ATOM     33  O   UNL     1      -4.910   3.508   8.128  0.00  0.00    -0.491 OA
ATOM     34  C   UNL     1      -4.861   2.080   8.138  0.00  0.00    +0.277 C 
ENDBRANCH  32  33
BRANCH  27  35
ATOM     35  O   UNL     1      -4.945   6.258   7.973  0.00  0.00    -0.489 OA
BRANCH  35  37
ATOM     36  C   UNL     1      -5.523   8.329   9.076  0.00  0.00    +0.048 C 
ATOM     37  C   UNL     1      -4.932   7.679   7.823  0.00  0.00    +0.226 C 
ENDBRANCH  35  37
ENDBRANCH  27  35
ENDBRANCH   1  30
TORSDOF 5
