REMARK  Name = ZINC35681705
REMARK  12 active torsions:
REMARK  status: ('A' for Active; 'I' for Inactive)
REMARK    1  A    between atoms: C_1  and  C_2
REMARK    2  A    between atoms: C_2  and  O_3
REMARK    3  A    between atoms: O_3  and  C_4
REMARK    4  A    between atoms: C_7  and  N_10
REMARK    5  A    between atoms: C_12  and  C_31
REMARK    6  A    between atoms: C_18  and  N_19
REMARK    7  A    between atoms: N_19  and  C_20
REMARK    8  A    between atoms: C_20  and  C_21
REMARK    9  A    between atoms: C_21  and  C_23
REMARK   10  A    between atoms: C_21  and  N_28
REMARK   11  A    between atoms: N_28  and  C_29
REMARK   12  A    between atoms: N_28  and  C_30
REMARK                            x       y       z     vdW  Elec       q    Type
REMARK                         _______ _______ _______ _____ _____    ______ ____
ROOT
ATOM      1  N   UNL     1       0.784  -6.064   1.717  0.00  0.00    -0.300 N 
ATOM      2  C   UNL     1      -0.145  -6.948   1.237  0.00  0.00    +0.102 A 
ATOM      3  C   UNL     1       0.297  -8.217   1.418  0.00  0.00    +0.013 A 
ATOM      4  C   UNL     1       1.612  -8.114   2.064  0.00  0.00    +0.067 A 
ATOM      5  C   UNL     1       1.865  -6.740   2.221  0.00  0.00    +0.151 A 
ATOM      6  N   UNL     1       3.012  -6.364   2.786  0.00  0.00    -0.217 NA
ATOM      7  C   UNL     1       3.889  -7.260   3.185  0.00  0.00    +0.225 A 
ATOM      8  N   UNL     1       3.692  -8.559   3.053  0.00  0.00    -0.220 NA
ATOM      9  C   UNL     1       2.573  -9.031   2.509  0.00  0.00    +0.132 A 
ENDROOT
BRANCH   1  13
ATOM     10  C   UNL     1       0.388  -1.913   1.640  0.00  0.00    +0.121 A 
ATOM     11  C   UNL     1       0.163  -2.652   0.488  0.00  0.00    +0.047 A 
ATOM     12  C   UNL     1       0.294  -4.026   0.513  0.00  0.00    +0.030 A 
ATOM     13  C   UNL     1       0.651  -4.668   1.691  0.00  0.00    +0.048 A 
ATOM     14  C   UNL     1       0.877  -3.928   2.844  0.00  0.00    +0.030 A 
ATOM     15  C   UNL     1       0.751  -2.553   2.816  0.00  0.00    +0.047 A 
BRANCH  10  16
ATOM     16  O   UNL     1       0.259  -0.559   1.615  0.00  0.00    -0.492 OA
BRANCH  16  18
ATOM     17  C   UNL     1      -0.211   1.552   0.537  0.00  0.00    +0.048 C 
ATOM     18  C   UNL     1      -0.117   0.034   0.371  0.00  0.00    +0.225 C 
ENDBRANCH  16  18
ENDBRANCH  10  16
ENDBRANCH   1  13
BRANCH   3  19
ATOM     19  C   UNL     1      -0.408  -9.464   1.037  0.00  0.00    -0.016 A 
ATOM     20  C   UNL     1       0.213 -10.392   0.202  0.00  0.00    +0.008 A 
ATOM     21  C   UNL     1      -0.448 -11.552  -0.148  0.00  0.00    +0.001 A 
ATOM     22  C   UNL     1      -1.724 -11.794   0.327  0.00  0.00    +0.000 A 
ATOM     23  C   UNL     1      -2.345 -10.877   1.156  0.00  0.00    +0.001 A 
ATOM     24  C   UNL     1      -1.692  -9.717   1.518  0.00  0.00    +0.008 A 
ENDBRANCH   3  19
BRANCH   9  25
ATOM     25  N   UNL     1       2.371 -10.393   2.371  0.00  0.00    -0.330 N 
ATOM     26  H   UNL     1       1.522 -10.726   2.041  0.00  0.00    +0.147 HD
BRANCH  25  27
ATOM     27  C   UNL     1       3.439 -11.331   2.725  0.00  0.00    +0.095 C 
BRANCH  27  28
ATOM     28  C   UNL     1       2.915 -12.764   2.616  0.00  0.00    +0.016 C 
BRANCH  28  29
ATOM     29  C   UNL     1       1.844 -12.988   3.652  0.00  0.00    +0.093 A 
ATOM     30  C   UNL     1       0.517 -12.962   3.430  0.00  0.00    +0.043 A 
ATOM     31  C   UNL     1      -0.111 -13.220   4.670  0.00  0.00    +0.041 A 
ATOM     32  C   UNL     1       0.870 -13.388   5.576  0.00  0.00    +0.195 A 
ATOM     33  O   UNL     1       2.051 -13.252   4.952  0.00  0.00    -0.469 OA
ENDBRANCH  28  29
BRANCH  28  34
ATOM     34  N   UNL     1       4.019 -13.707   2.842  0.00  0.00    +0.384 N 
ATOM     35  C   UNL     1       3.517 -15.084   2.734  0.00  0.00    -0.096 C 
ATOM     36  C   UNL     1       5.065 -13.488   1.834  0.00  0.00    -0.096 C 
ATOM     37  H   UNL     1       4.403 -13.561   3.763  0.00  0.00    -0.082 HD
ENDBRANCH  28  34
ENDBRANCH  27  28
ENDBRANCH  25  27
ENDBRANCH   9  25
TORSDOF 9
