REMARK  Name = ZINC06104743
REMARK  7 active torsions:
REMARK  status: ('A' for Active; 'I' for Inactive)
REMARK    1  A    between atoms: C_1  and  C_2
REMARK    2  A    between atoms: C_5  and  N_9
REMARK    3  A    between atoms: C_13  and  S_14
REMARK    4  A    between atoms: S_14  and  C_15
REMARK    5  A    between atoms: C_15  and  C_16
REMARK    6  A    between atoms: N_21  and  C_22
REMARK    7  A    between atoms: C_28  and  C_30
REMARK                            x       y       z     vdW  Elec       q    Type
REMARK                         _______ _______ _______ _____ _____    ______ ____
ROOT
ATOM      1  C   UNL     1      -0.323   5.874   0.033  0.00  0.00    +0.173 C 
ENDROOT
BRANCH   1   2
ATOM      2  C   UNL     1      -0.938   7.250   0.046  0.00  0.00    +0.231 C 
ATOM      3  O   UNL     1      -2.144   7.375   0.058  0.00  0.00    -0.274 OA
ATOM      4  N   UNL     1      -0.148   8.342   0.043  0.00  0.00    -0.239 N 
ATOM      5  C   UNL     1      -0.698   9.572   0.054  0.00  0.00    +0.306 C 
ATOM      6  O   UNL     1      -1.907   9.697   0.066  0.00  0.00    -0.252 OA
ATOM      7  N   UNL     1       0.093  10.664   0.052  0.00  0.00    -0.296 N 
ATOM      8  H   UNL     1       0.817   8.242   0.034  0.00  0.00    +0.159 HD
ATOM      9  H   UNL     1       1.057  10.564   0.042  0.00  0.00    +0.151 HD
BRANCH   7  10
ATOM     10  C   UNL     1      -0.505  12.001   0.064  0.00  0.00    +0.077 C 
ATOM     11  C   UNL     1      -0.842  12.422  -1.368  0.00  0.00    +0.022 C 
ATOM     12  C   UNL     1       0.437  12.443  -2.208  0.00  0.00    +0.002 C 
ATOM     13  C   UNL     1       1.428  13.439  -1.603  0.00  0.00    +0.000 C 
ATOM     14  C   UNL     1       1.764  13.018  -0.171  0.00  0.00    +0.005 C 
ATOM     15  C   UNL     1       0.486  12.997   0.668  0.00  0.00    +0.006 C 
ATOM     16  C   UNL     1       0.822  12.576   2.100  0.00  0.00    +0.009 C 
ENDBRANCH   7  10
ENDBRANCH   1   2
BRANCH   1  17
ATOM     17  S   UNL     1      -1.634   4.627   0.040  0.00  0.00    -0.076 S 
BRANCH  17  22
ATOM     18  N   UNL     1      -1.127   1.873   0.017  0.00  0.00    -0.277 N 
ATOM     19  C   UNL     1      -0.013   1.076   0.008  0.00  0.00    +0.230 A 
ATOM     20  N   UNL     1       1.026   1.863   0.002  0.00  0.00    -0.137 NA
ATOM     21  N   UNL     1       0.651   3.091   0.012  0.00  0.00    -0.122 NA
ATOM     22  C   UNL     1      -0.660   3.159   0.024  0.00  0.00    +0.196 A 
BRANCH  18  27
ATOM     23  C   UNL     1      -6.548   0.188   0.027  0.00  0.00    +0.045 C 
ATOM     24  C   UNL     1      -5.109   0.636   0.025  0.00  0.00    -0.032 A 
ATOM     25  C   UNL     1      -4.224   0.110  -0.899  0.00  0.00    +0.007 A 
ATOM     26  C   UNL     1      -2.905   0.518  -0.904  0.00  0.00    +0.026 A 
ATOM     27  C   UNL     1      -2.466   1.457   0.020  0.00  0.00    +0.051 A 
ATOM     28  C   UNL     1      -3.354   1.979   0.950  0.00  0.00    +0.046 A 
ATOM     29  C   UNL     1      -4.675   1.572   0.947  0.00  0.00    +0.046 A 
ATOM     30 CL   UNL     1      -5.789   2.230   2.105  0.00  0.00    -0.083 Cl
ENDBRANCH  18  27
ENDBRANCH  17  22
ENDBRANCH   1  17
TORSDOF 5
