REMARK  Name = ZINC24899420
REMARK  5 active torsions:
REMARK  status: ('A' for Active; 'I' for Inactive)
REMARK    1  A    between atoms: C_8  and  C_13
REMARK    2  A    between atoms: C_13  and  N_14
REMARK    3  A    between atoms: N_18  and  C_21
REMARK    4  A    between atoms: C_21  and  C_22
REMARK    5  A    between atoms: C_22  and  C_23
REMARK                            x       y       z     vdW  Elec       q    Type
REMARK                         _______ _______ _______ _____ _____    ______ ____
ROOT
ATOM      1  N   UNL     1      -7.212  -0.594   2.744  0.00  0.00    -0.297 NA
ATOM      2  C   UNL     1      -6.486  -1.700   2.079  0.00  0.00    +0.083 C 
ATOM      3  C   UNL     1      -5.921  -1.310   0.737  0.00  0.00    -0.003 C 
ATOM      4  C   UNL     1      -4.469  -0.817   0.928  0.00  0.00    -0.078 C 
ATOM      5  N   UNL     1      -4.432   0.475   1.466  0.00  0.00    +0.381 N 
ATOM      6  C   UNL     1      -5.046   0.602   2.803  0.00  0.00    -0.063 C 
ATOM      7  C   UNL     1      -6.539   0.717   2.624  0.00  0.00    +0.066 C 
ATOM      8  H   UNL     1      -5.067   1.036   0.763  0.00  0.00    -0.082 HD
ENDROOT
BRANCH   1   9
ATOM      9  C   UNL     1      -7.490  -0.916   4.149  0.00  0.00    +0.157 C 
BRANCH   9  17
ATOM     10  C   UNL     1      -9.909  -5.497   7.274  0.00  0.00    +0.002 A 
ATOM     11  C   UNL     1     -10.465  -6.239   6.248  0.00  0.00    +0.002 A 
ATOM     12  C   UNL     1     -10.472  -5.740   4.957  0.00  0.00    +0.031 A 
ATOM     13  C   UNL     1      -9.926  -4.503   4.699  0.00  0.00    +0.134 A 
ATOM     14  C   UNL     1      -9.367  -3.748   5.725  0.00  0.00    +0.059 A 
ATOM     15  C   UNL     1      -9.361  -4.255   7.019  0.00  0.00    +0.025 A 
ATOM     16  N   UNL     1      -8.817  -2.501   5.452  0.00  0.00    -0.299 N 
ATOM     17  C   UNL     1      -8.456  -2.071   4.218  0.00  0.00    +0.135 C 
ATOM     18  N   UNL     1      -8.860  -2.561   3.103  0.00  0.00    -0.117 NA
ATOM     19  S   UNL     1      -9.918  -3.837   3.066  0.00  0.00    +0.102 S 
ATOM     20  O   UNL     1     -11.210  -3.293   2.837  0.00  0.00    -0.146 OA
ATOM     21  O   UNL     1      -9.342  -4.825   2.222  0.00  0.00    -0.146 OA
ATOM     22  H   UNL     1      -8.647  -1.784   6.269  0.00  0.00    +0.153 HD
ENDBRANCH   9  17
ENDBRANCH   1   9
BRANCH   5  23
ATOM     23  C   UNL     1      -3.063   1.008   1.463  0.00  0.00    -0.074 C 
BRANCH  23  24
ATOM     24  C   UNL     1      -2.594   1.202   0.020  0.00  0.00    +0.024 C 
BRANCH  24  25
ATOM     25  C   UNL     1      -1.190   1.748   0.017  0.00  0.00    -0.012 A 
ATOM     26  C   UNL     1      -0.013   1.076   0.008  0.00  0.00    +0.011 A 
ATOM     27  C   UNL     1       1.169   1.793   0.001  0.00  0.00    +0.008 A 
ATOM     28  C   UNL     1       1.115   3.148   0.008  0.00  0.00    +0.045 A 
ATOM     29  S   UNL     1      -0.644   3.448   0.027  0.00  0.00    -0.102 S 
ENDBRANCH  24  25
ENDBRANCH  23  24
ENDBRANCH   5  23
TORSDOF 5
