REMARK  Name = ZINC14992363
REMARK  7 active torsions:
REMARK  status: ('A' for Active; 'I' for Inactive)
REMARK    1  A    between atoms: C_9  and  C_12
REMARK    2  A    between atoms: C_12  and  N_13
REMARK    3  A    between atoms: C_14  and  C_16
REMARK    4  A    between atoms: C_19  and  C_24
REMARK    5  A    between atoms: C_24  and  N_64
REMARK    6  A    between atoms: C_27  and  C_30
REMARK    7  A    between atoms: C_27  and  O_37
REMARK                            x       y       z     vdW  Elec       q    Type
REMARK                         _______ _______ _______ _____ _____    ______ ____
ROOT
ATOM      1  C   UNL     1       1.135   9.992  -1.256  0.00  0.00    +0.101 A 
ATOM      2  C   UNL     1       1.451  11.325  -0.999  0.00  0.00    +0.020 A 
ATOM      3  C   UNL     1       2.496  11.919  -1.706  0.00  0.00    +0.020 A 
ATOM      4  C   UNL     1       3.189  11.204  -2.628  0.00  0.00    +0.003 A 
ATOM      5  N   UNL     1       2.887   9.908  -2.883  0.00  0.00    -0.327 N 
ATOM      6  H   UNL     1       3.399   9.420  -3.547  0.00  0.00    +0.169 HD
ATOM      7  C   UNL     1       1.891   9.284  -2.224  0.00  0.00    +0.261 A 
ATOM      8  O   UNL     1       1.638   8.116  -2.464  0.00  0.00    -0.267 OA
ENDROOT
BRANCH   1  10
ATOM      9  N   UNL     1      -0.181   8.011  -0.701  0.00  0.00    -0.308 N 
ATOM     10  C   UNL     1       0.040   9.330  -0.530  0.00  0.00    +0.249 C 
ATOM     11  O   UNL     1      -0.666   9.972   0.224  0.00  0.00    -0.270 OA
ATOM     12  H   UNL     1       0.333   7.515  -1.357  0.00  0.00    +0.149 HD
BRANCH   9  13
ATOM     13  C   UNL     1      -1.197   7.329   0.103  0.00  0.00    +0.152 C 
BRANCH  13  22
ATOM     14  C   UNL     1       0.044   1.081   0.090  0.00  0.00    +0.004 A 
ATOM     15  C   UNL     1       1.228   1.796   0.080  0.00  0.00    +0.004 A 
ATOM     16  C   UNL     1       1.203   3.178   0.075  0.00  0.00    +0.049 A 
ATOM     17  C   UNL     1      -0.009   3.851   0.081  0.00  0.00    +0.163 A 
ATOM     18  C   UNL     1      -1.199   3.133   0.087  0.00  0.00    +0.162 A 
ATOM     19  C   UNL     1      -1.167   1.746   0.088  0.00  0.00    +0.049 A 
ATOM     20  O   UNL     1      -2.400   3.774   0.088  0.00  0.00    -0.485 OA
ATOM     21  C   UNL     1      -2.391   5.155   0.464  0.00  0.00    +0.275 C 
ATOM     22  C   UNL     1      -1.246   5.849  -0.285  0.00  0.00    +0.228 C 
ATOM     23  O   UNL     1      -0.018   5.213   0.084  0.00  0.00    -0.480 OA
ENDBRANCH  13  22
ENDBRANCH   9  13
ENDBRANCH   1  10
BRANCH   4  24
ATOM     24  C   UNL     1       4.315  11.862  -3.382  0.00  0.00    -0.025 C 
BRANCH  24  30
ATOM     25  C   UNL     1       5.920  11.446  -1.619  0.00  0.00    -0.075 C 
ATOM     26  C   UNL     1       7.168  10.641  -1.251  0.00  0.00    +0.021 C 
ATOM     27  C   UNL     1       8.331  11.072  -2.148  0.00  0.00    +0.088 C 
ATOM     28  C   UNL     1       7.938  10.866  -3.614  0.00  0.00    +0.021 C 
ATOM     29  C   UNL     1       6.668  11.665  -3.913  0.00  0.00    -0.075 C 
ATOM     30  N   UNL     1       5.581  11.185  -3.034  0.00  0.00    +0.383 N 
ATOM     31  H   UNL     1       5.466  10.174  -3.168  0.00  0.00    -0.081 HD
BRANCH  27  32
ATOM     32  C   UNL     1       9.548  10.241  -1.831  0.00  0.00    -0.016 A 
ATOM     33  C   UNL     1       9.764   9.050  -2.499  0.00  0.00    +0.008 A 
ATOM     34  C   UNL     1      10.883   8.290  -2.213  0.00  0.00    +0.020 A 
ATOM     35  C   UNL     1      11.781   8.717  -1.250  0.00  0.00    +0.041 A 
ATOM     36  C   UNL     1      11.560   9.906  -0.578  0.00  0.00    +0.020 A 
ATOM     37  C   UNL     1      10.444  10.667  -0.869  0.00  0.00    +0.008 A 
ATOM     38 CL   UNL     1      13.183   7.760  -0.885  0.00  0.00    -0.084 Cl
ENDBRANCH  27  32
BRANCH  27  39
ATOM     39  O   UNL     1       8.623  12.452  -1.921  0.00  0.00    -0.384 OA
ATOM     40  H   UNL     1       8.880  12.655  -1.012  0.00  0.00    +0.211 HD
ENDBRANCH  27  39
ENDBRANCH  24  30
ENDBRANCH   4  24
TORSDOF 7
