REMARK  Name = ZINC64774011
REMARK  7 active torsions:
REMARK  status: ('A' for Active; 'I' for Inactive)
REMARK    1  A    between atoms: C_3  and  C_8
REMARK    2  A    between atoms: C_8  and  S_9
REMARK    3  A    between atoms: S_9  and  C_10
REMARK    4  A    between atoms: C_16  and  C_24
REMARK    5  A    between atoms: C_27  and  O_30
REMARK    6  A    between atoms: O_30  and  C_31
REMARK    7  A    between atoms: C_31  and  C_32
REMARK                            x       y       z     vdW  Elec       q    Type
REMARK                         _______ _______ _______ _____ _____    ______ ____
ROOT
ATOM      1  C   UNL     1       5.712   3.384   1.508  0.00  0.00    +0.182 C 
ATOM      2  N   UNL     1       6.122   3.649   0.280  0.00  0.00    -0.154 NA
ATOM      3  C   UNL     1       7.212   4.379   0.037  0.00  0.00    +0.249 C 
ATOM      4  O   UNL     1       7.596   4.595  -1.096  0.00  0.00    -0.273 OA
ATOM      5  C   UNL     1       7.947   4.927   1.243  0.00  0.00    +0.148 C 
ATOM      6  C   UNL     1       9.406   4.475   1.161  0.00  0.00    +0.047 C 
ATOM      7  C   UNL     1      10.194   5.163   2.279  0.00  0.00    +0.105 C 
ATOM      8  C   UNL     1       9.492   5.022   3.598  0.00  0.00    +0.219 C 
ATOM      9  O   UNL     1      10.129   5.195   4.614  0.00  0.00    -0.275 OA
ATOM     10  N   UNL     1       8.188   4.714   3.702  0.00  0.00    -0.273 N 
ATOM     11  C   UNL     1       7.436   4.464   2.595  0.00  0.00    +0.117 C 
ATOM     12  N   UNL     1       6.347   3.751   2.628  0.00  0.00    -0.212 NA
ATOM     13  H   UNL     1       7.771   4.682   4.577  0.00  0.00    +0.156 HD
ENDROOT
BRANCH   6  14
ATOM     14  C   UNL     1       9.980   4.860  -0.178  0.00  0.00    -0.042 A 
ATOM     15  C   UNL     1      10.027   6.191  -0.552  0.00  0.00    +0.007 A 
ATOM     16  C   UNL     1      10.552   6.546  -1.780  0.00  0.00    +0.046 A 
ATOM     17  C   UNL     1      11.033   5.567  -2.637  0.00  0.00    +0.121 A 
ATOM     18  C   UNL     1      10.986   4.233  -2.259  0.00  0.00    +0.046 A 
ATOM     19  C   UNL     1      10.464   3.883  -1.028  0.00  0.00    +0.007 A 
BRANCH  17  20
ATOM     20  O   UNL     1      11.550   5.915  -3.845  0.00  0.00    -0.483 OA
BRANCH  20  21
ATOM     21  C   UNL     1      12.027   4.854  -4.676  0.00  0.00    +0.324 C 
BRANCH  21  22
ATOM     22  C   UNL     1      12.559   5.426  -5.964  0.00  0.00    +0.248 C 
ATOM     23  O   UNL     1      12.533   6.624  -6.153  0.00  0.00    -0.272 OA
ATOM     24  N   UNL     1      13.065   4.606  -6.907  0.00  0.00    -0.327 N 
ATOM     25  H   UNL     1      13.086   3.648  -6.756  0.00  0.00    +0.145 HD
ATOM     26  H   UNL     1      13.408   4.974  -7.737  0.00  0.00    +0.145 HD
ENDBRANCH  21  22
ENDBRANCH  20  21
ENDBRANCH  17  20
ENDBRANCH   6  14
BRANCH   1  27
ATOM     27  S   UNL     1       4.207   2.485   1.686  0.00  0.00    -0.084 S 
BRANCH  27  28
ATOM     28  C   UNL     1       3.672   2.184  -0.021  0.00  0.00    +0.112 C 
BRANCH  28  31
ATOM     29  C   UNL     1      -0.017   1.378   0.010  0.00  0.00    +0.002 A 
ATOM     30  C   UNL     1       1.171   2.086   0.002  0.00  0.00    +0.004 A 
ATOM     31  C   UNL     1       2.378   1.412  -0.013  0.00  0.00    -0.036 A 
ATOM     32  C   UNL     1       2.398   0.029  -0.021  0.00  0.00    +0.024 A 
ATOM     33  C   UNL     1       1.210  -0.679  -0.013  0.00  0.00    +0.041 A 
ATOM     34  C   UNL     1       0.002  -0.004   0.002  0.00  0.00    +0.020 A 
ATOM     35 CL   UNL     1       1.234  -2.415  -0.024  0.00  0.00    -0.084 Cl
ENDBRANCH  28  31
ENDBRANCH  27  28
ENDBRANCH   1  27
TORSDOF 7
