REMARK  Name = ZINC41077017
REMARK  9 active torsions:
REMARK  status: ('A' for Active; 'I' for Inactive)
REMARK    1  A    between atoms: C_1  and  C_2
REMARK    2  A    between atoms: C_5  and  O_28
REMARK    3  A    between atoms: C_6  and  N_8
REMARK    4  A    between atoms: N_11  and  C_12
REMARK    5  A    between atoms: N_11  and  C_25
REMARK    6  A    between atoms: C_12  and  C_13
REMARK    7  A    between atoms: C_25  and  C_26
REMARK    8  A    between atoms: C_25  and  C_27
REMARK    9  A    between atoms: O_28  and  C_29
REMARK                            x       y       z     vdW  Elec       q    Type
REMARK                         _______ _______ _______ _____ _____    ______ ____
ROOT
ATOM      1  N   UNL     1       0.316  -0.849   3.637  0.00  0.00    -0.266 N 
ATOM      2  C   UNL     1       0.073  -2.175   3.659  0.00  0.00    +0.307 C 
ATOM      3  O   UNL     1       0.130  -2.821   2.630  0.00  0.00    -0.252 OA
ATOM      4  N   UNL     1      -0.232  -2.785   4.822  0.00  0.00    -0.279 N 
ATOM      5  H   UNL     1       0.347  -0.348   4.467  0.00  0.00    +0.156 HD
ENDROOT
BRANCH   1  11
ATOM      6  C   UNL     1       1.861  -0.989  -1.029  0.00  0.00    +0.044 C 
ATOM      7  C   UNL     1       1.272  -0.238   0.137  0.00  0.00    -0.048 A 
ATOM      8  C   UNL     1       0.938   1.097  -0.000  0.00  0.00    +0.007 A 
ATOM      9  C   UNL     1       0.397   1.791   1.066  0.00  0.00    +0.048 A 
ATOM     10  C   UNL     1       0.189   1.149   2.276  0.00  0.00    +0.141 A 
ATOM     11  C   UNL     1       0.525  -0.195   2.415  0.00  0.00    +0.077 A 
ATOM     12  C   UNL     1       1.061  -0.887   1.339  0.00  0.00    +0.030 A 
BRANCH  10  13
ATOM     13  O   UNL     1      -0.342   1.831   3.326  0.00  0.00    -0.493 OA
ATOM     14  C   UNL     1      -0.662   3.207   3.111  0.00  0.00    +0.277 C 
ENDBRANCH  10  13
ENDBRANCH   1  11
BRANCH   4  15
ATOM     15  C   UNL     1      -0.356  -4.244   4.873  0.00  0.00    +0.072 C 
ATOM     16  C   UNL     1       0.579  -4.797   5.951  0.00  0.00    +0.028 C 
ATOM     17  C   UNL     1      -1.800  -4.621   5.207  0.00  0.00    +0.028 C 
ENDBRANCH   4  15
BRANCH   4  18
ATOM     18  C   UNL     1      -0.441  -1.989   6.034  0.00  0.00    +0.145 C 
BRANCH  18  19
ATOM     19  C   UNL     1       0.891  -1.683   6.669  0.00  0.00    -0.016 A 
ATOM     20  C   UNL     1       2.049  -1.994   6.036  0.00  0.00    +0.076 A 
ATOM     21  C   UNL     1       3.290  -1.703   6.641  0.00  0.00    +0.249 A 
ATOM     22  O   UNL     1       4.319  -1.992   6.054  0.00  0.00    -0.268 OA
ATOM     23  N   UNL     1       3.367  -1.115   7.847  0.00  0.00    -0.322 N 
ATOM     24  H   UNL     1       4.237  -0.929   8.234  0.00  0.00    +0.169 HD
ATOM     25  C   UNL     1       2.227  -0.772   8.543  0.00  0.00    +0.049 A 
ATOM     26  C   UNL     1       0.963  -1.036   7.981  0.00  0.00    +0.003 A 
ATOM     27  C   UNL     1      -0.197  -0.686   8.679  0.00  0.00    +0.010 A 
ATOM     28  C   UNL     1      -0.095  -0.084   9.902  0.00  0.00    +0.001 A 
ATOM     29  C   UNL     1       1.149   0.183  10.456  0.00  0.00    +0.002 A 
ATOM     30  C   UNL     1       2.305  -0.164   9.791  0.00  0.00    +0.026 A 
ENDBRANCH  18  19
ENDBRANCH   4  18
TORSDOF 5
