REMARK  Name = ZINC00643833
REMARK  9 active torsions:
REMARK  status: ('A' for Active; 'I' for Inactive)
REMARK    1  A    between atoms: C_1  and  C_2
REMARK    2  A    between atoms: C_5  and  C_8
REMARK    3  A    between atoms: C_8  and  O_9
REMARK    4  A    between atoms: O_9  and  C_10
REMARK    5  A    between atoms: C_15  and  C_16
REMARK    6  A    between atoms: C_18  and  C_31
REMARK    7  A    between atoms: C_19  and  N_30
REMARK    8  A    between atoms: C_26  and  C_28
REMARK    9  A    between atoms: C_26  and  C_29
REMARK                            x       y       z     vdW  Elec       q    Type
REMARK                         _______ _______ _______ _____ _____    ______ ____
ROOT
ATOM      1  C   UNL     1       1.238  -2.186  -0.021  0.00  0.00    +0.104 C 
ATOM      2  C   UNL     1       1.961  -2.679   1.201  0.00  0.00    +0.098 C 
ATOM      3  C   UNL     1       3.240  -3.113   1.115  0.00  0.00    +0.198 C 
ATOM      4  O   UNL     1       3.900  -3.112  -0.053  0.00  0.00    -0.445 OA
ATOM      5  C   UNL     1       3.212  -3.105  -1.210  0.00  0.00    +0.115 C 
ATOM      6  C   UNL     1       1.940  -2.669  -1.267  0.00  0.00    +0.046 C 
ATOM      7  C   UNL     1       1.228  -2.646  -2.481  0.00  0.00    +0.164 C 
ATOM      8  O   UNL     1       0.076  -2.260  -2.489  0.00  0.00    -0.292 OA
ATOM      9  C   UNL     1       1.867  -3.090  -3.768  0.00  0.00    +0.086 C 
ATOM     10  C   UNL     1       3.378  -2.855  -3.678  0.00  0.00    -0.021 C 
ATOM     11  C   UNL     1       3.912  -3.602  -2.454  0.00  0.00    +0.081 C 
ATOM     12  C   UNL     1       3.658  -1.359  -3.530  0.00  0.00    +0.012 C 
ATOM     13  C   UNL     1       4.062  -3.384  -4.941  0.00  0.00    +0.012 C 
ENDROOT
BRANCH   1  19
ATOM     14  C   UNL     1       0.002  -0.004   0.002  0.00  0.00    +0.125 A 
ATOM     15  C   UNL     1      -0.017   1.383   0.010  0.00  0.00    +0.046 A 
ATOM     16  C   UNL     1       1.171   2.089   0.002  0.00  0.00    +0.004 A 
ATOM     17  C   UNL     1       2.377   1.414  -0.013  0.00  0.00    +0.001 A 
ATOM     18  C   UNL     1       2.399   0.032  -0.021  0.00  0.00    +0.008 A 
ATOM     19  C   UNL     1       1.214  -0.679  -0.013  0.00  0.00    +0.007 A 
BRANCH  14  20
ATOM     20  O   UNL     1      -1.165  -0.701   0.009  0.00  0.00    -0.487 OA
BRANCH  20  21
ATOM     21  C   UNL     1      -2.374   0.060   0.024  0.00  0.00    +0.264 C 
BRANCH  21  26
ATOM     22  C   UNL     1      -6.906  -3.526   0.046  0.00  0.00    +0.044 C 
ATOM     23  C   UNL     1      -5.724  -2.591   0.041  0.00  0.00    -0.050 A 
ATOM     24  C   UNL     1      -5.171  -2.169   1.235  0.00  0.00    +0.004 A 
ATOM     25  C   UNL     1      -4.087  -1.311   1.230  0.00  0.00    +0.007 A 
ATOM     26  C   UNL     1      -3.556  -0.875   0.030  0.00  0.00    -0.010 A 
ATOM     27  C   UNL     1      -4.112  -1.293  -1.164  0.00  0.00    +0.007 A 
ATOM     28  C   UNL     1      -5.194  -2.155  -1.159  0.00  0.00    +0.004 A 
ENDBRANCH  21  26
ENDBRANCH  20  21
ENDBRANCH  14  20
ENDBRANCH   1  19
BRANCH   3  29
ATOM     29  N   UNL     1       3.876  -3.562   2.246  0.00  0.00    -0.328 N 
ATOM     30  H   UNL     1       4.793  -3.874   2.195  0.00  0.00    +0.145 HD
ATOM     31  H   UNL     1       3.408  -3.567   3.096  0.00  0.00    +0.145 HD
ENDBRANCH   3  29
BRANCH   2  32
ATOM     32  C   UNL     1       1.293  -2.691   2.467  0.00  0.00    +0.101 C 
ATOM     33  N   UNL     1       0.763  -2.700   3.472  0.00  0.00    -0.191 NA
ENDBRANCH   2  32
TORSDOF 6
