REMARK  Name = ZINC52566252
REMARK  9 active torsions:
REMARK  status: ('A' for Active; 'I' for Inactive)
REMARK    1  A    between atoms: C_1  and  C_2
REMARK    2  A    between atoms: C_6  and  C_8
REMARK    3  A    between atoms: C_12  and  C_19
REMARK    4  A    between atoms: C_21  and  O_25
REMARK    5  A    between atoms: O_25  and  C_26
REMARK    6  A    between atoms: C_26  and  C_27
REMARK    7  A    between atoms: C_27  and  C_29
REMARK    8  A    between atoms: C_27  and  N_39
REMARK    9  A    between atoms: C_29  and  C_30
REMARK                            x       y       z     vdW  Elec       q    Type
REMARK                         _______ _______ _______ _____ _____    ______ ____
ROOT
ATOM      1  C   UNL     1       3.954  -4.959  -0.522  0.00  0.00    +0.004 A 
ATOM      2  C   UNL     1       5.289  -5.322  -0.721  0.00  0.00    +0.057 A 
ATOM      3  C   UNL     1       5.616  -6.014  -1.880  0.00  0.00    +0.139 A 
ATOM      4  C   UNL     1       4.615  -6.319  -2.792  0.00  0.00    +0.156 A 
ATOM      5  N   UNL     1       3.365  -5.961  -2.572  0.00  0.00    -0.259 NA
ATOM      6  C   UNL     1       3.009  -5.309  -1.484  0.00  0.00    +0.119 A 
ENDROOT
BRANCH   1  10
ATOM      7  C   UNL     1       0.519  -2.660   2.527  0.00  0.00    +0.172 C 
ATOM      8  C   UNL     1       1.847  -3.179   2.026  0.00  0.00    -0.006 A 
ATOM      9  C   UNL     1       2.214  -3.864   0.893  0.00  0.00    +0.015 A 
ATOM     10  C   UNL     1       3.549  -4.218   0.698  0.00  0.00    -0.016 A 
ATOM     11  C   UNL     1       4.500  -3.872   1.657  0.00  0.00    +0.010 A 
ATOM     12  C   UNL     1       4.125  -3.186   2.789  0.00  0.00    +0.024 A 
ATOM     13  C   UNL     1       2.790  -2.830   2.987  0.00  0.00    +0.038 A 
ATOM     14  N   UNL     1       2.178  -2.145   4.036  0.00  0.00    -0.284 N 
ATOM     15  C   UNL     1       0.852  -2.003   3.850  0.00  0.00    +0.232 C 
ATOM     16  O   UNL     1       0.071  -1.453   4.598  0.00  0.00    -0.274 OA
ATOM     17  H   UNL     1       2.652  -1.810   4.813  0.00  0.00    +0.155 HD
BRANCH   7  22
ATOM     18  C   UNL     1      -0.019   1.526   0.010  0.00  0.00    +0.052 C 
ATOM     19  C   UNL     1       0.002  -0.004   0.002  0.00  0.00    +0.174 C 
ATOM     20  C   UNL     1      -1.433  -0.578   0.091  0.00  0.00    +0.074 C 
ATOM     21  C   UNL     1      -1.227  -1.785   0.991  0.00  0.00    +0.019 C 
ATOM     22  C   UNL     1      -0.051  -1.650   1.564  0.00  0.00    +0.111 C 
ATOM     23  O   UNL     1       0.600  -0.518   1.208  0.00  0.00    -0.492 OA
ENDBRANCH   7  22
ENDBRANCH   1  10
BRANCH   3  24
ATOM     24  O   UNL     1       6.901  -6.388  -2.118  0.00  0.00    -0.492 OA
BRANCH  24  25
ATOM     25  C   UNL     1       7.156  -7.097  -3.332  0.00  0.00    +0.213 C 
BRANCH  25  26
ATOM     26  C   UNL     1       8.646  -7.431  -3.425  0.00  0.00    -0.033 C 
BRANCH  26  27
ATOM     27  N   UNL     1       9.007  -8.362  -2.348  0.00  0.00    +0.382 N 
ATOM     28  H   UNL     1       8.466  -9.209  -2.441  0.00  0.00    -0.089 HD
ATOM     29  H   UNL     1       9.990  -8.582  -2.409  0.00  0.00    -0.089 HD
ATOM     30  H   UNL     1       8.813  -7.935  -1.454  0.00  0.00    -0.089 HD
ENDBRANCH  26  27
BRANCH  26  31
ATOM     31  C   UNL     1       8.941  -8.078  -4.779  0.00  0.00    +0.020 C 
BRANCH  31  32
ATOM     32  C   UNL     1      10.425  -8.295  -4.920  0.00  0.00    -0.043 C 
ATOM     33  C   UNL     1      11.112  -9.426  -4.642  0.00  0.00    -0.001 A 
ATOM     34  C   UNL     1      10.698 -10.743  -4.144  0.00  0.00    +0.010 A 
ATOM     35  C   UNL     1      11.637 -11.700  -3.959  0.00  0.00    +0.001 A 
ATOM     36  C   UNL     1      12.992 -11.465  -4.232  0.00  0.00    +0.002 A 
ATOM     37  C   UNL     1      13.448 -10.281  -4.692  0.00  0.00    +0.026 A 
ATOM     38  C   UNL     1      12.549  -9.204  -4.923  0.00  0.00    +0.043 A 
ATOM     39  N   UNL     1      12.742  -7.982  -5.358  0.00  0.00    -0.380 N 
ATOM     40  C   UNL     1      11.448  -7.293  -5.407  0.00  0.00    +0.144 C 
ATOM     41  H   UNL     1      13.598  -7.600  -5.608  0.00  0.00    +0.160 HD
ENDBRANCH  31  32
ENDBRANCH  26  31
ENDBRANCH  25  26
ENDBRANCH  24  25
ENDBRANCH   3  24
TORSDOF 8
