REMARK  Name = ZINC31783223
REMARK  10 active torsions:
REMARK  status: ('A' for Active; 'I' for Inactive)
REMARK    1  A    between atoms: C_1  and  C_2
REMARK    2  A    between atoms: N_13  and  C_16
REMARK    3  A    between atoms: C_16  and  C_18
REMARK    4  A    between atoms: C_16  and  C_19
REMARK    5  A    between atoms: N_21  and  N_22
REMARK    6  A    between atoms: C_23  and  C_24
REMARK    7  A    between atoms: C_27  and  C_30
REMARK    8  A    between atoms: C_30  and  C_31
REMARK    9  A    between atoms: C_30  and  C_32
REMARK   10  A    between atoms: C_30  and  C_33
REMARK                            x       y       z     vdW  Elec       q    Type
REMARK                         _______ _______ _______ _____ _____    ______ ____
ROOT
ATOM      1  C   UNL     1      -1.111  -0.048  -0.451  0.00  0.00    +0.176 C 
ATOM      2  C   UNL     1      -2.357  -0.412  -1.261  0.00  0.00    +0.041 C 
ENDROOT
BRANCH   1  14
ATOM      3  C   UNL     1       4.642   6.790  -2.705  0.00  0.00    +0.008 C 
ATOM      4  C   UNL     1       3.690   5.834  -1.983  0.00  0.00    -0.009 C 
ATOM      5  C   UNL     1       3.423   4.612  -2.866  0.00  0.00    +0.008 C 
ATOM      6  C   UNL     1       2.683   3.542  -2.061  0.00  0.00    +0.037 C 
ATOM      7  C   UNL     1       1.450   4.173  -1.420  0.00  0.00    -0.023 A 
ATOM      8  C   UNL     1       1.353   5.512  -1.286  0.00  0.00    -0.004 A 
ATOM      9  S   UNL     1      -0.217   5.782  -0.507  0.00  0.00    -0.073 S 
ATOM     10  C   UNL     1      -0.737   4.091  -0.365  0.00  0.00    +0.116 A 
ATOM     11  C   UNL     1       0.330   3.373  -0.928  0.00  0.00    +0.076 A 
ATOM     12  C   UNL     1       0.177   1.948  -0.946  0.00  0.00    +0.263 A 
ATOM     13  O   UNL     1       1.050   1.237  -1.414  0.00  0.00    -0.267 OA
ATOM     14  N   UNL     1      -0.946   1.407  -0.437  0.00  0.00    -0.287 N 
ATOM     15  C   UNL     1      -1.930   2.184   0.084  0.00  0.00    +0.204 A 
ATOM     16  N   UNL     1      -1.818   3.485   0.119  0.00  0.00    -0.230 NA
ATOM     17  C   UNL     1       2.356   6.542  -1.705  0.00  0.00    +0.046 C 
ENDBRANCH   1  14
BRANCH   1  18
ATOM     18  C   UNL     1      -1.267  -0.549   0.962  0.00  0.00    +0.255 C 
ATOM     19  O   UNL     1      -1.242   0.232   1.889  0.00  0.00    -0.272 OA
ATOM     20  N   UNL     1      -1.434  -1.866   1.195  0.00  0.00    -0.205 N 
ATOM     21  H   UNL     1      -1.457  -2.575   0.355  0.00  0.00    +0.177 HD
BRANCH  20  22
ATOM     22  N   UNL     1      -1.579  -2.332   2.509  0.00  0.00    -0.188 NA
ATOM     23  C   UNL     1      -1.621  -3.608   2.744  0.00  0.00    +0.138 C 
BRANCH  23  24
ATOM     24  C   UNL     1      -1.059  -4.557   1.765  0.00  0.00    -0.005 A 
ATOM     25  C   UNL     1      -1.338  -5.921   1.870  0.00  0.00    +0.010 A 
ATOM     26  C   UNL     1      -0.814  -6.803   0.948  0.00  0.00    +0.005 A 
ATOM     27  C   UNL     1      -0.003  -6.339  -0.073  0.00  0.00    -0.042 A 
ATOM     28  C   UNL     1       0.283  -4.990  -0.180  0.00  0.00    +0.005 A 
ATOM     29  C   UNL     1      -0.239  -4.096   0.732  0.00  0.00    +0.010 A 
BRANCH  27  30
ATOM     30  C   UNL     1       0.573  -7.309  -1.073  0.00  0.00    -0.013 C 
ATOM     31  C   UNL     1       2.100  -7.247  -1.022  0.00  0.00    +0.015 C 
ATOM     32  C   UNL     1       0.108  -8.727  -0.734  0.00  0.00    +0.015 C 
ATOM     33  C   UNL     1       0.093  -6.938  -2.478  0.00  0.00    +0.015 C 
ENDBRANCH  27  30
ENDBRANCH  23  24
ENDBRANCH  20  22
ENDBRANCH   1  18
TORSDOF 5
