REMARK  Name = ZINC14945074
REMARK  9 active torsions:
REMARK  status: ('A' for Active; 'I' for Inactive)
REMARK    1  A    between atoms: C_1  and  C_2
REMARK    2  A    between atoms: C_2  and  C_3
REMARK    3  A    between atoms: C_2  and  C_4
REMARK    4  A    between atoms: C_7  and  C_10
REMARK    5  A    between atoms: C_28  and  C_35
REMARK    6  A    between atoms: C_28  and  C_36
REMARK    7  A    between atoms: C_29  and  C_31
REMARK    8  A    between atoms: C_31  and  O_33
REMARK    9  A    between atoms: O_33  and  C_34
REMARK                            x       y       z     vdW  Elec       q    Type
REMARK                         _______ _______ _______ _____ _____    ______ ____
ROOT
ATOM      1  C   UNL     1      -0.013   1.086   0.008  0.00  0.00    +0.086 C 
ATOM      2  C   UNL     1       1.399   1.596  -0.003  0.00  0.00    -0.007 A 
ATOM      3  C   UNL     1       2.364   0.975  -0.816  0.00  0.00    -0.012 A 
ATOM      4  C   UNL     1       2.031  -0.125  -1.625  0.00  0.00    +0.009 A 
ATOM      5  C   UNL     1       2.987  -0.703  -2.403  0.00  0.00    +0.001 A 
ATOM      6  C   UNL     1       4.294  -0.220  -2.409  0.00  0.00    +0.001 A 
ATOM      7  C   UNL     1       4.653   0.842  -1.638  0.00  0.00    +0.008 A 
ATOM      8  C   UNL     1       3.693   1.466  -0.822  0.00  0.00    -0.017 A 
ATOM      9  C   UNL     1       4.030   2.565  -0.013  0.00  0.00    +0.010 A 
ATOM     10  C   UNL     1       3.081   3.148   0.765  0.00  0.00    +0.024 A 
ATOM     11  C   UNL     1       1.763   2.671   0.776  0.00  0.00    +0.036 A 
ATOM     12  N   UNL     1       0.810   3.286   1.587  0.00  0.00    -0.317 N 
ATOM     13  C   UNL     1      -0.331   2.625   1.940  0.00  0.00    +0.030 C 
ATOM     14  C   UNL     1      -0.762   1.562   1.226  0.00  0.00    +0.025 C 
ATOM     15  C   UNL     1      -1.922   0.863   1.599  0.00  0.00    +0.162 C 
ATOM     16  O   UNL     1      -2.283  -0.088   0.935  0.00  0.00    -0.292 OA
ATOM     17  C   UNL     1      -2.727   1.270   2.803  0.00  0.00    +0.087 C 
ATOM     18  C   UNL     1      -1.798   1.936   3.823  0.00  0.00    -0.010 C 
ATOM     19  C   UNL     1      -1.099   3.116   3.143  0.00  0.00    +0.148 C 
ATOM     20  C   UNL     1      -0.753   0.927   4.303  0.00  0.00    +0.012 C 
ATOM     21  C   UNL     1      -2.617   2.440   5.013  0.00  0.00    +0.012 C 
ATOM     22  H   UNL     1       0.958   4.192   1.903  0.00  0.00    +0.152 HD
ENDROOT
BRANCH   1  26
ATOM     23  C   UNL     1      -2.026   2.474  -3.494  0.00  0.00    -0.045 A 
ATOM     24  C   UNL     1      -1.878   1.117  -3.274  0.00  0.00    +0.004 A 
ATOM     25  C   UNL     1      -1.226   0.668  -2.141  0.00  0.00    +0.005 A 
ATOM     26  C   UNL     1      -0.723   1.575  -1.228  0.00  0.00    -0.035 A 
ATOM     27  C   UNL     1      -0.876   2.932  -1.445  0.00  0.00    +0.005 A 
ATOM     28  C   UNL     1      -1.523   3.381  -2.581  0.00  0.00    +0.004 A 
BRANCH  23  30
ATOM     29  C   UNL     1      -3.956   3.792  -4.323  0.00  0.00    +0.012 C 
ATOM     30  C   UNL     1      -2.736   2.963  -4.730  0.00  0.00    +0.013 C 
ATOM     31  C   UNL     1      -1.784   3.830  -5.556  0.00  0.00    +0.012 C 
ENDBRANCH  23  30
ENDBRANCH   1  26
BRANCH  19  32
ATOM     32  C   UNL     1      -2.129   4.124   2.704  0.00  0.00    +0.316 C 
ATOM     33  O   UNL     1      -3.302   3.919   2.911  0.00  0.00    -0.250 OA
BRANCH  32  34
ATOM     34  O   UNL     1      -1.744   5.250   2.083  0.00  0.00    -0.467 OA
ATOM     35  C   UNL     1      -2.791   6.176   1.688  0.00  0.00    +0.280 C 
ENDBRANCH  32  34
ENDBRANCH  19  32
TORSDOF 4
