REMARK  Name = ZINC09474764
REMARK  9 active torsions:
REMARK  status: ('A' for Active; 'I' for Inactive)
REMARK    1  A    between atoms: C_1  and  C_2
REMARK    2  A    between atoms: C_2  and  N_52
REMARK    3  A    between atoms: C_8  and  N_13
REMARK    4  A    between atoms: C_9  and  C_10
REMARK    5  A    between atoms: C_14  and  C_16
REMARK    6  A    between atoms: C_16  and  C_17
REMARK    7  A    between atoms: C_17  and  C_18
REMARK    8  A    between atoms: C_18  and  S_19
REMARK    9  A    between atoms: S_19  and  C_20
REMARK                            x       y       z     vdW  Elec       q    Type
REMARK                         _______ _______ _______ _____ _____    ______ ____
ROOT
ATOM      1  C   UNL     1       7.589  14.247  -0.439  0.00  0.00    -0.074 C 
ATOM      2  C   UNL     1       8.138  12.883  -0.012  0.00  0.00    +0.018 C 
ATOM      3  C   UNL     1       6.983  11.888  -0.004  0.00  0.00    -0.027 A 
ATOM      4  C   UNL     1       5.706  12.331   0.012  0.00  0.00    -0.021 A 
ATOM      5  S   UNL     1       4.719  10.864   0.014  0.00  0.00    -0.079 S 
ATOM      6  C   UNL     1       5.982   9.677  -0.005  0.00  0.00    +0.084 A 
ATOM      7  C   UNL     1       7.139  10.446  -0.006  0.00  0.00    +0.068 A 
ATOM      8  C   UNL     1       5.261  13.761   0.025  0.00  0.00    -0.035 C 
ATOM      9  N   UNL     1       6.427  14.595   0.405  0.00  0.00    +0.383 N 
ATOM     10  H   UNL     1       6.662  14.412   1.388  0.00  0.00    -0.081 HD
ENDROOT
BRANCH   7  11
ATOM     11  C   UNL     1       8.466   9.823  -0.014  0.00  0.00    +0.244 C 
ATOM     12  O   UNL     1       9.013   9.570  -1.071  0.00  0.00    -0.270 OA
ATOM     13  N   UNL     1       9.081   9.531   1.149  0.00  0.00    -0.325 N 
ATOM     14  H   UNL     1       8.645   9.733   1.992  0.00  0.00    +0.145 HD
ATOM     15  H   UNL     1       9.959   9.120   1.144  0.00  0.00    +0.145 HD
ENDBRANCH   7  11
BRANCH   6  16
ATOM     16  N   UNL     1       5.866   8.296  -0.011  0.00  0.00    -0.279 N 
ATOM     17  C   UNL     1       4.646   7.722  -0.002  0.00  0.00    +0.218 C 
ATOM     18  O   UNL     1       3.651   8.414   0.011  0.00  0.00    -0.275 OA
ATOM     19  H   UNL     1       6.662   7.742  -0.021  0.00  0.00    +0.155 HD
BRANCH  17  20
ATOM     20  C   UNL     1       4.520   6.220  -0.008  0.00  0.00    +0.097 C 
BRANCH  20  21
ATOM     21  C   UNL     1       3.040   5.832   0.004  0.00  0.00    +0.020 C 
BRANCH  21  22
ATOM     22  C   UNL     1       2.912   4.308  -0.003  0.00  0.00    +0.075 C 
BRANCH  22  23
ATOM     23  S   UNL     1       1.157   3.849   0.011  0.00  0.00    -0.125 S 
BRANCH  23  24
ATOM     24  C   UNL     1       1.178   2.087   0.002  0.00  0.00    +0.008 A 
ATOM     25  C   UNL     1      -0.017   1.377   0.010  0.00  0.00    +0.017 A 
ATOM     26  C   UNL     1       0.002  -0.004   0.002  0.00  0.00    +0.039 A 
ATOM     27  C   UNL     1       1.210  -0.681  -0.013  0.00  0.00    +0.123 A 
ATOM     28  C   UNL     1       2.402   0.024  -0.021  0.00  0.00    +0.039 A 
ATOM     29  C   UNL     1       2.388   1.405  -0.013  0.00  0.00    +0.017 A 
ATOM     30  F   UNL     1       1.226  -2.032  -0.020  0.00  0.00    -0.205 F 
ENDBRANCH  23  24
ENDBRANCH  22  23
ENDBRANCH  21  22
ENDBRANCH  20  21
ENDBRANCH  17  20
ENDBRANCH   6  16
BRANCH   9  32
ATOM     31  C   UNL     1       5.845  16.359  -1.225  0.00  0.00    -0.017 C 
ATOM     32  C   UNL     1       6.097  16.027   0.247  0.00  0.00    -0.082 C 
ENDBRANCH   9  32
TORSDOF 8
