REMARK  Name = ZINC43429650
REMARK  13 active torsions:
REMARK  status: ('A' for Active; 'I' for Inactive)
REMARK    1  A    between atoms: C_1  and  C_2
REMARK    2  A    between atoms: C_5  and  N_21
REMARK    3  A    between atoms: C_6  and  C_20
REMARK    4  A    between atoms: C_7  and  S_8
REMARK    5  A    between atoms: S_8  and  N_11
REMARK    6  A    between atoms: N_11  and  C_12
REMARK    7  A    between atoms: C_12  and  C_13
REMARK    8  A    between atoms: C_12  and  C_14
REMARK    9  A    between atoms: C_12  and  C_15
REMARK   10  A    between atoms: C_15  and  C_16
REMARK   11  A    between atoms: C_16  and  C_17
REMARK   12  A    between atoms: C_16  and  C_18
REMARK   13  A    between atoms: C_16  and  C_19
REMARK                            x       y       z     vdW  Elec       q    Type
REMARK                         _______ _______ _______ _____ _____    ______ ____
ROOT
ATOM      1  S   UNL     1      -1.283  -0.198   1.763  0.00  0.00    +0.059 S 
ATOM      2  O   UNL     1      -0.177   0.670   1.970  0.00  0.00    -0.153 OA
ATOM      3  O   UNL     1      -1.648  -0.671   0.473  0.00  0.00    -0.153 OA
ENDROOT
BRANCH   1  10
ATOM      4  C   UNL     1      -1.923  -3.025   0.905  0.00  0.00    +0.046 C 
ATOM      5  C   UNL     1      -1.324  -2.878   2.280  0.00  0.00    -0.024 A 
ATOM      6  C   UNL     1      -1.097  -3.999   3.057  0.00  0.00    +0.007 A 
ATOM      7  C   UNL     1      -0.548  -3.868   4.317  0.00  0.00    +0.023 A 
ATOM      8  C   UNL     1      -0.225  -2.608   4.804  0.00  0.00    +0.029 A 
ATOM      9  C   UNL     1      -0.454  -1.484   4.022  0.00  0.00    -0.003 A 
ATOM     10  C   UNL     1      -0.998  -1.623   2.760  0.00  0.00    +0.113 A 
ATOM     11  C   UNL     1      -0.105  -0.115   4.546  0.00  0.00    +0.048 C 
BRANCH   8  12
ATOM     12  N   UNL     1       0.330  -2.472   6.079  0.00  0.00    -0.358 N 
ATOM     13  H   UNL     1       0.489  -3.258   6.625  0.00  0.00    +0.142 HD
ATOM     14  H   UNL     1       0.555  -1.592   6.418  0.00  0.00    +0.142 HD
ENDBRANCH   8  12
ENDBRANCH   1  10
BRANCH   1  15
ATOM     15  N   UNL     1      -2.613   0.573   2.379  0.00  0.00    -0.184 NA
ATOM     16  H   UNL     1      -2.519   1.445   2.791  0.00  0.00    +0.149 HD
BRANCH  15  17
ATOM     17  C   UNL     1      -3.930  -0.064   2.300  0.00  0.00    +0.035 C 
ATOM     18  C   UNL     1      -4.337  -0.214   0.833  0.00  0.00    +0.029 C 
ATOM     19  C   UNL     1      -3.869  -1.445   2.956  0.00  0.00    +0.029 C 
BRANCH  17  20
ATOM     20  C   UNL     1      -4.959   0.802   3.029  0.00  0.00    +0.029 C 
BRANCH  20  21
ATOM     21  C   UNL     1      -4.290   1.499   4.216  0.00  0.00    -0.036 C 
ATOM     22  C   UNL     1      -3.558   2.750   3.727  0.00  0.00    +0.010 C 
ATOM     23  C   UNL     1      -5.356   1.899   5.239  0.00  0.00    +0.010 C 
ATOM     24  C   UNL     1      -3.289   0.544   4.869  0.00  0.00    +0.010 C 
ENDBRANCH  20  21
ENDBRANCH  17  20
ENDBRANCH  15  17
ENDBRANCH   1  15
TORSDOF 6
