REMARK  Name = ZINC63426769
REMARK  15 active torsions:
REMARK  status: ('A' for Active; 'I' for Inactive)
REMARK    1  A    between atoms: C_1  and  C_2
REMARK    2  A    between atoms: C_5  and  N_9
REMARK    3  A    between atoms: C_6  and  C_8
REMARK    4  A    between atoms: C_10  and  C_12
REMARK    5  A    between atoms: C_12  and  S_13
REMARK    6  A    between atoms: S_13  and  C_14
REMARK    7  A    between atoms: C_18  and  C_21
REMARK    8  A    between atoms: C_21  and  C_23
REMARK    9  A    between atoms: C_21  and  N_33
REMARK   10  A    between atoms: C_23  and  C_24
REMARK   11  A    between atoms: C_34  and  O_36
REMARK   12  A    between atoms: O_36  and  C_37
REMARK   13  A    between atoms: C_37  and  C_38
REMARK   14  A    between atoms: C_37  and  C_39
REMARK   15  A    between atoms: C_37  and  C_40
REMARK                            x       y       z     vdW  Elec       q    Type
REMARK                         _______ _______ _______ _____ _____    ______ ____
ROOT
ATOM      1  C   UNL     1       0.945 -10.492   0.066  0.00  0.00    +0.133 C 
ENDROOT
BRANCH   1   5
ATOM      2  C   UNL     1      -0.359  -8.743  -2.723  0.00  0.00    +0.319 C 
ATOM      3  N   UNL     1      -1.502  -9.109  -1.877  0.00  0.00    -0.146 NA
ATOM      4  N   UNL     1      -1.112  -9.407  -0.740  0.00  0.00    -0.155 NA
ATOM      5  C   UNL     1       0.349  -9.284  -0.660  0.00  0.00    +0.280 C 
ATOM      6  O   UNL     1       0.803  -9.248  -2.032  0.00  0.00    -0.316 OA
BRANCH   2   7
ATOM      7  S   UNL     1      -0.255  -6.941  -2.895  0.00  0.00    -0.095 S 
BRANCH   7   8
ATOM      8  C   UNL     1      -0.134  -6.343  -1.187  0.00  0.00    +0.169 C 
BRANCH   8  10
ATOM      9  N   UNL     1       0.059  -4.170  -0.021  0.00  0.00    -0.285 N 
ATOM     10  C   UNL     1      -0.040  -4.839  -1.187  0.00  0.00    +0.227 C 
ATOM     11  O   UNL     1      -0.054  -4.230  -2.236  0.00  0.00    -0.275 OA
ATOM     12  H   UNL     1       0.135  -4.658   0.814  0.00  0.00    +0.155 HD
BRANCH   9  17
ATOM     13  C   UNL     1       0.025   1.503   0.005  0.00  0.00    +0.044 C 
ATOM     14  C   UNL     1       0.034  -0.004  -0.002  0.00  0.00    -0.050 A 
ATOM     15  C   UNL     1       0.632  -0.685  -1.046  0.00  0.00    +0.005 A 
ATOM     16  C   UNL     1       0.641  -2.066  -1.055  0.00  0.00    +0.024 A 
ATOM     17  C   UNL     1       0.051  -2.771  -0.014  0.00  0.00    +0.036 A 
ATOM     18  C   UNL     1      -0.548  -2.083   1.033  0.00  0.00    -0.029 A 
ATOM     19  C   UNL     1      -0.550  -0.702   1.039  0.00  0.00    +0.008 A 
ATOM     20  C   UNL     1      -1.190  -2.843   2.165  0.00  0.00    +0.045 C 
ENDBRANCH   9  17
ENDBRANCH   8  10
ENDBRANCH   7   8
ENDBRANCH   2   7
ENDBRANCH   1   5
BRANCH   1  21
ATOM     21  N   UNL     1       2.404 -10.368   0.105  0.00  0.00    -0.274 N 
ATOM     22  C   UNL     1       2.974  -9.309   0.713  0.00  0.00    +0.401 C 
ATOM     23  O   UNL     1       2.278  -8.457   1.229  0.00  0.00    -0.226 OA
ATOM     24  H   UNL     1       2.960 -11.048  -0.307  0.00  0.00    +0.152 HD
BRANCH  22  25
ATOM     25  O   UNL     1       4.315  -9.195   0.749  0.00  0.00    -0.445 OA
BRANCH  25  26
ATOM     26  C   UNL     1       4.851  -8.047   1.410  0.00  0.00    +0.107 C 
ATOM     27  C   UNL     1       4.399  -8.043   2.872  0.00  0.00    +0.055 C 
ATOM     28  C   UNL     1       6.379  -8.090   1.349  0.00  0.00    +0.055 C 
ATOM     29  C   UNL     1       4.349  -6.779   0.718  0.00  0.00    +0.055 C 
ENDBRANCH  25  26
ENDBRANCH  22  25
ENDBRANCH   1  21
BRANCH   1  30
ATOM     30  C   UNL     1       0.400 -10.549   1.494  0.00  0.00    +0.060 C 
BRANCH  30  31
ATOM     31  C   UNL     1       0.889 -11.804   2.169  0.00  0.00    -0.040 C 
ATOM     32  C   UNL     1       1.972 -11.928   2.969  0.00  0.00    -0.001 A 
ATOM     33  C   UNL     1       2.982 -10.968   3.431  0.00  0.00    +0.010 A 
ATOM     34  C   UNL     1       3.973 -11.399   4.245  0.00  0.00    +0.001 A 
ATOM     35  C   UNL     1       4.059 -12.736   4.656  0.00  0.00    +0.002 A 
ATOM     36  C   UNL     1       3.170 -13.676   4.273  0.00  0.00    +0.026 A 
ATOM     37  C   UNL     1       2.086 -13.334   3.418  0.00  0.00    +0.043 A 
ATOM     38  N   UNL     1       1.111 -14.052   2.915  0.00  0.00    -0.380 N 
ATOM     39  C   UNL     1       0.263 -13.179   2.094  0.00  0.00    +0.144 C 
ATOM     40  H   UNL     1       0.970 -15.000   3.065  0.00  0.00    +0.160 HD
ENDBRANCH  30  31
ENDBRANCH   1  30
TORSDOF 10
