REMARK  Name = ZINC21526005
REMARK  13 active torsions:
REMARK  status: ('A' for Active; 'I' for Inactive)
REMARK    1  A    between atoms: C_1  and  C_2
REMARK    2  A    between atoms: C_2  and  C_3
REMARK    3  A    between atoms: C_3  and  N_4
REMARK    4  A    between atoms: N_4  and  C_5
REMARK    5  A    between atoms: N_4  and  C_8
REMARK    6  A    between atoms: C_5  and  C_6
REMARK    7  A    between atoms: C_6  and  C_7
REMARK    8  A    between atoms: C_8  and  C_9
REMARK    9  A    between atoms: C_9  and  C_10
REMARK   10  A    between atoms: C_10  and  N_11
REMARK   11  A    between atoms: C_20  and  C_21
REMARK   12  A    between atoms: C_20  and  C_22
REMARK   13  A    between atoms: N_24  and  C_25
REMARK                            x       y       z     vdW  Elec       q    Type
REMARK                         _______ _______ _______ _____ _____    ______ ____
ROOT
ATOM      1  N   UNL     1      -3.348   1.759   0.931  0.00  0.00    -0.281 N 
ATOM      2  C   UNL     1      -2.410   0.954   1.484  0.00  0.00    +0.264 C 
ATOM      3  O   UNL     1      -2.683  -0.157   1.902  0.00  0.00    -0.268 OA
ATOM      4  C   UNL     1      -1.045   1.491   1.546  0.00  0.00    +0.106 A 
ATOM      5  C   UNL     1       0.133   0.889   1.871  0.00  0.00    +0.048 A 
ATOM      6  C   UNL     1       1.126   1.859   1.786  0.00  0.00    +0.038 A 
ATOM      7  C   UNL     1       0.554   3.084   1.411  0.00  0.00    +0.057 A 
ATOM      8  N   UNL     1      -0.800   2.834   1.278  0.00  0.00    -0.333 N 
ATOM      9  C   UNL     1      -1.876   3.762   0.924  0.00  0.00    +0.157 C 
ATOM     10  C   UNL     1      -2.994   2.986   0.227  0.00  0.00    +0.128 C 
ATOM     11  C   UNL     1      -2.539   2.628  -1.189  0.00  0.00    +0.043 C 
ATOM     12  C   UNL     1       1.449   4.156   1.283  0.00  0.00    +0.034 A 
ATOM     13  C   UNL     1       2.765   3.975   1.520  0.00  0.00    +0.048 A 
ATOM     14  S   UNL     1       2.850   2.244   1.948  0.00  0.00    -0.095 S 
ENDROOT
BRANCH  10  15
ATOM     15  C   UNL     1      -4.215   3.865   0.138  0.00  0.00    +0.238 C 
ATOM     16  O   UNL     1      -4.532   4.356  -0.925  0.00  0.00    -0.273 OA
ATOM     17  N   UNL     1      -4.954   4.106   1.239  0.00  0.00    -0.311 N 
ATOM     18  H   UNL     1      -4.621   3.731   2.218  0.00  0.00    +0.149 HD
BRANCH  17  19
ATOM     19  C   UNL     1      -6.202   4.866   1.132  0.00  0.00    +0.073 C 
ATOM     20  C   UNL     1      -5.865   6.369   1.052  0.00  0.00    +0.022 C 
ATOM     21  C   UNL     1      -7.038   7.090   0.444  0.00  0.00    +0.002 C 
ATOM     22  C   UNL     1      -7.999   7.654   1.508  0.00  0.00    +0.000 C 
ATOM     23  C   UNL     1      -8.241   6.676   2.673  0.00  0.00    +0.000 C 
ATOM     24  C   UNL     1      -8.416   5.256   2.206  0.00  0.00    +0.002 C 
ATOM     25  C   UNL     1      -7.048   4.547   2.272  0.00  0.00    +0.022 C 
ENDBRANCH  17  19
ENDBRANCH  10  15
BRANCH   1  26
ATOM     26  C   UNL     1      -4.760   1.386   1.044  0.00  0.00    +0.107 C 
BRANCH  26  27
ATOM     27  C   UNL     1      -5.189   0.629  -0.214  0.00  0.00    +0.000 C 
BRANCH  27  28
ATOM     28  C   UNL     1      -6.690   0.338  -0.147  0.00  0.00    -0.077 C 
BRANCH  28  29
ATOM     29  N   UNL     1      -7.078  -0.499  -1.291  0.00  0.00    +0.380 N 
ATOM     30  H   UNL     1      -6.405  -1.369  -1.316  0.00  0.00    -0.082 HD
BRANCH  29  31
ATOM     31  C   UNL     1      -8.452  -0.996  -1.137  0.00  0.00    -0.079 C 
BRANCH  31  33
ATOM     32  C   UNL     1      -9.910  -2.592   0.114  0.00  0.00    +0.002 C 
ATOM     33  C   UNL     1      -8.512  -1.975   0.037  0.00  0.00    -0.022 C 
ENDBRANCH  31  33
ENDBRANCH  29  31
BRANCH  29  34
ATOM     34  C   UNL     1      -6.920   0.232  -2.555  0.00  0.00    -0.079 C 
BRANCH  34  35
ATOM     35  C   UNL     1      -7.136  -0.727  -3.728  0.00  0.00    -0.022 C 
ATOM     36  C   UNL     1      -6.845   0.001  -5.042  0.00  0.00    +0.002 C 
ENDBRANCH  34  35
ENDBRANCH  29  34
ENDBRANCH  28  29
ENDBRANCH  27  28
ENDBRANCH  26  27
ENDBRANCH   1  26
TORSDOF 10
