REMARK  Name = ZINC31531832
REMARK  12 active torsions:
REMARK  status: ('A' for Active; 'I' for Inactive)
REMARK    1  A    between atoms: C_1  and  C_2
REMARK    2  A    between atoms: C_2  and  C_3
REMARK    3  A    between atoms: C_2  and  C_4
REMARK    4  A    between atoms: C_4  and  C_6
REMARK    5  A    between atoms: C_4  and  N_21
REMARK    6  A    between atoms: N_8  and  C_9
REMARK    7  A    between atoms: N_8  and  C_10
REMARK    8  A    between atoms: C_10  and  C_11
REMARK    9  A    between atoms: C_14  and  C_17
REMARK   10  A    between atoms: N_19  and  C_20
REMARK   11  A    between atoms: N_21  and  S_22
REMARK   12  A    between atoms: S_22  and  C_25
REMARK                            x       y       z     vdW  Elec       q    Type
REMARK                         _______ _______ _______ _____ _____    ______ ____
ROOT
ATOM      1  C   UNL     1       2.382  -2.454  -2.508  0.00  0.00    +0.165 C 
ENDROOT
BRANCH   1   2
ATOM      2  C   UNL     1       1.914  -2.016  -3.872  0.00  0.00    +0.235 C 
ATOM      3  O   UNL     1       0.729  -2.009  -4.133  0.00  0.00    -0.274 OA
ATOM      4  N   UNL     1       2.811  -1.632  -4.801  0.00  0.00    -0.299 N 
ATOM      5  C   UNL     1       4.242  -1.640  -4.486  0.00  0.00    +0.132 C 
BRANCH   4   6
ATOM      6  C   UNL     1       2.356  -1.206  -6.127  0.00  0.00    +0.142 C 
BRANCH   6   7
ATOM      7  C   UNL     1       2.106   0.280  -6.119  0.00  0.00    -0.030 A 
ATOM      8  C   UNL     1       0.852   0.766  -5.793  0.00  0.00    +0.006 A 
ATOM      9  C   UNL     1       0.618   2.125  -5.779  0.00  0.00    +0.013 A 
ATOM     10  C   UNL     1       1.646   3.011  -6.105  0.00  0.00    +0.037 A 
ATOM     11  C   UNL     1       2.907   2.514  -6.439  0.00  0.00    +0.013 A 
ATOM     12  C   UNL     1       3.130   1.152  -6.444  0.00  0.00    +0.006 A 
BRANCH  10  13
ATOM     13  C   UNL     1       1.401   4.469  -6.098  0.00  0.00    +0.244 C 
ATOM     14  O   UNL     1       2.298   5.237  -6.382  0.00  0.00    -0.270 OA
ATOM     15  N   UNL     1       0.182   4.945  -5.775  0.00  0.00    -0.314 N 
ATOM     16  C   UNL     1      -0.061   6.390  -5.767  0.00  0.00    +0.128 C 
ATOM     17  H   UNL     1      -0.630   4.249  -5.518  0.00  0.00    +0.149 HD
ENDBRANCH  10  13
ENDBRANCH   6   7
ENDBRANCH   4   6
ENDBRANCH   1   2
BRANCH   1  19
ATOM     18  C   UNL     1       3.790  -4.102  -1.267  0.00  0.00    +0.009 C 
ATOM     19  C   UNL     1       3.307  -3.664  -2.651  0.00  0.00    +0.010 C 
ATOM     20  C   UNL     1       2.544  -4.814  -3.312  0.00  0.00    +0.009 C 
ENDBRANCH   1  19
BRANCH   1  21
ATOM     21  N   UNL     1       1.224  -2.818  -1.688  0.00  0.00    -0.178 NA
ATOM     22  H   UNL     1       0.456  -3.496  -2.090  0.00  0.00    +0.149 HD
BRANCH  21  23
ATOM     23  S   UNL     1       0.937  -2.026  -0.262  0.00  0.00    +0.059 S 
ATOM     24  O   UNL     1       2.152  -2.061   0.473  0.00  0.00    -0.153 OA
ATOM     25  O   UNL     1      -0.281  -2.547   0.254  0.00  0.00    -0.153 OA
BRANCH  23  26
ATOM     26  C   UNL     1       0.635  -0.336  -0.656  0.00  0.00    +0.105 A 
ATOM     27  C   UNL     1      -0.653   0.094  -0.916  0.00  0.00    +0.029 A 
ATOM     28  C   UNL     1      -0.890   1.420  -1.225  0.00  0.00    +0.017 A 
ATOM     29  C   UNL     1       0.162   2.317  -1.274  0.00  0.00    +0.018 A 
ATOM     30  C   UNL     1       1.450   1.887  -1.015  0.00  0.00    +0.017 A 
ATOM     31  C   UNL     1       1.687   0.560  -0.706  0.00  0.00    +0.029 A 
ATOM     32 BR   UNL     1      -0.162   4.132  -1.697  0.00  0.00    -0.050 Br
ENDBRANCH  23  26
ENDBRANCH  21  23
ENDBRANCH   1  21
TORSDOF 8
