REMARK  Name = ZINC45631720
REMARK  6 active torsions:
REMARK  status: ('A' for Active; 'I' for Inactive)
REMARK    1  A    between atoms: C_1  and  C_2
REMARK    2  A    between atoms: C_9  and  N_14
REMARK    3  A    between atoms: N_14  and  C_15
REMARK    4  A    between atoms: C_15  and  C_17
REMARK    5  A    between atoms: C_15  and  C_18
REMARK    6  A    between atoms: N_20  and  C_21
REMARK                            x       y       z     vdW  Elec       q    Type
REMARK                         _______ _______ _______ _____ _____    ______ ____
ROOT
ATOM      1  N   UNL     1       0.136  -6.079   2.051  0.00  0.00    -0.333 N 
ATOM      2  H   UNL     1      -0.629  -6.613   1.784  0.00  0.00    +0.147 HD
ENDROOT
BRANCH   1  10
ATOM      3  C   UNL     1      -0.339   1.146  -0.676  0.00  0.00    +0.062 C 
ATOM      4  C   UNL     1      -0.193  -0.375  -0.599  0.00  0.00    +0.256 C 
ATOM      5  C   UNL     1      -1.553  -1.016  -0.713  0.00  0.00    +0.258 C 
ATOM      6  O   UNL     1      -2.437  -0.462  -1.333  0.00  0.00    -0.271 OA
ATOM      7  N   UNL     1      -1.783  -2.209  -0.123  0.00  0.00    -0.279 N 
ATOM      8  C   UNL     1      -0.755  -2.811   0.617  0.00  0.00    +0.077 A 
ATOM      9  C   UNL     1      -0.826  -4.149   0.964  0.00  0.00    +0.050 A 
ATOM     10  C   UNL     1       0.203  -4.726   1.698  0.00  0.00    +0.030 A 
ATOM     11  C   UNL     1       1.297  -3.962   2.081  0.00  0.00    +0.026 A 
ATOM     12  C   UNL     1       1.367  -2.626   1.734  0.00  0.00    +0.049 A 
ATOM     13  C   UNL     1       0.345  -2.047   1.002  0.00  0.00    +0.143 A 
ATOM     14  O   UNL     1       0.402  -0.733   0.651  0.00  0.00    -0.478 OA
ATOM     15  H   UNL     1      -2.646  -2.642  -0.209  0.00  0.00    +0.155 HD
ENDBRANCH   1  10
BRANCH   1  16
ATOM     16  C   UNL     1       1.220  -6.688   2.825  0.00  0.00    +0.154 C 
ATOM     17  C   UNL     1       2.331  -7.142   1.877  0.00  0.00    +0.038 C 
BRANCH  16  18
ATOM     18  C   UNL     1       0.689  -7.877   3.583  0.00  0.00    +0.237 C 
ATOM     19  O   UNL     1      -0.480  -8.186   3.486  0.00  0.00    -0.273 OA
ATOM     20  N   UNL     1       1.514  -8.598   4.369  0.00  0.00    -0.284 N 
ATOM     21  H   UNL     1       2.463  -8.399   4.387  0.00  0.00    +0.155 HD
BRANCH  20  22
ATOM     22  C   UNL     1       1.000  -9.634   5.158  0.00  0.00    +0.036 A 
ATOM     23  C   UNL     1       1.768 -10.764   5.409  0.00  0.00    +0.026 A 
ATOM     24  C   UNL     1       1.261 -11.785   6.188  0.00  0.00    +0.043 A 
ATOM     25  C   UNL     1      -0.014 -11.685   6.718  0.00  0.00    +0.159 A 
ATOM     26  C   UNL     1      -0.784 -10.559   6.470  0.00  0.00    +0.160 A 
ATOM     27  C   UNL     1      -0.276  -9.532   5.695  0.00  0.00    +0.064 A 
ATOM     28  F   UNL     1      -2.028 -10.463   6.988  0.00  0.00    -0.202 F 
ATOM     29  F   UNL     1      -0.508 -12.686   7.479  0.00  0.00    -0.202 F 
ENDBRANCH  20  22
ENDBRANCH  16  18
ENDBRANCH   1  16
TORSDOF 4
