REMARK  Name = ZINC46842972
REMARK  10 active torsions:
REMARK  status: ('A' for Active; 'I' for Inactive)
REMARK    1  A    between atoms: C_1  and  C_2
REMARK    2  A    between atoms: C_2  and  C_3
REMARK    3  A    between atoms: C_2  and  C_4
REMARK    4  A    between atoms: C_2  and  C_5
REMARK    5  A    between atoms: C_10  and  N_13
REMARK    6  A    between atoms: C_14  and  C_16
REMARK    7  A    between atoms: C_16  and  C_17
REMARK    8  A    between atoms: C_17  and  C_18
REMARK    9  A    between atoms: N_23  and  S_26
REMARK   10  A    between atoms: S_26  and  C_29
REMARK                            x       y       z     vdW  Elec       q    Type
REMARK                         _______ _______ _______ _____ _____    ______ ____
ROOT
ATOM      1  C   UNL     1       1.731  -9.384  -2.566  0.00  0.00    +0.105 C 
ENDROOT
BRANCH   1   2
ATOM      2  C   UNL     1       2.571 -10.607  -2.306  0.00  0.00    +0.216 C 
ATOM      3  O   UNL     1       3.370 -10.611  -1.393  0.00  0.00    -0.276 OA
ATOM      4  N   UNL     1       2.436 -11.696  -3.088  0.00  0.00    -0.299 N 
ATOM      5  C   UNL     1       1.477 -11.703  -4.202  0.00  0.00    +0.125 C 
ATOM      6  C   UNL     1       2.226 -12.061  -5.491  0.00  0.00    +0.128 C 
ATOM      7  N   UNL     1       3.035 -13.263  -5.246  0.00  0.00    -0.174 NA
ATOM      8  C   UNL     1       3.994 -13.256  -4.133  0.00  0.00    +0.128 C 
ATOM      9  C   UNL     1       3.249 -12.896  -2.847  0.00  0.00    +0.125 C 
BRANCH   7  10
ATOM     10  S   UNL     1       2.869 -14.601  -6.207  0.00  0.00    +0.061 S 
ATOM     11  O   UNL     1       3.308 -15.711  -5.437  0.00  0.00    -0.153 OA
ATOM     12  O   UNL     1       1.567 -14.534  -6.774  0.00  0.00    -0.153 OA
BRANCH  10  13
ATOM     13  C   UNL     1       4.008 -14.430  -7.540  0.00  0.00    +0.105 A 
ATOM     14  C   UNL     1       3.620 -13.792  -8.704  0.00  0.00    +0.028 A 
ATOM     15  C   UNL     1       4.514 -13.658  -9.750  0.00  0.00    +0.002 A 
ATOM     16  C   UNL     1       5.796 -14.161  -9.632  0.00  0.00    +0.000 A 
ATOM     17  C   UNL     1       6.185 -14.798  -8.468  0.00  0.00    +0.002 A 
ATOM     18  C   UNL     1       5.292 -14.928  -7.421  0.00  0.00    +0.028 A 
ENDBRANCH  10  13
ENDBRANCH   7  10
ENDBRANCH   1   2
BRANCH   1  19
ATOM     19  C   UNL     1       2.078  -8.300  -1.543  0.00  0.00    +0.105 C 
BRANCH  19  21
ATOM     20  N   UNL     1       1.373  -5.987  -1.021  0.00  0.00    -0.312 N 
ATOM     21  C   UNL     1       1.237  -7.076  -1.803  0.00  0.00    +0.214 C 
ATOM     22  O   UNL     1       0.439  -7.072  -2.716  0.00  0.00    -0.276 OA
ATOM     23  H   UNL     1       2.011  -5.991  -0.290  0.00  0.00    +0.149 HD
BRANCH  20  29
ATOM     24  C   UNL     1       0.363  -0.695  -1.238  0.00  0.00    +0.221 C 
ATOM     25  O   UNL     1       0.920  -0.101  -2.138  0.00  0.00    -0.275 OA
ATOM     26  N   UNL     1       0.093  -2.009  -1.364  0.00  0.00    -0.301 N 
ATOM     27  C   UNL     1      -0.470  -2.768  -0.239  0.00  0.00    +0.109 C 
ATOM     28  C   UNL     1       0.414  -3.992   0.021  0.00  0.00    +0.041 C 
ATOM     29  C   UNL     1       0.555  -4.798  -1.273  0.00  0.00    +0.076 C 
ATOM     30  C   UNL     1       1.228  -3.934  -2.343  0.00  0.00    +0.041 C 
ATOM     31  C   UNL     1       0.348  -2.708  -2.631  0.00  0.00    +0.109 C 
BRANCH  24  33
ATOM     32  C   UNL     1       0.221   1.537  -0.166  0.00  0.00    +0.020 C 
ATOM     33  C   UNL     1      -0.025   0.038   0.020  0.00  0.00    +0.039 C 
ATOM     34  C   UNL     1       0.816  -0.476   1.190  0.00  0.00    +0.020 C 
ATOM     35  C   UNL     1      -1.507  -0.203   0.313  0.00  0.00    +0.020 C 
ENDBRANCH  24  33
ENDBRANCH  20  29
ENDBRANCH  19  21
ENDBRANCH   1  19
TORSDOF 7
