REMARK  Name = ZINC16225445
REMARK  8 active torsions:
REMARK  status: ('A' for Active; 'I' for Inactive)
REMARK    1  A    between atoms: C_1  and  C_2
REMARK    2  A    between atoms: C_2  and  O_3
REMARK    3  A    between atoms: O_3  and  C_4
REMARK    4  A    between atoms: C_6  and  C_15
REMARK    5  A    between atoms: C_9  and  O_10
REMARK    6  A    between atoms: O_10  and  S_11
REMARK    7  A    between atoms: S_11  and  C_14
REMARK    8  A    between atoms: C_25  and  C_27
REMARK                            x       y       z     vdW  Elec       q    Type
REMARK                         _______ _______ _______ _____ _____    ______ ____
ROOT
ATOM      1  C   UNL     1      -0.624   6.470   0.042  0.00  0.00    +0.024 C 
ATOM      2  C   UNL     1      -0.527   7.750  -0.456  0.00  0.00    +0.081 C 
ATOM      3  C   UNL     1      -1.657   8.717  -0.361  0.00  0.00    +0.153 C 
ATOM      4  N   UNL     1      -2.913   8.360  -0.413  0.00  0.00    -0.283 NA
ATOM      5  N   UNL     1      -1.238  10.057  -0.210  0.00  0.00    -0.152 N 
ATOM      6  C   UNL     1       0.034  10.379  -0.630  0.00  0.00    +0.181 C 
ATOM      7  N   UNL     1       0.950   9.567  -1.098  0.00  0.00    -0.152 NA
ATOM      8  C   UNL     1       0.710   8.243  -1.110  0.00  0.00    +0.273 C 
ATOM      9  O   UNL     1       1.488   7.471  -1.649  0.00  0.00    -0.268 OA
ATOM     10  S   UNL     1       0.100  12.125  -0.332  0.00  0.00    -0.032 S 
ATOM     11  C   UNL     1      -1.537  12.309   0.361  0.00  0.00    +0.136 C 
ATOM     12  N   UNL     1      -2.001  11.081   0.310  0.00  0.00    -0.164 NA
ATOM     13  H   UNL     1      -3.611   9.030  -0.346  0.00  0.00    +0.188 HD
ENDROOT
BRANCH   1  16
ATOM     14  C   UNL     1       1.578   3.441  -0.074  0.00  0.00    +0.165 A 
ATOM     15  C   UNL     1       0.454   4.239  -0.133  0.00  0.00    +0.057 A 
ATOM     16  C   UNL     1       0.565   5.617   0.104  0.00  0.00    -0.021 A 
ATOM     17  C   UNL     1       1.817   6.174   0.399  0.00  0.00    +0.012 A 
ATOM     18  C   UNL     1       2.932   5.369   0.456  0.00  0.00    +0.053 A 
ATOM     19  C   UNL     1       2.819   4.003   0.227  0.00  0.00    +0.198 A 
BRANCH  14  20
ATOM     20  O   UNL     1       1.475   2.104  -0.303  0.00  0.00    -0.488 OA
BRANCH  20  22
ATOM     21  C   UNL     1       0.256   0.084  -0.825  0.00  0.00    +0.048 C 
ATOM     22  C   UNL     1       0.173   1.595  -0.599  0.00  0.00    +0.226 C 
ENDBRANCH  20  22
ENDBRANCH  14  20
BRANCH  19  23
ATOM     23  O   UNL     1       3.922   3.214   0.289  0.00  0.00    -0.343 OA
BRANCH  23  24
ATOM     24  S   UNL     1       4.656   3.068  -1.036  0.00  0.00    +0.118 S 
ATOM     25  O   UNL     1       5.593   2.023  -0.819  0.00  0.00    -0.137 OA
ATOM     26  O   UNL     1       3.627   2.928  -2.006  0.00  0.00    -0.137 OA
ATOM     27  C   UNL     1       5.521   4.646  -1.266  0.00  0.00    +0.242 C 
ENDBRANCH  23  24
ENDBRANCH  19  23
ENDBRANCH   1  16
BRANCH  11  28
ATOM     28  C   UNL     1      -2.198  13.526   0.862  0.00  0.00    +0.046 A 
ATOM     29  C   UNL     1      -1.718  14.810   0.917  0.00  0.00    +0.018 A 
ATOM     30  C   UNL     1      -2.527  15.797   1.432  0.00  0.00    +0.008 A 
ATOM     31  C   UNL     1      -3.772  15.472   1.869  0.00  0.00    +0.046 A 
ATOM     32  S   UNL     1      -3.836  13.717   1.547  0.00  0.00    -0.095 S 
ENDBRANCH  11  28
TORSDOF 6
