REMARK  Name = ZINC10060598
REMARK  5 active torsions:
REMARK  status: ('A' for Active; 'I' for Inactive)
REMARK    1  A    between atoms: C_2  and  C_3
REMARK    2  A    between atoms: C_3  and  N_4
REMARK    3  A    between atoms: N_13  and  C_14
REMARK    4  A    between atoms: C_14  and  C_16
REMARK    5  A    between atoms: C_16  and  C_17
REMARK                            x       y       z     vdW  Elec       q    Type
REMARK                         _______ _______ _______ _____ _____    ______ ____
ROOT
ATOM      1  N   UNL     1      -0.017   1.380   0.010  0.00  0.00    -0.309 N 
ATOM      2  C   UNL     1       0.002  -0.004   0.002  0.00  0.00    +0.062 A 
ATOM      3  C   UNL     1      -1.089  -0.887   0.007  0.00  0.00    +0.076 A 
ATOM      4  C   UNL     1      -0.896  -2.253  -0.003  0.00  0.00    +0.168 A 
ATOM      5  C   UNL     1       0.392  -2.789  -0.018  0.00  0.00    +0.167 A 
ATOM      6  C   UNL     1       1.483  -1.937  -0.024  0.00  0.00    +0.066 A 
ATOM      7  C   UNL     1       1.282  -0.576  -0.013  0.00  0.00    +0.043 A 
ATOM      8  S   UNL     1       2.359   0.835  -0.016  0.00  0.00    -0.052 S 
ATOM      9  C   UNL     1       1.149   2.078   0.002  0.00  0.00    +0.167 A 
ATOM     10  N   UNL     1       1.322   3.398   0.007  0.00  0.00    -0.156 NA
ATOM     11  O   UNL     1       0.303  -4.151  -0.025  0.00  0.00    -0.453 OA
ATOM     12  C   UNL     1      -1.041  -4.449   0.399  0.00  0.00    +0.466 C 
ATOM     13  O   UNL     1      -1.792  -3.287  -0.001  0.00  0.00    -0.453 OA
ENDROOT
BRANCH  10  14
ATOM     14  C   UNL     1       2.549   3.908  -0.002  0.00  0.00    +0.243 C 
ATOM     15  O   UNL     1       3.514   3.168  -0.014  0.00  0.00    -0.273 OA
BRANCH  14  16
ATOM     16  C   UNL     1       2.744   5.402   0.003  0.00  0.00    +0.140 C 
BRANCH  16  17
ATOM     17  C   UNL     1       4.218   5.716  -0.009  0.00  0.00    -0.001 A 
ATOM     18  C   UNL     1       5.044   5.894  -1.068  0.00  0.00    +0.011 A 
ATOM     19  C   UNL     1       6.376   6.181  -0.839  0.00  0.00    +0.008 A 
ATOM     20  C   UNL     1       6.819   6.267   0.440  0.00  0.00    +0.045 A 
ATOM     21  S   UNL     1       5.330   5.943   1.369  0.00  0.00    -0.101 S 
ENDBRANCH  16  17
ENDBRANCH  14  16
ENDBRANCH  10  14
BRANCH   1  22
ATOM     22  C   UNL     1      -1.296   2.094   0.020  0.00  0.00    +0.212 C 
BRANCH  22  24
ATOM     23  C   UNL     1      -2.054   2.510   2.520  0.00  0.00    +0.005 C 
ATOM     24  C   UNL     1      -1.718   2.326   1.411  0.00  0.00    -0.084 C 
ENDBRANCH  22  24
ENDBRANCH   1  22
TORSDOF 5
