REMARK  Name = ZINC39664001
REMARK  10 active torsions:
REMARK  status: ('A' for Active; 'I' for Inactive)
REMARK    1  A    between atoms: C_1  and  C_2
REMARK    2  A    between atoms: C_2  and  C_3
REMARK    3  A    between atoms: C_2  and  C_4
REMARK    4  A    between atoms: C_8  and  C_17
REMARK    5  A    between atoms: N_19  and  C_20
REMARK    6  A    between atoms: C_20  and  C_21
REMARK    7  A    between atoms: C_21  and  C_23
REMARK    8  A    between atoms: C_21  and  N_31
REMARK    9  A    between atoms: C_26  and  O_29
REMARK   10  A    between atoms: O_29  and  C_30
REMARK                            x       y       z     vdW  Elec       q    Type
REMARK                         _______ _______ _______ _____ _____    ______ ____
ROOT
ATOM      1  C   UNL     1      -0.528  -5.107   0.540  0.00  0.00    +0.218 C 
ATOM      2  O   UNL     1      -1.323  -5.871   0.033  0.00  0.00    -0.275 OA
ATOM      3  N   UNL     1       0.791  -5.376   0.488  0.00  0.00    -0.316 N 
ATOM      4  H   UNL     1       1.427  -4.765   0.894  0.00  0.00    +0.149 HD
ENDROOT
BRANCH   1   9
ATOM      5  C   UNL     1      -3.892  -1.697   1.641  0.00  0.00    +0.218 C 
ATOM      6  O   UNL     1      -4.454  -1.357   2.661  0.00  0.00    -0.275 OA
ATOM      7  N   UNL     1      -3.134  -2.811   1.629  0.00  0.00    -0.300 N 
ATOM      8  C   UNL     1      -2.283  -3.318   0.527  0.00  0.00    +0.121 C 
ATOM      9  C   UNL     1      -1.017  -3.859   1.229  0.00  0.00    +0.100 C 
ATOM     10  C   UNL     1      -1.470  -4.179   2.663  0.00  0.00    -0.004 C 
ATOM     11  C   UNL     1      -2.958  -3.802   2.717  0.00  0.00    +0.115 C 
ATOM     12  C   UNL     1      -0.683  -3.340   3.665  0.00  0.00    -0.010 C 
ATOM     13  C   UNL     1      -1.110  -3.716   5.087  0.00  0.00    -0.082 C 
ATOM     14  N   UNL     1      -0.861  -5.145   5.312  0.00  0.00    +0.379 N 
ATOM     15  C   UNL     1      -1.692  -5.947   4.406  0.00  0.00    -0.082 C 
ATOM     16  C   UNL     1      -1.290  -5.665   2.956  0.00  0.00    -0.010 C 
ATOM     17  H   UNL     1       0.112  -5.347   5.140  0.00  0.00    -0.086 HD
ATOM     18  H   UNL     1      -1.087  -5.378   6.268  0.00  0.00    -0.086 HD
BRANCH   5  20
ATOM     19  C   UNL     1      -5.379  -0.130   0.423  0.00  0.00    +0.017 C 
ATOM     20  C   UNL     1      -4.043  -0.874   0.388  0.00  0.00    +0.069 C 
ATOM     21  C   UNL     1      -2.898   0.138   0.301  0.00  0.00    +0.017 C 
ENDBRANCH   5  20
ENDBRANCH   1   9
BRANCH   3  22
ATOM     22  C   UNL     1       1.267  -6.589  -0.181  0.00  0.00    +0.093 C 
BRANCH  22  23
ATOM     23  C   UNL     1       2.781  -6.712  -0.000  0.00  0.00    -0.020 C 
BRANCH  23  24
ATOM     24  C   UNL     1       3.467  -5.584  -0.727  0.00  0.00    -0.059 A 
ATOM     25  C   UNL     1       3.654  -5.657  -2.095  0.00  0.00    +0.005 A 
ATOM     26  C   UNL     1       4.283  -4.624  -2.763  0.00  0.00    +0.046 A 
ATOM     27  C   UNL     1       4.727  -3.514  -2.061  0.00  0.00    +0.120 A 
ATOM     28  C   UNL     1       4.538  -3.443  -0.688  0.00  0.00    +0.046 A 
ATOM     29  C   UNL     1       3.904  -4.475  -0.025  0.00  0.00    +0.005 A 
BRANCH  27  30
ATOM     30  O   UNL     1       5.346  -2.497  -2.716  0.00  0.00    -0.495 OA
ATOM     31  C   UNL     1       5.777  -1.385  -1.928  0.00  0.00    +0.277 C 
ENDBRANCH  27  30
ENDBRANCH  23  24
BRANCH  23  32
ATOM     32  N   UNL     1       3.237  -7.996  -0.548  0.00  0.00    +0.385 N 
ATOM     33  C   UNL     1       4.684  -8.185  -0.274  0.00  0.00    -0.078 C 
ATOM     34  C   UNL     1       4.868  -9.720  -0.377  0.00  0.00    -0.020 C 
ATOM     35  C   UNL     1       3.564 -10.267   0.249  0.00  0.00    -0.020 C 
ATOM     36  C   UNL     1       2.549  -9.114   0.133  0.00  0.00    -0.078 C 
ATOM     37  H   UNL     1       3.062  -8.033  -1.541  0.00  0.00    -0.081 HD
ENDBRANCH  23  32
ENDBRANCH  22  23
ENDBRANCH   3  22
TORSDOF 7
