REMARK  Name = ZINC33346984
REMARK  11 active torsions:
REMARK  status: ('A' for Active; 'I' for Inactive)
REMARK    1  A    between atoms: C_1  and  C_2
REMARK    2  A    between atoms: C_2  and  C_3
REMARK    3  A    between atoms: C_4  and  C_9
REMARK    4  A    between atoms: N_11  and  N_12
REMARK    5  A    between atoms: C_13  and  C_14
REMARK    6  A    between atoms: C_17  and  O_22
REMARK    7  A    between atoms: C_18  and  O_20
REMARK    8  A    between atoms: O_20  and  C_21
REMARK    9  A    between atoms: O_22  and  C_23
REMARK   10  A    between atoms: C_23  and  C_24
REMARK   11  A    between atoms: C_28  and  C_30
REMARK                            x       y       z     vdW  Elec       q    Type
REMARK                         _______ _______ _______ _____ _____    ______ ____
ROOT
ATOM      1  C   UNL     1      -0.662   9.996  -1.909  0.00  0.00    -0.002 A 
ATOM      2  C   UNL     1      -1.448   9.594  -0.827  0.00  0.00    +0.013 A 
ATOM      3  C   UNL     1      -1.881   8.288  -0.736  0.00  0.00    +0.050 A 
ATOM      4  C   UNL     1      -1.530   7.368  -1.713  0.00  0.00    +0.162 A 
ATOM      5  C   UNL     1      -0.747   7.761  -2.796  0.00  0.00    +0.162 A 
ATOM      6  C   UNL     1      -0.313   9.070  -2.896  0.00  0.00    +0.059 A 
ENDROOT
BRANCH   1   8
ATOM      7  N   UNL     1      -0.271  12.175  -0.977  0.00  0.00    -0.187 NA
ATOM      8  C   UNL     1      -0.202  11.393  -2.011  0.00  0.00    +0.138 C 
BRANCH   7  11
ATOM      9  C   UNL     1      -0.457  12.430   1.382  0.00  0.00    +0.272 C 
ATOM     10  O   UNL     1      -0.657  13.621   1.224  0.00  0.00    -0.268 OA
ATOM     11  N   UNL     1      -0.253  11.633   0.314  0.00  0.00    -0.202 N 
ATOM     12  H   UNL     1      -0.072  10.558   0.457  0.00  0.00    +0.178 HD
BRANCH   9  14
ATOM     13  C   UNL     1      -0.616  12.489   3.957  0.00  0.00    +0.062 A 
ATOM     14  C   UNL     1      -0.438  11.864   2.730  0.00  0.00    +0.100 A 
ATOM     15  S   UNL     1      -0.172  10.177   3.257  0.00  0.00    -0.048 S 
ATOM     16  C   UNL     1      -0.321  10.446   4.966  0.00  0.00    +0.156 A 
ATOM     17  N   UNL     1      -0.555  11.749   5.033  0.00  0.00    -0.229 NA
ATOM     18  N   UNL     1      -0.221   9.534   5.995  0.00  0.00    -0.337 N 
ATOM     19  H   UNL     1      -0.342   9.865   7.037  0.00  0.00    +0.144 HD
ATOM     20  H   UNL     1      -0.021   8.475   5.773  0.00  0.00    +0.144 HD
BRANCH  13  22
ATOM     21  C   UNL     1      -2.381  14.230   3.993  0.00  0.00    +0.010 C 
ATOM     22  C   UNL     1      -0.874  13.971   4.045  0.00  0.00    +0.053 C 
ENDBRANCH  13  22
ENDBRANCH   9  14
ENDBRANCH   7  11
ENDBRANCH   1   8
BRANCH   5  23
ATOM     23  O   UNL     1      -0.409   6.858  -3.755  0.00  0.00    -0.491 OA
ATOM     24  C   UNL     1       0.396   7.330  -4.837  0.00  0.00    +0.277 C 
ENDBRANCH   5  23
BRANCH   4  25
ATOM     25  O   UNL     1      -1.956   6.080  -1.617  0.00  0.00    -0.484 OA
BRANCH  25  26
ATOM     26  C   UNL     1      -2.756   5.745  -0.481  0.00  0.00    +0.264 C 
BRANCH  26  27
ATOM     27  C   UNL     1      -3.131   4.287  -0.544  0.00  0.00    -0.010 A 
ATOM     28  C   UNL     1      -2.314   3.337   0.040  0.00  0.00    +0.007 A 
ATOM     29  C   UNL     1      -2.659   2.000  -0.017  0.00  0.00    +0.001 A 
ATOM     30  C   UNL     1      -3.820   1.612  -0.658  0.00  0.00    +0.003 A 
ATOM     31  C   UNL     1      -4.634   2.561  -1.247  0.00  0.00    -0.050 A 
ATOM     32  C   UNL     1      -4.292   3.899  -1.185  0.00  0.00    +0.010 A 
ATOM     33  C   UNL     1      -5.897   2.138  -1.952  0.00  0.00    +0.044 C 
ENDBRANCH  26  27
ENDBRANCH  25  26
ENDBRANCH   4  25
TORSDOF 8
