REMARK  Name = ZINC24838529
REMARK  5 active torsions:
REMARK  status: ('A' for Active; 'I' for Inactive)
REMARK    1  A    between atoms: C_1  and  N_2
REMARK    2  A    between atoms: N_2  and  S_3
REMARK    3  A    between atoms: S_3  and  C_6
REMARK    4  A    between atoms: C_10  and  C_12
REMARK    5  A    between atoms: C_17  and  C_20
REMARK                            x       y       z     vdW  Elec       q    Type
REMARK                         _______ _______ _______ _____ _____    ______ ____
ROOT
ATOM      1  C   UNL     1      -3.547   0.495   3.733  0.00  0.00    +0.251 C 
ATOM      2  O   UNL     1      -4.172   0.832   4.719  0.00  0.00    -0.270 OA
ATOM      3  N   UNL     1      -3.751  -0.721   3.189  0.00  0.00    -0.261 N 
ATOM      4  C   UNL     1      -4.675  -1.589   3.755  0.00  0.00    +0.165 A 
ATOM      5  N   UNL     1      -5.017  -2.807   3.377  0.00  0.00    -0.223 NA
ATOM      6  C   UNL     1      -5.933  -3.503   4.045  0.00  0.00    +0.096 A 
ATOM      7  C   UNL     1      -6.530  -2.943   5.142  0.00  0.00    +0.078 A 
ATOM      8  S   UNL     1      -5.712  -1.354   5.192  0.00  0.00    -0.060 S 
ATOM      9  H   UNL     1      -3.185  -1.027   2.296  0.00  0.00    +0.157 HD
ENDROOT
BRANCH   1  14
ATOM     10  C   UNL     1      -0.927   1.900   1.439  0.00  0.00    +0.106 A 
ATOM     11  C   UNL     1      -0.715   3.147   2.003  0.00  0.00    +0.029 A 
ATOM     12  C   UNL     1      -1.428   3.537   3.122  0.00  0.00    +0.018 A 
ATOM     13  C   UNL     1      -2.349   2.679   3.691  0.00  0.00    +0.030 A 
ATOM     14  C   UNL     1      -2.563   1.418   3.130  0.00  0.00    +0.053 A 
ATOM     15  C   UNL     1      -1.843   1.034   1.997  0.00  0.00    +0.042 A 
ATOM     16 BR   UNL     1      -3.318   3.211   5.226  0.00  0.00    -0.050 Br
BRANCH  10  17
ATOM     17  S   UNL     1      -0.017   1.417   0.010  0.00  0.00    +0.058 S 
ATOM     18  O   UNL     1       0.002  -0.004   0.002  0.00  0.00    -0.153 OA
ATOM     19  O   UNL     1       1.172   2.195   0.003  0.00  0.00    -0.153 OA
BRANCH  17  21
ATOM     20  C   UNL     1      -1.125   3.309  -1.574  0.00  0.00    +0.127 C 
ATOM     21  N   UNL     1      -0.897   1.885  -1.312  0.00  0.00    -0.193 NA
ATOM     22  H   UNL     1      -1.442   1.126  -1.892  0.00  0.00    +0.148 HD
ENDBRANCH  17  21
ENDBRANCH  10  17
ENDBRANCH   1  14
BRANCH   6  23
ATOM     23  C   UNL     1      -6.302  -4.867   3.607  0.00  0.00    +0.066 A 
ATOM     24  C   UNL     1      -5.784  -5.533   2.537  0.00  0.00    +0.029 A 
ATOM     25  C   UNL     1      -6.409  -6.791   2.484  0.00  0.00    +0.019 A 
ATOM     26  C   UNL     1      -7.283  -6.859   3.511  0.00  0.00    +0.083 A 
ATOM     27  N   UNL     1      -7.221  -5.687   4.209  0.00  0.00    -0.359 N 
ATOM     28  H   UNL     1      -7.759  -5.345   5.105  0.00  0.00    +0.165 HD
ENDBRANCH   6  23
TORSDOF 4
