REMARK  Name = ZINC04073922
REMARK  4 active torsions:
REMARK  status: ('A' for Active; 'I' for Inactive)
REMARK    1  A    between atoms: CG_7  and  CB_11
REMARK    2  A    between atoms: CB_11  and  CA_12
REMARK    3  A    between atoms: CA_17  and  CB_22
REMARK    4  A    between atoms: CB_22  and  CG_23
REMARK                            x       y       z     vdW  Elec       q    Type
REMARK                         _______ _______ _______ _____ _____    ______ ____
ROOT
ATOM      1  CA  TRP A   2       0.236  -3.589  -1.456  0.00  0.00    +0.163 C 
ATOM      2  C   TRP A   2      -0.578  -4.848  -1.460  0.00  0.00    +0.234 C 
ATOM      3  O   TRP A   2      -0.002  -5.913  -1.403  0.00  0.00    -0.274 OA
ATOM      4  N   TRP A   1      -1.913  -4.844  -1.525  0.00  0.00    -0.302 N 
ATOM      5  CA  TRP A   1      -2.697  -3.618  -1.596  0.00  0.00    +0.163 C 
ATOM      6  C   TRP A   1      -1.860  -2.462  -2.052  0.00  0.00    +0.234 C 
ATOM      7  O   TRP A   1      -2.417  -1.483  -2.503  0.00  0.00    -0.274 OA
ATOM      8  N   TRP A   2      -0.526  -2.465  -1.982  0.00  0.00    -0.302 N 
ATOM      9  H   TRP A   1      -2.380  -5.694  -1.525  0.00  0.00    +0.150 HD
ATOM     10  H   TRP A   2      -0.044  -1.683  -2.295  0.00  0.00    +0.150 HD
ENDROOT
BRANCH   1  11
ATOM     11  CB  TRP A   2       0.666  -3.275  -0.021  0.00  0.00    +0.069 C 
BRANCH  11  18
ATOM     12  CZ3 TRP A   2      -0.017   1.362   0.009  0.00  0.00    +0.001 A 
ATOM     13  CH2 TRP A   2       1.169   2.083   0.002  0.00  0.00    +0.002 A 
ATOM     14  CZ2 TRP A   2       2.386   1.436  -0.013  0.00  0.00    +0.026 A 
ATOM     15  CE2 TRP A   2       2.428   0.046  -0.021  0.00  0.00    +0.047 A 
ATOM     16  CD2 TRP A   2       1.223  -0.681  -0.013  0.00  0.00    +0.003 A 
ATOM     17  CE3 TRP A   2       0.002  -0.004   0.002  0.00  0.00    +0.010 A 
ATOM     18  CG  TRP A   2       1.603  -2.095  -0.025  0.00  0.00    -0.020 A 
ATOM     19  CD1 TRP A   2       2.945  -2.141  -0.038  0.00  0.00    +0.087 A 
ATOM     20  NE1 TRP A   2       3.455  -0.871  -0.036  0.00  0.00    -0.360 N 
ATOM     21  HE1 TRP A   2       4.399  -0.650  -0.044  0.00  0.00    +0.165 HD
ENDBRANCH  11  18
ENDBRANCH   1  11
BRANCH   5  22
ATOM     22  CB  TRP A   1      -3.266  -3.307  -0.210  0.00  0.00    +0.069 C 
BRANCH  22  23
ATOM     23  CG  TRP A   1      -4.240  -4.386   0.187  0.00  0.00    -0.020 A 
ATOM     24  CD1 TRP A   1      -5.572  -4.360   0.021  0.00  0.00    +0.087 A 
ATOM     25  NE1 TRP A   1      -6.125  -5.516   0.502  0.00  0.00    -0.360 N 
ATOM     26  HE1 TRP A   1      -7.071  -5.727   0.492  0.00  0.00    +0.165 HD
ATOM     27  CE2 TRP A   1      -5.137  -6.334   1.003  0.00  0.00    +0.047 A 
ATOM     28  CD2 TRP A   1      -3.913  -5.665   0.823  0.00  0.00    +0.003 A 
ATOM     29  CE3 TRP A   1      -2.723  -6.265   1.238  0.00  0.00    +0.010 A 
ATOM     30  CZ3 TRP A   1      -2.753  -7.503   1.815  0.00  0.00    +0.001 A 
ATOM     31  CH2 TRP A   1      -3.958  -8.169   1.992  0.00  0.00    +0.002 A 
ATOM     32  CZ2 TRP A   1      -5.145  -7.592   1.597  0.00  0.00    +0.026 A 
ENDBRANCH  22  23
ENDBRANCH   5  22
TORSDOF 4
