REMARK  Name = ZINC02287484
REMARK  8 active torsions:
REMARK  status: ('A' for Active; 'I' for Inactive)
REMARK    1  A    between atoms: C_1  and  C_2
REMARK    2  A    between atoms: C_2  and  C_3
REMARK    3  A    between atoms: C_2  and  C_4
REMARK    4  A    between atoms: C_2  and  C_5
REMARK    5  A    between atoms: C_16  and  C_19
REMARK    6  A    between atoms: C_17  and  O_18
REMARK    7  A    between atoms: N_20  and  N_21
REMARK    8  A    between atoms: C_22  and  C_24
REMARK                            x       y       z     vdW  Elec       q    Type
REMARK                         _______ _______ _______ _____ _____    ______ ____
ROOT
ATOM      1  C   UNL     1      -0.017   1.375   0.010  0.00  0.00    +0.004 A 
ATOM      2  C   UNL     1       0.002  -0.004   0.002  0.00  0.00    +0.054 A 
ATOM      3  C   UNL     1       1.209  -0.692  -0.013  0.00  0.00    +0.137 A 
ATOM      4  C   UNL     1       2.416   0.027  -0.020  0.00  0.00    +0.036 A 
ATOM      5  C   UNL     1       3.467  -0.983  -0.033  0.00  0.00    +0.002 A 
ATOM      6  C   UNL     1       2.853  -2.181  -0.034  0.00  0.00    +0.109 A 
ATOM      7  O   UNL     1       1.523  -2.006  -0.022  0.00  0.00    -0.459 OA
ATOM      8  C   UNL     1       3.594  -3.499  -0.049  0.00  0.00    +0.075 C 
ATOM      9  C   UNL     1       5.041  -3.240  -0.482  0.00  0.00    +0.008 C 
ATOM     10  C   UNL     1       5.631  -2.101   0.354  0.00  0.00    +0.005 C 
ATOM     11  C   UNL     1       4.959  -0.780  -0.042  0.00  0.00    +0.039 C 
ATOM     12  C   UNL     1       2.396   1.435  -0.013  0.00  0.00    +0.047 A 
ATOM     13  C   UNL     1       1.166   2.102   0.002  0.00  0.00    +0.130 A 
ENDROOT
BRANCH   1  15
ATOM     14  C   UNL     1      -2.479   1.084   0.020  0.00  0.00    +0.015 C 
ATOM     15  C   UNL     1      -1.337   2.102   0.020  0.00  0.00    -0.009 C 
ATOM     16  C   UNL     1      -1.430   2.973   1.274  0.00  0.00    +0.015 C 
ATOM     17  C   UNL     1      -1.442   2.987  -1.224  0.00  0.00    +0.015 C 
ENDBRANCH   1  15
BRANCH  13  18
ATOM     18  O   UNL     1       1.130   3.460   0.009  0.00  0.00    -0.506 OA
ATOM     19  H   UNL     1       1.127   3.849   0.895  0.00  0.00    +0.292 HD
ENDBRANCH  13  18
BRANCH  12  20
ATOM     20  C   UNL     1       3.653   2.196  -0.022  0.00  0.00    +0.142 C 
ATOM     21  N   UNL     1       3.626   3.496  -0.015  0.00  0.00    -0.187 NA
BRANCH  21  22
ATOM     22  N   UNL     1       4.825   4.221  -0.024  0.00  0.00    -0.203 N 
ATOM     23  C   UNL     1       4.797   5.569  -0.017  0.00  0.00    +0.265 C 
ATOM     24  O   UNL     1       3.732   6.155  -0.003  0.00  0.00    -0.268 OA
ATOM     25  H   UNL     1       5.675   3.753  -0.035  0.00  0.00    +0.178 HD
BRANCH  23  26
ATOM     26  C   UNL     1       6.061   6.333  -0.026  0.00  0.00    +0.057 A 
ATOM     27  C   UNL     1       7.286   5.664  -0.036  0.00  0.00    +0.014 A 
ATOM     28  C   UNL     1       8.462   6.384  -0.048  0.00  0.00    +0.001 A 
ATOM     29  C   UNL     1       8.431   7.768  -0.042  0.00  0.00    +0.001 A 
ATOM     30  C   UNL     1       7.222   8.438  -0.027  0.00  0.00    +0.021 A 
ATOM     31  C   UNL     1       6.036   7.730  -0.019  0.00  0.00    +0.053 A 
ATOM     32 CL   UNL     1       4.519   8.574   0.001  0.00  0.00    -0.083 Cl
ENDBRANCH  23  26
ENDBRANCH  21  22
ENDBRANCH  12  20
TORSDOF 5
