REMARK  Name = ZINC00881865
REMARK  5 active torsions:
REMARK  status: ('A' for Active; 'I' for Inactive)
REMARK    1  A    between atoms: C_1  and  C_2
REMARK    2  A    between atoms: C_5  and  C_8
REMARK    3  A    between atoms: C_13  and  C_18
REMARK    4  A    between atoms: C_13  and  C_19
REMARK    5  A    between atoms: C_25  and  O_27
REMARK                            x       y       z     vdW  Elec       q    Type
REMARK                         _______ _______ _______ _____ _____    ______ ____
ROOT
ATOM      1  C   UNL     1       1.209   5.888   0.984  0.00  0.00    +0.058 C 
ATOM      2  C   UNL     1      -0.139   5.166   0.905  0.00  0.00    +0.081 C 
ATOM      3  C   UNL     1       0.052   3.875   0.102  0.00  0.00    +0.182 C 
ATOM      4  C   UNL     1       1.162   3.037   0.742  0.00  0.00    +0.094 C 
ATOM      5  C   UNL     1       1.256   1.700  -0.001  0.00  0.00    +0.036 C 
ATOM      6  N   UNL     1      -0.057   1.052   0.008  0.00  0.00    -0.294 N 
ATOM      7  C   UNL     1      -1.190   1.769   0.044  0.00  0.00    +0.303 C 
ATOM      8  O   UNL     1      -2.254   1.181   0.030  0.00  0.00    -0.253 OA
ATOM      9  N   UNL     1      -1.195   3.110   0.101  0.00  0.00    -0.262 N 
ATOM     10  C   UNL     1       2.276   0.798   0.697  0.00  0.00    +0.031 C 
ATOM     11  C   UNL     1       1.695   1.946  -1.446  0.00  0.00    +0.031 C 
ATOM     12  O   UNL     1       0.414   4.217  -1.234  0.00  0.00    -0.468 OA
ATOM     13  C   UNL     1       1.402   5.131  -1.415  0.00  0.00    +0.131 A 
ATOM     14  C   UNL     1       1.823   5.963  -0.391  0.00  0.00    +0.002 A 
ATOM     15  C   UNL     1       2.829   6.887  -0.621  0.00  0.00    +0.011 A 
ATOM     16  C   UNL     1       3.417   6.984  -1.866  0.00  0.00    +0.046 A 
ATOM     17  C   UNL     1       3.000   6.152  -2.895  0.00  0.00    +0.120 A 
ATOM     18  C   UNL     1       1.995   5.227  -2.669  0.00  0.00    +0.091 A 
ATOM     19  H   UNL     1      -0.109   0.083  -0.017  0.00  0.00    +0.151 HD
ATOM     20  H   UNL     1      -2.042   3.581   0.137  0.00  0.00    +0.154 HD
ENDROOT
BRANCH   1  25
ATOM     21  C   UNL     1       0.410  11.234   3.028  0.00  0.00    +0.044 C 
ATOM     22  C   UNL     1       0.619   9.840   2.495  0.00  0.00    -0.050 A 
ATOM     23  C   UNL     1       1.433   8.954   3.175  0.00  0.00    +0.003 A 
ATOM     24  C   UNL     1       1.624   7.676   2.686  0.00  0.00    +0.004 A 
ATOM     25  C   UNL     1       1.000   7.282   1.517  0.00  0.00    -0.040 A 
ATOM     26  C   UNL     1       0.190   8.170   0.834  0.00  0.00    +0.004 A 
ATOM     27  C   UNL     1      -0.004   9.447   1.325  0.00  0.00    +0.003 A 
ENDBRANCH   1  25
BRANCH  17  28
ATOM     28  O   UNL     1       3.577   6.245  -4.122  0.00  0.00    -0.507 OA
ATOM     29  H   UNL     1       3.139   6.870  -4.716  0.00  0.00    +0.292 HD
ENDBRANCH  17  28
TORSDOF 2
