REMARK  Name = ZINC63448352
REMARK  8 active torsions:
REMARK  status: ('A' for Active; 'I' for Inactive)
REMARK    1  A    between atoms: C_1  and  O_2
REMARK    2  A    between atoms: O_2  and  C_3
REMARK    3  A    between atoms: C_7  and  C_9
REMARK    4  A    between atoms: C_13  and  S_18
REMARK    5  A    between atoms: N_14  and  C_15
REMARK    6  A    between atoms: C_15  and  C_16
REMARK    7  A    between atoms: S_18  and  C_19
REMARK    8  A    between atoms: C_19  and  C_20
REMARK                            x       y       z     vdW  Elec       q    Type
REMARK                         _______ _______ _______ _____ _____    ______ ____
ROOT
ATOM      1  C   UNL     1       1.374  -4.183  -2.272  0.00  0.00    +0.208 C 
ATOM      2  N   UNL     1       0.201  -4.744  -1.579  0.00  0.00    -0.242 N 
ATOM      3  N   UNL     1      -0.573  -5.367  -2.565  0.00  0.00    -0.162 NA
ATOM      4  C   UNL     1      -0.032  -5.257  -3.731  0.00  0.00    +0.176 C 
ATOM      5  N   UNL     1       1.166  -4.553  -3.683  0.00  0.00    -0.281 N 
ATOM      6  H   UNL     1       0.005  -4.692  -0.631  0.00  0.00    +0.170 HD
ENDROOT
BRANCH   1  11
ATOM      7  C   UNL     1       2.570  -0.693  -1.457  0.00  0.00    +0.120 A 
ATOM      8  C   UNL     1       1.476   0.069  -1.840  0.00  0.00    +0.045 A 
ATOM      9  C   UNL     1       0.355  -0.548  -2.360  0.00  0.00    +0.004 A 
ATOM     10  C   UNL     1       0.323  -1.923  -2.500  0.00  0.00    +0.007 A 
ATOM     11  C   UNL     1       1.412  -2.685  -2.119  0.00  0.00    -0.005 A 
ATOM     12  C   UNL     1       2.538  -2.072  -1.603  0.00  0.00    +0.052 A 
BRANCH   7  14
ATOM     13  C   UNL     1       3.637   1.335  -0.823  0.00  0.00    +0.277 C 
ATOM     14  O   UNL     1       3.675  -0.089  -0.945  0.00  0.00    -0.495 OA
ENDBRANCH   7  14
ENDBRANCH   1  11
BRANCH   5  15
ATOM     15  C   UNL     1       2.048  -4.240  -4.810  0.00  0.00    +0.136 C 
BRANCH  15  16
ATOM     16  C   UNL     1       3.048  -5.353  -4.989  0.00  0.00    -0.016 C 
ATOM     17  C   UNL     1       3.161  -5.952  -6.149  0.00  0.00    +0.005 C 
ENDBRANCH  15  16
ENDBRANCH   5  15
BRANCH   4  18
ATOM     18  S   UNL     1      -0.727  -5.920  -5.208  0.00  0.00    -0.085 S 
BRANCH  18  19
ATOM     19  C   UNL     1      -2.261  -6.714  -4.654  0.00  0.00    +0.124 C 
BRANCH  19  20
ATOM     20  C   UNL     1      -2.974  -7.339  -5.855  0.00  0.00    +0.184 C 
ATOM     21  N   UNL     1      -2.084  -8.293  -6.529  0.00  0.00    -0.363 N 
ATOM     22  C   UNL     1      -1.912  -7.870  -7.748  0.00  0.00    +0.060 A 
ATOM     23  C   UNL     1      -1.139  -8.389  -8.886  0.00  0.00    +0.027 A 
ATOM     24  C   UNL     1      -1.149  -7.722 -10.057  0.00  0.00    +0.002 A 
ATOM     25  C   UNL     1      -1.875  -6.532 -10.245  0.00  0.00    +0.002 A 
ATOM     26  C   UNL     1      -2.615  -5.970  -9.268  0.00  0.00    +0.027 A 
ATOM     27  C   UNL     1      -2.680  -6.611  -7.948  0.00  0.00    +0.060 A 
ATOM     28  N   UNL     1      -3.298  -6.304  -6.844  0.00  0.00    -0.363 N 
ATOM     29  H   UNL     1      -1.696  -9.091  -6.138  0.00  0.00    +0.162 HD
ATOM     30  H   UNL     1      -3.868  -5.532  -6.701  0.00  0.00    +0.162 HD
ENDBRANCH  19  20
ENDBRANCH  18  19
ENDBRANCH   4  18
TORSDOF 7
