REMARK  Name = ZINC09642188
REMARK  8 active torsions:
REMARK  status: ('A' for Active; 'I' for Inactive)
REMARK    1  A    between atoms: C_1  and  O_2
REMARK    2  A    between atoms: O_2  and  C_3
REMARK    3  A    between atoms: C_3  and  C_4
REMARK    4  A    between atoms: C_4  and  N_5
REMARK    5  A    between atoms: N_5  and  C_6
REMARK    6  A    between atoms: C_8  and  N_23
REMARK    7  A    between atoms: C_28  and  C_29
REMARK    8  A    between atoms: C_28  and  N_66
REMARK                            x       y       z     vdW  Elec       q    Type
REMARK                         _______ _______ _______ _____ _____    ______ ____
ROOT
ATOM      1  C   UNL     1      11.334  -3.518  -1.533  0.00  0.00    +0.041 A 
ATOM      2  C   UNL     1      10.351  -3.130  -0.614  0.00  0.00    +0.049 A 
ATOM      3  C   UNL     1       8.996  -3.089  -0.877  0.00  0.00    +0.061 A 
ATOM      4  C   UNL     1       8.514  -3.463  -2.212  0.00  0.00    +0.136 A 
ATOM      5  C   UNL     1       9.562  -3.858  -3.146  0.00  0.00    +0.063 A 
ATOM      6  C   UNL     1      10.965  -3.894  -2.834  0.00  0.00    +0.056 A 
ATOM      7  C   UNL     1      11.834  -4.305  -3.871  0.00  0.00    +0.196 C 
ATOM      8  O   UNL     1      13.040  -4.363  -3.694  0.00  0.00    -0.287 OA
ATOM      9  C   UNL     1      11.237  -4.664  -5.176  0.00  0.00    +0.033 A 
ATOM     10  C   UNL     1      12.080  -5.078  -6.215  0.00  0.00    +0.012 A 
ATOM     11  C   UNL     1      11.553  -5.417  -7.439  0.00  0.00    +0.001 A 
ATOM     12  C   UNL     1      10.185  -5.353  -7.665  0.00  0.00    +0.001 A 
ATOM     13  C   UNL     1       9.332  -4.950  -6.663  0.00  0.00    +0.012 A 
ATOM     14  C   UNL     1       9.841  -4.601  -5.409  0.00  0.00    +0.031 A 
ATOM     15  C   UNL     1       8.950  -4.173  -4.332  0.00  0.00    +0.176 A 
ATOM     16  O   UNL     1       7.653  -3.966  -4.076  0.00  0.00    -0.353 OA
ATOM     17  N   UNL     1       7.432  -3.584  -2.928  0.00  0.00    -0.076 NA
ENDROOT
BRANCH   3  18
ATOM     18  N   UNL     1       8.107  -2.696   0.102  0.00  0.00    -0.332 N 
ATOM     19  C   UNL     1       8.396  -1.330   0.559  0.00  0.00    +0.086 C 
ATOM     20  C   UNL     1       7.441  -0.962   1.696  0.00  0.00    -0.059 C 
ATOM     21  C   UNL     1       5.765  -2.440   0.767  0.00  0.00    -0.059 C 
ATOM     22  C   UNL     1       6.720  -2.808  -0.371  0.00  0.00    +0.086 C 
ATOM     23  N   UNL     1       6.051  -1.057   1.201  0.00  0.00    +0.384 N 
ATOM     24  H   UNL     1       5.939  -0.425   0.400  0.00  0.00    -0.081 HD
BRANCH  23  25
ATOM     25  C   UNL     1       5.107  -0.655   2.265  0.00  0.00    -0.043 C 
BRANCH  25  26
ATOM     26  C   UNL     1       3.725  -0.548   1.674  0.00  0.00    -0.060 A 
ATOM     27  C   UNL     1       2.885  -1.646   1.677  0.00  0.00    +0.005 A 
ATOM     28  C   UNL     1       1.617  -1.553   1.135  0.00  0.00    +0.050 A 
ATOM     29  C   UNL     1       1.183  -0.356   0.589  0.00  0.00    +0.166 A 
ATOM     30  C   UNL     1       2.028   0.751   0.586  0.00  0.00    +0.166 A 
ATOM     31  C   UNL     1       3.298   0.650   1.131  0.00  0.00    +0.051 A 
ATOM     32  O   UNL     1       1.376   1.797  -0.001  0.00  0.00    -0.453 OA
ATOM     33  C   UNL     1      -0.018   1.436   0.010  0.00  0.00    +0.466 C 
ATOM     34  O   UNL     1       0.002  -0.004   0.002  0.00  0.00    -0.453 OA
ENDBRANCH  25  26
ENDBRANCH  23  25
ENDBRANCH   3  18
BRANCH   1  35
ATOM     35  N   UNL     1      12.662  -3.526  -1.163  0.00  0.00    -0.341 N 
ATOM     36  H   UNL     1      13.342  -3.791  -1.801  0.00  0.00    +0.146 HD
BRANCH  35  37
ATOM     37  C   UNL     1      13.046  -3.133   0.196  0.00  0.00    +0.129 C 
BRANCH  37  38
ATOM     38  C   UNL     1      14.566  -3.229   0.344  0.00  0.00    +0.178 C 
BRANCH  38  40
ATOM     39  C   UNL     1      16.618  -2.281  -0.454  0.00  0.00    +0.194 C 
ATOM     40  O   UNL     1      15.190  -2.274  -0.516  0.00  0.00    -0.381 OA
ENDBRANCH  38  40
ENDBRANCH  37  38
ENDBRANCH  35  37
ENDBRANCH   1  35
TORSDOF 7
