REMARK  Name = ZINC16856457
REMARK  6 active torsions:
REMARK  status: ('A' for Active; 'I' for Inactive)
REMARK    1  A    between atoms: C_5  and  C_7
REMARK    2  A    between atoms: C_7  and  C_8
REMARK    3  A    between atoms: C_9  and  C_15
REMARK    4  A    between atoms: C_13  and  O_14
REMARK    5  A    between atoms: C_16  and  C_17
REMARK    6  A    between atoms: C_22  and  O_23
REMARK                            x       y       z     vdW  Elec       q    Type
REMARK                         _______ _______ _______ _____ _____    ______ ____
ROOT
ATOM      1  C   UNL     1      -0.034   3.799  -0.043  0.00  0.00    +0.044 A 
ATOM      2  C   UNL     1      -1.254   3.126   0.085  0.00  0.00    +0.074 A 
ATOM      3  N   UNL     1      -1.269   1.794  -0.012  0.00  0.00    -0.235 NA
ATOM      4  C   UNL     1      -0.156   1.120  -0.213  0.00  0.00    +0.225 A 
ATOM      5  N   UNL     1       1.011   1.721  -0.338  0.00  0.00    -0.201 NA
ATOM      6  C   UNL     1       1.113   3.044  -0.260  0.00  0.00    +0.219 A 
ENDROOT
BRANCH   6   7
ATOM      7  O   UNL     1       2.319   3.649  -0.390  0.00  0.00    -0.492 OA
ATOM      8  H   UNL     1       2.544   3.885  -1.300  0.00  0.00    +0.294 HD
ENDBRANCH   6   7
BRANCH   2   9
ATOM      9  C   UNL     1      -2.500   3.874   0.315  0.00  0.00    +0.029 C 
ATOM     10  C   UNL     1      -3.647   3.214   0.551  0.00  0.00    +0.013 C 
BRANCH  10  11
ATOM     11  C   UNL     1      -4.913   3.955   0.669  0.00  0.00    +0.016 A 
ATOM     12  C   UNL     1      -4.914   5.353   0.645  0.00  0.00    +0.011 A 
ATOM     13  C   UNL     1      -6.103   6.041   0.757  0.00  0.00    +0.001 A 
ATOM     14  C   UNL     1      -7.298   5.354   0.893  0.00  0.00    +0.004 A 
ATOM     15  C   UNL     1      -7.311   3.972   0.919  0.00  0.00    +0.046 A 
ATOM     16  C   UNL     1      -6.126   3.264   0.802  0.00  0.00    +0.124 A 
BRANCH  16  17
ATOM     17  O   UNL     1      -6.138   1.906   0.822  0.00  0.00    -0.506 OA
ATOM     18  H   UNL     1      -6.052   1.525   1.706  0.00  0.00    +0.292 HD
ENDBRANCH  16  17
ENDBRANCH  10  11
ENDBRANCH   2   9
BRANCH   1  19
ATOM     19  C   UNL     1       0.035   5.301   0.053  0.00  0.00    +0.079 C 
BRANCH  19  24
ATOM     20  C   UNL     1      -0.970   6.302   3.551  0.00  0.00    +0.000 A 
ATOM     21  C   UNL     1       0.262   6.459   4.159  0.00  0.00    +0.001 A 
ATOM     22  C   UNL     1       1.421   6.241   3.439  0.00  0.00    +0.020 A 
ATOM     23  C   UNL     1       1.348   5.866   2.109  0.00  0.00    +0.044 A 
ATOM     24  C   UNL     1       0.115   5.709   1.501  0.00  0.00    -0.025 A 
ATOM     25  C   UNL     1      -1.043   5.932   2.222  0.00  0.00    +0.005 A 
ATOM     26 CL   UNL     1       2.804   5.592   1.203  0.00  0.00    -0.083 Cl
ENDBRANCH  19  24
ENDBRANCH   1  19
TORSDOF 6
