REMARK  Name = ZINC03251236
REMARK  6 active torsions:
REMARK  status: ('A' for Active; 'I' for Inactive)
REMARK    1  A    between atoms: C_1  and  O_2
REMARK    2  A    between atoms: O_2  and  C_3
REMARK    3  A    between atoms: C_5  and  C_17
REMARK    4  A    between atoms: C_8  and  O_9
REMARK    5  A    between atoms: O_9  and  C_10
REMARK    6  A    between atoms: C_10  and  C_12
REMARK                            x       y       z     vdW  Elec       q    Type
REMARK                         _______ _______ _______ _____ _____    ______ ____
ROOT
ATOM      1  C   UNL     1      -5.997   2.249  -0.004  0.00  0.00    +0.163 A 
ATOM      2  C   UNL     1      -7.221   1.601   0.005  0.00  0.00    +0.056 A 
ATOM      3  C   UNL     1      -7.272   0.220   0.059  0.00  0.00    -0.006 A 
ATOM      4  C   UNL     1      -6.103  -0.516   0.103  0.00  0.00    +0.011 A 
ATOM      5  C   UNL     1      -4.878   0.124   0.087  0.00  0.00    +0.050 A 
ATOM      6  C   UNL     1      -4.820   1.508   0.040  0.00  0.00    +0.173 A 
ENDROOT
BRANCH   3   7
ATOM      7  C   UNL     1      -8.604  -0.483   0.069  0.00  0.00    +0.190 C 
ATOM      8  N   UNL     1      -8.481  -1.747   0.807  0.00  0.00    -0.322 N 
ATOM      9  C   UNL     1      -8.421  -1.708   2.192  0.00  0.00    +0.041 A 
ATOM     10  C   UNL     1      -7.731  -2.658   2.924  0.00  0.00    +0.024 A 
ATOM     11  C   UNL     1      -7.696  -2.566   4.303  0.00  0.00    +0.002 A 
ATOM     12  C   UNL     1      -8.346  -1.531   4.956  0.00  0.00    +0.001 A 
ATOM     13  C   UNL     1      -9.040  -0.577   4.241  0.00  0.00    +0.015 A 
ATOM     14  C   UNL     1      -9.085  -0.658   2.852  0.00  0.00    +0.058 A 
ATOM     15  C   UNL     1      -9.814   0.332   2.039  0.00  0.00    +0.247 C 
ATOM     16  O   UNL     1     -10.598   1.100   2.562  0.00  0.00    -0.270 OA
ATOM     17  N   UNL     1      -9.601   0.377   0.707  0.00  0.00    -0.289 N 
ATOM     18  H   UNL     1      -8.441  -2.594   0.336  0.00  0.00    +0.148 HD
ATOM     19  H   UNL     1     -10.119   0.990   0.162  0.00  0.00    +0.151 HD
ENDBRANCH   3   7
BRANCH   1  21
ATOM     20  C   UNL     1      -7.193   4.302  -0.101  0.00  0.00    +0.277 C 
ATOM     21  O   UNL     1      -5.946   3.607  -0.058  0.00  0.00    -0.491 OA
ENDBRANCH   1  21
BRANCH   6  22
ATOM     22  O   UNL     1      -3.616   2.140   0.031  0.00  0.00    -0.418 OA
BRANCH  22  23
ATOM     23  C   UNL     1      -3.128   2.545   1.221  0.00  0.00    +0.351 C 
ATOM     24  O   UNL     1      -3.800   2.423   2.227  0.00  0.00    -0.244 OA
BRANCH  23  25
ATOM     25  C   UNL     1      -1.789   3.131   1.302  0.00  0.00    +0.097 A 
ATOM     26  C   UNL     1      -1.108   3.606   2.413  0.00  0.00    +0.022 A 
ATOM     27  C   UNL     1       0.153   4.106   2.207  0.00  0.00    +0.008 A 
ATOM     28  C   UNL     1       0.664   4.117   0.947  0.00  0.00    +0.046 A 
ATOM     29  S   UNL     1      -0.609   3.424  -0.004  0.00  0.00    -0.090 S 
ENDBRANCH  23  25
ENDBRANCH  22  23
ENDBRANCH   6  22
TORSDOF 5
