REMARK  Name = ZINC12603051
REMARK  6 active torsions:
REMARK  status: ('A' for Active; 'I' for Inactive)
REMARK    1  A    between atoms: C_1  and  O_2
REMARK    2  A    between atoms: O_2  and  C_3
REMARK    3  A    between atoms: C_3  and  C_5
REMARK    4  A    between atoms: C_21  and  C_34
REMARK    5  A    between atoms: C_24  and  N_27
REMARK    6  A    between atoms: C_30  and  O_33
REMARK                            x       y       z     vdW  Elec       q    Type
REMARK                         _______ _______ _______ _____ _____    ______ ____
ROOT
ATOM      1  C   UNL     1       0.564  -1.740  -1.094  0.00  0.00    +0.172 C 
ATOM      2  C   UNL     1       1.372  -2.115   0.156  0.00  0.00    +0.068 C 
ATOM      3  C   UNL     1       1.625  -3.601   0.124  0.00  0.00    -0.016 A 
ATOM      4  C   UNL     1       2.058  -4.479   1.189  0.00  0.00    +0.003 A 
ATOM      5  C   UNL     1       2.369  -4.260   2.534  0.00  0.00    +0.010 A 
ATOM      6  C   UNL     1       2.753  -5.354   3.270  0.00  0.00    +0.001 A 
ATOM      7  C   UNL     1       2.834  -6.621   2.716  0.00  0.00    +0.002 A 
ATOM      8  C   UNL     1       2.531  -6.867   1.388  0.00  0.00    +0.026 A 
ATOM      9  C   UNL     1       2.137  -5.776   0.617  0.00  0.00    +0.047 A 
ATOM     10  N   UNL     1       1.774  -5.665  -0.695  0.00  0.00    -0.356 N 
ATOM     11  H   UNL     1       1.739  -6.400  -1.328  0.00  0.00    +0.166 HD
ATOM     12  C   UNL     1       1.468  -4.363  -0.983  0.00  0.00    +0.038 A 
ATOM     13  C   UNL     1       1.017  -3.798  -2.307  0.00  0.00    +0.103 C 
ATOM     14  N   UNL     1       1.189  -2.338  -2.278  0.00  0.00    -0.274 NA
ATOM     15  C   UNL     1       0.698  -1.728  -3.520  0.00  0.00    +0.087 C 
ATOM     16  C   UNL     1       1.521  -2.252  -4.700  0.00  0.00    +0.008 C 
ATOM     17  C   UNL     1       1.402  -3.777  -4.769  0.00  0.00    -0.065 C 
ATOM     18  C   UNL     1       1.856  -4.390  -3.441  0.00  0.00    +0.010 C 
ENDROOT
BRANCH  15  19
ATOM     19  C   UNL     1      -0.752  -2.087  -3.718  0.00  0.00    -0.027 A 
ATOM     20  C   UNL     1      -1.678  -1.786  -2.736  0.00  0.00    +0.008 A 
ATOM     21  C   UNL     1      -3.009  -2.114  -2.916  0.00  0.00    +0.041 A 
ATOM     22  C   UNL     1      -3.415  -2.745  -4.079  0.00  0.00    +0.158 A 
ATOM     23  C   UNL     1      -2.486  -3.047  -5.063  0.00  0.00    +0.159 A 
ATOM     24  C   UNL     1      -1.155  -2.713  -4.882  0.00  0.00    +0.046 A 
ATOM     25  F   UNL     1      -2.881  -3.663  -6.199  0.00  0.00    -0.202 F 
ATOM     26  F   UNL     1      -4.715  -3.067  -4.255  0.00  0.00    -0.202 F 
ENDBRANCH  15  19
BRANCH  17  27
ATOM     27  N   UNL     1       2.247  -4.285  -5.858  0.00  0.00    +0.383 N 
ATOM     28  C   UNL     1       1.794  -3.716  -7.146  0.00  0.00    -0.076 C 
ATOM     29  C   UNL     1       1.995  -4.857  -8.175  0.00  0.00    +0.011 C 
ATOM     30  C   UNL     1       1.611  -6.105  -7.337  0.00  0.00    +0.096 C 
ATOM     31  C   UNL     1       2.135  -5.754  -5.929  0.00  0.00    -0.047 C 
ATOM     32  H   UNL     1       3.208  -4.025  -5.693  0.00  0.00    -0.081 HD
BRANCH  30  33
ATOM     33  O   UNL     1       2.259  -7.273  -7.844  0.00  0.00    -0.394 OA
ATOM     34  H   UNL     1       2.019  -7.492  -8.755  0.00  0.00    +0.210 HD
ENDBRANCH  30  33
ENDBRANCH  17  27
BRANCH   1  35
ATOM     35  C   UNL     1       0.537  -0.241  -1.244  0.00  0.00    +0.325 C 
ATOM     36  O   UNL     1      -0.403   0.391  -0.822  0.00  0.00    -0.249 OA
BRANCH  35  38
ATOM     37  C   UNL     1       1.464   1.814  -1.952  0.00  0.00    +0.280 C 
ATOM     38  O   UNL     1       1.556   0.392  -1.845  0.00  0.00    -0.467 OA
ENDBRANCH  35  38
ENDBRANCH   1  35
TORSDOF 5
