REMARK  Name = ZINC38984693
REMARK  6 active torsions:
REMARK  status: ('A' for Active; 'I' for Inactive)
REMARK    1  A    between atoms: C_5  and  N_7
REMARK    2  A    between atoms: C_8  and  C_10
REMARK    3  A    between atoms: C_10  and  S_11
REMARK    4  A    between atoms: S_11  and  C_12
REMARK    5  A    between atoms: C_15  and  C_19
REMARK    6  A    between atoms: N_17  and  N_18
REMARK                            x       y       z     vdW  Elec       q    Type
REMARK                         _______ _______ _______ _____ _____    ______ ____
ROOT
ATOM      1  C   UNL     1      -1.372  -6.657   0.438  0.00  0.00    +0.189 C 
ATOM      2  N   UNL     1      -0.228  -7.252   0.425  0.00  0.00    -0.161 NA
ATOM      3  N   UNL     1      -0.371  -8.641   0.529  0.00  0.00    -0.243 N 
ATOM      4  C   UNL     1      -1.819  -8.898   0.616  0.00  0.00    +0.222 C 
ATOM      5  N   UNL     1      -2.421  -7.556   0.556  0.00  0.00    -0.223 N 
ATOM      6  H   UNL     1       0.340  -9.301   0.541  0.00  0.00    +0.170 HD
ENDROOT
BRANCH   4   7
ATOM      7  C   UNL     1      -2.283  -9.757  -0.562  0.00  0.00    +0.197 C 
ATOM      8  C   UNL     1      -1.636 -11.126  -0.516  0.00  0.00    -0.017 C 
ATOM      9  C   UNL     1      -2.652 -11.978  -0.393  0.00  0.00    +0.065 C 
ATOM     10  C   UNL     1      -2.127 -13.401  -0.334  0.00  0.00    +0.057 C 
ATOM     11  C   UNL     1      -0.681 -13.319  -0.871  0.00  0.00    +0.011 C 
ATOM     12  C   UNL     1      -0.315 -11.849  -0.560  0.00  0.00    +0.035 C 
ATOM     13  N   UNL     1      -3.828 -11.294  -0.359  0.00  0.00    -0.158 NA
ATOM     14  N   UNL     1      -3.719 -10.066  -0.448  0.00  0.00    -0.176 NA
ENDBRANCH   4   7
BRANCH   5  15
ATOM     15  N   UNL     1      -3.753  -7.256   0.605  0.00  0.00    -0.250 NA
ATOM     16  H   UNL     1      -3.901  -6.260   0.542  0.00  0.00    +0.141 HD
ATOM     17  H   UNL     1      -4.260  -7.743  -0.118  0.00  0.00    +0.141 HD
ENDBRANCH   5  15
BRANCH   1  18
ATOM     18  S   UNL     1      -1.577  -4.910   0.325  0.00  0.00    -0.078 S 
BRANCH  18  19
ATOM     19  C   UNL     1       0.117  -4.277   0.192  0.00  0.00    +0.173 C 
BRANCH  19  21
ATOM     20  N   UNL     1       1.236  -2.081  -0.022  0.00  0.00    -0.283 N 
ATOM     21  C   UNL     1       0.085  -2.774   0.087  0.00  0.00    +0.228 C 
ATOM     22  O   UNL     1      -0.977  -2.187   0.102  0.00  0.00    -0.275 OA
ATOM     23  H   UNL     1       2.079  -2.552  -0.115  0.00  0.00    +0.155 HD
BRANCH  20  28
ATOM     24  C   UNL     1       0.153   1.372   0.637  0.00  0.00    +0.002 A 
ATOM     25  C   UNL     1       1.173   2.087   0.036  0.00  0.00    +0.003 A 
ATOM     26  C   UNL     1       2.214   1.423  -0.585  0.00  0.00    +0.040 A 
ATOM     27  C   UNL     1       2.239   0.040  -0.607  0.00  0.00    +0.144 A 
ATOM     28  C   UNL     1       1.215  -0.681  -0.002  0.00  0.00    +0.069 A 
ATOM     29  C   UNL     1       0.172  -0.009   0.620  0.00  0.00    +0.026 A 
ATOM     30  F   UNL     1       3.256  -0.609  -1.214  0.00  0.00    -0.204 F 
ENDBRANCH  20  28
ENDBRANCH  19  21
ENDBRANCH  18  19
ENDBRANCH   1  18
TORSDOF 6
