REMARK  Name = ZINC33707599
REMARK  10 active torsions:
REMARK  status: ('A' for Active; 'I' for Inactive)
REMARK    1  A    between atoms: C_1  and  C_2
REMARK    2  A    between atoms: C_8  and  N_10
REMARK    3  A    between atoms: C_11  and  C_13
REMARK    4  A    between atoms: C_21  and  C_35
REMARK    5  A    between atoms: N_27  and  C_28
REMARK    6  A    between atoms: C_28  and  C_29
REMARK    7  A    between atoms: N_37  and  C_38
REMARK    8  A    between atoms: C_41  and  C_44
REMARK    9  A    between atoms: C_44  and  C_45
REMARK   10  A    between atoms: C_44  and  C_46
REMARK                            x       y       z     vdW  Elec       q    Type
REMARK                         _______ _______ _______ _____ _____    ______ ____
ROOT
ATOM      1  C   UNL     1       1.597  -1.018   0.326  0.00  0.00    +0.198 C 
ATOM      2  C   UNL     1       1.270  -2.298  -0.374  0.00  0.00    +0.127 C 
ATOM      3  C   UNL     1       1.712  -2.299  -1.826  0.00  0.00    +0.009 C 
ATOM      4  C   UNL     1       1.369  -3.485  -2.306  0.00  0.00    +0.004 C 
ATOM      5  C   UNL     1       0.654  -4.191  -1.146  0.00  0.00    +0.155 C 
ATOM      6  O   UNL     1       1.390  -3.643   0.026  0.00  0.00    -0.358 OA
ATOM      7  C   UNL     1      -0.701  -3.408  -1.079  0.00  0.00    +0.123 C 
ATOM      8  C   UNL     1      -0.304  -2.163  -0.326  0.00  0.00    +0.128 C 
ATOM      9  C   UNL     1      -0.463  -0.767  -0.771  0.00  0.00    +0.223 C 
ATOM     10  O   UNL     1      -1.373  -0.320  -1.436  0.00  0.00    -0.275 OA
ATOM     11  N   UNL     1       0.617  -0.068  -0.287  0.00  0.00    -0.284 N 
ENDROOT
BRANCH   1  13
ATOM     12  N   UNL     1       4.027  -1.070   0.787  0.00  0.00    -0.311 N 
ATOM     13  C   UNL     1       3.014  -0.592   0.038  0.00  0.00    +0.237 C 
ATOM     14  O   UNL     1       3.241   0.182  -0.868  0.00  0.00    -0.274 OA
ATOM     15  H   UNL     1       3.820  -1.772   1.608  0.00  0.00    +0.149 HD
BRANCH  12  22
ATOM     16  C   UNL     1       6.082  -3.051   0.293  0.00  0.00    +0.009 C 
ATOM     17  C   UNL     1       6.372  -1.729   1.008  0.00  0.00    +0.006 C 
ATOM     18  C   UNL     1       7.810  -1.296   0.715  0.00  0.00    +0.005 C 
ATOM     19  C   UNL     1       8.100   0.025   1.429  0.00  0.00    +0.000 C 
ATOM     20  C   UNL     1       7.132   1.099   0.928  0.00  0.00    +0.002 C 
ATOM     21  C   UNL     1       5.694   0.666   1.221  0.00  0.00    +0.022 C 
ATOM     22  C   UNL     1       5.404  -0.655   0.507  0.00  0.00    +0.076 C 
ENDBRANCH  12  22
ENDBRANCH   1  13
BRANCH   7  23
ATOM     23  C   UNL     1      -1.191  -3.069  -2.464  0.00  0.00    +0.224 C 
ATOM     24  O   UNL     1      -1.223  -1.913  -2.829  0.00  0.00    -0.275 OA
ATOM     25  N   UNL     1      -1.593  -4.050  -3.295  0.00  0.00    -0.285 N 
ATOM     26  H   UNL     1      -1.482  -5.103  -2.997  0.00  0.00    +0.155 HD
BRANCH  25  27
ATOM     27  C   UNL     1      -2.150  -3.729  -4.538  0.00  0.00    +0.033 A 
ATOM     28  C   UNL     1      -2.916  -2.580  -4.681  0.00  0.00    +0.023 A 
ATOM     29  C   UNL     1      -3.461  -2.264  -5.910  0.00  0.00    +0.006 A 
ATOM     30  C   UNL     1      -3.254  -3.096  -6.995  0.00  0.00    -0.045 A 
ATOM     31  C   UNL     1      -2.496  -4.244  -6.854  0.00  0.00    +0.006 A 
ATOM     32  C   UNL     1      -1.944  -4.563  -5.629  0.00  0.00    +0.023 A 
BRANCH  30  33
ATOM     33  C   UNL     1      -3.856  -2.751  -8.333  0.00  0.00    +0.013 C 
ATOM     34  C   UNL     1      -5.378  -2.682  -8.204  0.00  0.00    +0.012 C 
ATOM     35  C   UNL     1      -3.321  -1.395  -8.799  0.00  0.00    +0.012 C 
ENDBRANCH  30  33
ENDBRANCH  25  27
ENDBRANCH   7  23
BRANCH  11  36
ATOM     36  C   UNL     1       0.786   1.385  -0.366  0.00  0.00    +0.140 C 
BRANCH  36  37
ATOM     37  C   UNL     1       0.181   2.037   0.879  0.00  0.00    +0.136 C 
ATOM     38  C   UNL     1       0.235   3.576   0.760  0.00  0.00    +0.035 C 
ATOM     39  C   UNL     1       0.545   4.053   2.196  0.00  0.00    +0.031 C 
ATOM     40  C   UNL     1       0.641   2.746   3.013  0.00  0.00    +0.160 C 
ATOM     41  O   UNL     1       0.976   1.729   2.044  0.00  0.00    -0.375 OA
ENDBRANCH  36  37
ENDBRANCH  11  36
TORSDOF 7
