REMARK  Name = ZINC06195778
REMARK  11 active torsions:
REMARK  status: ('A' for Active; 'I' for Inactive)
REMARK    1  A    between atoms: C_1  and  C_2
REMARK    2  A    between atoms: C_2  and  O_3
REMARK    3  A    between atoms: O_3  and  C_4
REMARK    4  A    between atoms: C_6  and  C_12
REMARK    5  A    between atoms: C_9  and  O_10
REMARK    6  A    between atoms: C_22  and  C_30
REMARK    7  A    between atoms: C_23  and  C_24
REMARK    8  A    between atoms: C_24  and  O_26
REMARK    9  A    between atoms: O_26  and  C_27
REMARK   10  A    between atoms: C_27  and  C_28
REMARK   11  A    between atoms: C_27  and  C_29
REMARK                            x       y       z     vdW  Elec       q    Type
REMARK                         _______ _______ _______ _____ _____    ______ ____
ROOT
ATOM      1  C   UNL     1       0.056  -0.083  -0.063  0.00  0.00    +0.092 C 
ATOM      2  C   UNL     1      -0.065   1.420  -0.014  0.00  0.00    +0.024 C 
ATOM      3  C   UNL     1       1.036   2.199   0.039  0.00  0.00    +0.015 C 
ATOM      4  C   UNL     1       0.924   3.702   0.084  0.00  0.00    +0.051 C 
ATOM      5  C   UNL     1      -0.372   4.100   0.794  0.00  0.00    +0.014 C 
ATOM      6  C   UNL     1      -1.551   3.474   0.042  0.00  0.00    +0.080 C 
ATOM      7  C   UNL     1      -1.353   1.983  -0.019  0.00  0.00    +0.162 C 
ATOM      8  O   UNL     1      -2.323   1.254  -0.078  0.00  0.00    -0.292 OA
ATOM      9  N   UNL     1       2.285   1.636   0.049  0.00  0.00    -0.321 N 
ATOM     10  C   UNL     1       2.475   0.356  -0.390  0.00  0.00    +0.016 C 
ATOM     11  C   UNL     1       1.440  -0.499  -0.465  0.00  0.00    +0.065 C 
ATOM     12  C   UNL     1       3.853  -0.100  -0.794  0.00  0.00    +0.061 C 
ATOM     13  H   UNL     1       3.146   2.216   0.413  0.00  0.00    +0.152 HD
ENDROOT
BRANCH   1  16
ATOM     14  C   UNL     1      -1.593  -2.055   2.706  0.00  0.00    +0.163 A 
ATOM     15  C   UNL     1      -1.309  -1.529   1.455  0.00  0.00    +0.054 A 
ATOM     16  C   UNL     1      -0.254  -0.649   1.298  0.00  0.00    -0.030 A 
ATOM     17  C   UNL     1       0.512  -0.282   2.389  0.00  0.00    +0.023 A 
ATOM     18  C   UNL     1       0.231  -0.799   3.641  0.00  0.00    +0.063 A 
ATOM     19  C   UNL     1      -0.821  -1.686   3.804  0.00  0.00    +0.173 A 
ATOM     20 BR   UNL     1       1.282  -0.294   5.130  0.00  0.00    -0.046 Br
BRANCH  19  21
ATOM     21  O   UNL     1      -1.100  -2.195   5.034  0.00  0.00    -0.503 OA
ATOM     22  H   UNL     1      -0.489  -1.903   5.901  0.00  0.00    +0.292 HD
ENDBRANCH  19  21
BRANCH  14  23
ATOM     23  O   UNL     1      -2.626  -2.925   2.861  0.00  0.00    -0.489 OA
BRANCH  23  25
ATOM     24  C   UNL     1      -4.487  -4.241   2.058  0.00  0.00    +0.048 C 
ATOM     25  C   UNL     1      -3.375  -3.258   1.690  0.00  0.00    +0.226 C 
ENDBRANCH  23  25
ENDBRANCH  14  23
ENDBRANCH   1  16
BRANCH  11  26
ATOM     26  C   UNL     1       1.661  -1.816  -0.931  0.00  0.00    +0.338 C 
ATOM     27  O   UNL     1       2.755  -2.135  -1.357  0.00  0.00    -0.245 OA
BRANCH  26  28
ATOM     28  O   UNL     1       0.658  -2.719  -0.902  0.00  0.00    -0.459 OA
BRANCH  28  29
ATOM     29  C   UNL     1       0.952  -4.030  -1.387  0.00  0.00    +0.171 C 
ATOM     30  C   UNL     1       1.457  -4.900  -0.235  0.00  0.00    +0.052 C 
ATOM     31  C   UNL     1      -0.316  -4.651  -1.977  0.00  0.00    +0.052 C 
ENDBRANCH  28  29
ENDBRANCH  26  28
ENDBRANCH  11  26
TORSDOF 7
