REMARK  Name = ZINC33937277
REMARK  12 active torsions:
REMARK  status: ('A' for Active; 'I' for Inactive)
REMARK    1  A    between atoms: C_1  and  C_2
REMARK    2  A    between atoms: C_2  and  C_3
REMARK    3  A    between atoms: C_3  and  C_4
REMARK    4  A    between atoms: C_4  and  C_6
REMARK    5  A    between atoms: C_4  and  N_18
REMARK    6  A    between atoms: N_10  and  C_11
REMARK    7  A    between atoms: C_11  and  C_12
REMARK    8  A    between atoms: N_18  and  C_19
REMARK    9  A    between atoms: N_18  and  C_34
REMARK   10  A    between atoms: C_19  and  C_20
REMARK   11  A    between atoms: C_24  and  C_33
REMARK   12  A    between atoms: C_25  and  C_32
REMARK                            x       y       z     vdW  Elec       q    Type
REMARK                         _______ _______ _______ _____ _____    ______ ____
ROOT
ATOM      1  N   UNL     1      -0.673  -2.510   1.411  0.00  0.00    +0.391 N 
ATOM      2  H   UNL     1      -0.645  -2.392   2.412  0.00  0.00    -0.080 HD
ENDROOT
BRANCH   1   3
ATOM      3  C   UNL     1      -1.036  -3.898   1.092  0.00  0.00    -0.067 C 
ATOM      4  C   UNL     1      -2.523  -4.143   1.420  0.00  0.00    -0.015 C 
ATOM      5  C   UNL     1      -2.556  -5.591   1.972  0.00  0.00    -0.002 C 
ATOM      6  C   UNL     1      -1.249  -5.671   2.798  0.00  0.00    -0.002 C 
ATOM      7  C   UNL     1      -0.226  -4.869   1.968  0.00  0.00    -0.015 C 
ENDBRANCH   1   3
BRANCH   1   8
ATOM      8  C   UNL     1       0.648  -2.208   0.844  0.00  0.00    +0.003 C 
BRANCH   8   9
ATOM      9  C   UNL     1       0.627  -2.459  -0.642  0.00  0.00    +0.138 A 
ATOM     10  N   UNL     1       0.153  -3.518  -1.250  0.00  0.00    -0.115 NA
ATOM     11  N   UNL     1       0.317  -3.357  -2.517  0.00  0.00    -0.023 NA
ATOM     12  N   UNL     1       0.884  -2.222  -2.734  0.00  0.00    -0.044 NA
ATOM     13  N   UNL     1       1.087  -1.635  -1.603  0.00  0.00    -0.228 N 
BRANCH  13  14
ATOM     14  C   UNL     1       1.704  -0.322  -1.401  0.00  0.00    +0.178 C 
BRANCH  14  15
ATOM     15  C   UNL     1       3.217  -0.488  -1.244  0.00  0.00    +0.140 C 
ATOM     16  C   UNL     1       3.900   0.897  -1.121  0.00  0.00    +0.035 C 
ATOM     17  C   UNL     1       5.197   0.518  -0.355  0.00  0.00    +0.031 C 
ATOM     18  C   UNL     1       4.715  -0.627   0.560  0.00  0.00    +0.160 C 
ATOM     19  O   UNL     1       3.519  -1.169  -0.016  0.00  0.00    -0.375 OA
ENDBRANCH  14  15
ENDBRANCH  13  14
ENDBRANCH   8   9
BRANCH   8  20
ATOM     20  C   UNL     1       1.701  -3.104   1.498  0.00  0.00    -0.008 C 
BRANCH  20  22
ATOM     21  C   UNL     1       2.772  -3.737   3.665  0.00  0.00    +0.004 C 
ATOM     22  C   UNL     1       1.816  -2.756   2.984  0.00  0.00    -0.005 C 
ENDBRANCH  20  22
ENDBRANCH   8  20
ENDBRANCH   1   8
BRANCH   1  23
ATOM     23  C   UNL     1      -1.672  -1.599   0.837  0.00  0.00    -0.036 C 
BRANCH  23  24
ATOM     24  C   UNL     1      -1.397  -0.193   1.306  0.00  0.00    +0.001 A 
ATOM     25  C   UNL     1      -0.739   0.672   0.495  0.00  0.00    +0.017 A 
ATOM     26  C   UNL     1      -0.488   2.031   0.980  0.00  0.00    -0.001 A 
ATOM     27  C   UNL     1       0.185   2.969   0.190  0.00  0.00    +0.013 A 
ATOM     28  C   UNL     1       0.404   4.228   0.671  0.00  0.00    -0.047 A 
ATOM     29  C   UNL     1      -0.036   4.586   1.938  0.00  0.00    -0.046 A 
ATOM     30  C   UNL     1      -0.701   3.679   2.735  0.00  0.00    +0.030 A 
ATOM     31  C   UNL     1      -0.936   2.390   2.265  0.00  0.00    +0.049 A 
ATOM     32  N   UNL     1      -1.599   1.463   3.040  0.00  0.00    -0.322 N 
ATOM     33  H   UNL     1      -1.907   1.712   3.925  0.00  0.00    +0.169 HD
ATOM     34  C   UNL     1      -1.830   0.219   2.584  0.00  0.00    +0.251 A 
ATOM     35  O   UNL     1      -2.424  -0.573   3.295  0.00  0.00    -0.268 OA
ATOM     36  C   UNL     1       0.216   5.981   2.449  0.00  0.00    +0.044 C 
ATOM     37  C   UNL     1       1.129   5.238  -0.181  0.00  0.00    +0.044 C 
ENDBRANCH  23  24
ENDBRANCH   1  23
TORSDOF 9
