REMARK  Name = ZINC33778359
REMARK  11 active torsions:
REMARK  status: ('A' for Active; 'I' for Inactive)
REMARK    1  A    between atoms: C_1  and  C_2
REMARK    2  A    between atoms: C_9  and  C_16
REMARK    3  A    between atoms: C_10  and  N_11
REMARK    4  A    between atoms: N_11  and  C_12
REMARK    5  A    between atoms: C_12  and  C_13
REMARK    6  A    between atoms: C_12  and  C_14
REMARK    7  A    between atoms: C_12  and  C_15
REMARK    8  A    between atoms: C_19  and  O_22
REMARK    9  A    between atoms: O_22  and  C_23
REMARK   10  A    between atoms: C_23  and  C_25
REMARK   11  A    between atoms: C_29  and  N_31
REMARK                            x       y       z     vdW  Elec       q    Type
REMARK                         _______ _______ _______ _____ _____    ______ ____
ROOT
ATOM      1  C   UNL     1       2.564  -0.176   0.392  0.00  0.00    +0.002 A 
ATOM      2  C   UNL     1       1.751  -1.319   0.397  0.00  0.00    +0.013 A 
ATOM      3  C   UNL     1       0.456  -1.231   0.822  0.00  0.00    +0.047 A 
ATOM      4  C   UNL     1      -0.055  -0.012   1.259  0.00  0.00    +0.132 A 
ATOM      5  C   UNL     1       0.748   1.126   1.256  0.00  0.00    +0.047 A 
ATOM      6  C   UNL     1       2.042   1.051   0.828  0.00  0.00    +0.013 A 
ENDROOT
BRANCH   1  15
ATOM      7  C   UNL     1       9.524  -2.098  -1.243  0.00  0.00    +0.044 C 
ATOM      8  C   UNL     1       8.264  -1.275  -1.163  0.00  0.00    -0.046 A 
ATOM      9  C   UNL     1       8.221  -0.003  -1.722  0.00  0.00    +0.021 A 
ATOM     10  C   UNL     1       7.075   0.735  -1.643  0.00  0.00    +0.094 A 
ATOM     11  N   UNL     1       5.970   0.239  -1.022  0.00  0.00    -0.289 N 
ATOM     12  C   UNL     1       5.977  -1.009  -0.460  0.00  0.00    +0.117 A 
ATOM     13  C   UNL     1       7.132  -1.782  -0.526  0.00  0.00    +0.048 A 
ATOM     14  N   UNL     1       4.777  -1.274   0.099  0.00  0.00    -0.338 N 
ATOM     15  C   UNL     1       3.958  -0.264  -0.070  0.00  0.00    +0.087 A 
ATOM     16  C   UNL     1       4.715   0.780  -0.815  0.00  0.00    +0.129 A 
ATOM     17  H   UNL     1       4.606  -2.236   0.604  0.00  0.00    +0.167 HD
BRANCH  16  18
ATOM     18  N   UNL     1       4.277   1.976  -1.198  0.00  0.00    -0.324 N 
ATOM     19  H   UNL     1       3.274   2.413  -1.091  0.00  0.00    +0.148 HD
BRANCH  18  20
ATOM     20  C   UNL     1       5.350   2.748  -1.841  0.00  0.00    +0.025 C 
ATOM     21  C   UNL     1       5.778   2.047  -3.132  0.00  0.00    +0.031 C 
ATOM     22  C   UNL     1       4.841   4.153  -2.168  0.00  0.00    +0.031 C 
ATOM     23  C   UNL     1       6.546   2.846  -0.892  0.00  0.00    +0.031 C 
ENDBRANCH  18  20
ENDBRANCH  16  18
ENDBRANCH   1  15
BRANCH   4  24
ATOM     24  O   UNL     1      -1.341   0.069   1.684  0.00  0.00    -0.422 OA
BRANCH  24  25
ATOM     25  C   UNL     1      -1.614  -0.434   2.904  0.00  0.00    +0.345 C 
ATOM     26  O   UNL     1      -0.713  -0.846   3.607  0.00  0.00    -0.245 OA
BRANCH  25  27
ATOM     27  C   UNL     1      -3.009  -0.483   3.387  0.00  0.00    +0.062 A 
ATOM     28  C   UNL     1      -4.046  -0.004   2.583  0.00  0.00    +0.016 A 
ATOM     29  C   UNL     1      -5.347  -0.057   3.037  0.00  0.00    +0.023 A 
ATOM     30  C   UNL     1      -5.625  -0.574   4.292  0.00  0.00    +0.071 A 
ATOM     31  C   UNL     1      -4.600  -1.046   5.096  0.00  0.00    +0.145 A 
ATOM     32  C   UNL     1      -3.296  -1.003   4.651  0.00  0.00    +0.049 A 
ATOM     33 CL   UNL     1      -7.264  -0.632   4.859  0.00  0.00    -0.081 Cl
BRANCH  31  34
ATOM     34  N   UNL     1      -4.906  -1.598   6.435  0.00  0.00    +0.058 N 
ATOM     35  O   UNL     1      -3.933  -2.047   7.200  0.00  0.00    -0.126 OA
ATOM     36  O   UNL     1      -6.151  -1.639   6.861  0.00  0.00    -0.126 OA
ENDBRANCH  31  34
ENDBRANCH  25  27
ENDBRANCH  24  25
ENDBRANCH   4  24
TORSDOF 7
