REMARK  Name = ZINC12683748
REMARK  7 active torsions:
REMARK  status: ('A' for Active; 'I' for Inactive)
REMARK    1  A    between atoms: C_1  and  C_2
REMARK    2  A    between atoms: C_4  and  C_27
REMARK    3  A    between atoms: C_6  and  N_8
REMARK    4  A    between atoms: C_9  and  C_11
REMARK    5  A    between atoms: C_11  and  N_12
REMARK    6  A    between atoms: C_15  and  C_19
REMARK    7  A    between atoms: C_15  and  C_20
REMARK                            x       y       z     vdW  Elec       q    Type
REMARK                         _______ _______ _______ _____ _____    ______ ____
ROOT
ATOM      1  N   UNL     1       1.702  -3.549  -1.958  0.00  0.00    -0.215 N 
ATOM      2  C   UNL     1       1.988  -2.864  -0.834  0.00  0.00    +0.251 C 
ATOM      3  O   UNL     1       3.086  -2.637  -0.373  0.00  0.00    -0.272 OA
ATOM      4  C   UNL     1       0.649  -2.437  -0.264  0.00  0.00    +0.135 C 
ATOM      5  N   UNL     1      -0.326  -2.982  -1.224  0.00  0.00    -0.281 N 
ATOM      6  C   UNL     1       0.384  -3.614  -2.176  0.00  0.00    +0.310 C 
ATOM      7  O   UNL     1      -0.117  -4.180  -3.128  0.00  0.00    -0.252 OA
ATOM      8  C   UNL     1       0.438  -3.042   1.126  0.00  0.00    +0.047 C 
ATOM      9  H   UNL     1      -1.291  -2.902  -1.178  0.00  0.00    +0.152 HD
ENDROOT
BRANCH   4  10
ATOM     10  C   UNL     1       0.553  -0.934  -0.206  0.00  0.00    -0.014 A 
ATOM     11  C   UNL     1       1.695  -0.174  -0.029  0.00  0.00    +0.006 A 
ATOM     12  C   UNL     1       1.607   1.204   0.024  0.00  0.00    +0.001 A 
ATOM     13  C   UNL     1       0.378   1.824  -0.099  0.00  0.00    +0.015 A 
ATOM     14  C   UNL     1      -0.765   1.064  -0.276  0.00  0.00    +0.018 A 
ATOM     15  C   UNL     1      -0.676  -0.315  -0.330  0.00  0.00    +0.021 A 
ATOM     16 BR   UNL     1      -2.446   1.912  -0.453  0.00  0.00    -0.050 Br
ENDBRANCH   4  10
BRANCH   1  17
ATOM     17  C   UNL     1       2.712  -4.150  -2.834  0.00  0.00    +0.214 C 
BRANCH  17  19
ATOM     18  N   UNL     1       3.893  -6.313  -3.046  0.00  0.00    -0.284 N 
ATOM     19  C   UNL     1       2.992  -5.561  -2.384  0.00  0.00    +0.235 C 
ATOM     20  O   UNL     1       2.406  -6.019  -1.426  0.00  0.00    -0.274 OA
ATOM     21  H   UNL     1       4.305  -5.975  -3.857  0.00  0.00    +0.155 HD
BRANCH  18  27
ATOM     22  C   UNL     1       5.233 -10.959  -3.936  0.00  0.00    +0.044 C 
ATOM     23  C   UNL     1       4.888  -9.852  -2.973  0.00  0.00    -0.048 A 
ATOM     24  C   UNL     1       4.909 -10.090  -1.611  0.00  0.00    +0.006 A 
ATOM     25  C   UNL     1       4.593  -9.077  -0.724  0.00  0.00    -0.048 A 
ATOM     26  C   UNL     1       4.256  -7.824  -1.197  0.00  0.00    +0.026 A 
ATOM     27  C   UNL     1       4.235  -7.581  -2.564  0.00  0.00    +0.034 A 
ATOM     28  C   UNL     1       4.548  -8.602  -3.452  0.00  0.00    +0.026 A 
ATOM     29  C   UNL     1       4.616  -9.341   0.759  0.00  0.00    +0.044 C 
ENDBRANCH  18  27
ENDBRANCH  17  19
ENDBRANCH   1  17
TORSDOF 4
