REMARK  Name = ZINC37317762
REMARK  7 active torsions:
REMARK  status: ('A' for Active; 'I' for Inactive)
REMARK    1  A    between atoms: C_1  and  C_2
REMARK    2  A    between atoms: C_2  and  C_4
REMARK    3  A    between atoms: C_2  and  N_10
REMARK    4  A    between atoms: N_10  and  C_11
REMARK    5  A    between atoms: C_18  and  C_20
REMARK    6  A    between atoms: C_20  and  C_21
REMARK    7  A    between atoms: C_20  and  C_22
REMARK                            x       y       z     vdW  Elec       q    Type
REMARK                         _______ _______ _______ _____ _____    ______ ____
ROOT
ATOM      1  C   UNL     1       2.105  -0.604   1.173  0.00  0.00    +0.030 A 
ATOM      2  C   UNL     1       2.817  -0.250   0.029  0.00  0.00    +0.026 A 
ATOM      3  C   UNL     1       4.191  -0.359   0.002  0.00  0.00    +0.050 A 
ATOM      4  C   UNL     1       4.872  -0.822   1.117  0.00  0.00    +0.155 A 
ATOM      5  C   UNL     1       4.162  -1.180   2.273  0.00  0.00    +0.111 A 
ATOM      6  C   UNL     1       2.771  -1.062   2.295  0.00  0.00    +0.054 A 
ATOM      7  N   UNL     1       5.085  -1.590   3.184  0.00  0.00    -0.213 NA
ATOM      8  C   UNL     1       6.267  -1.500   2.652  0.00  0.00    +0.199 A 
ATOM      9  O   UNL     1       6.178  -1.036   1.396  0.00  0.00    -0.439 OA
ENDROOT
BRANCH   8  10
ATOM     10  C   UNL     1       7.554  -1.862   3.347  0.00  0.00    +0.069 C 
ATOM     11  C   UNL     1       8.259  -2.974   2.566  0.00  0.00    +0.017 C 
ATOM     12  C   UNL     1       8.462  -0.632   3.414  0.00  0.00    +0.017 C 
ENDBRANCH   8  10
BRANCH   1  13
ATOM     13  N   UNL     1       0.711  -0.489   1.189  0.00  0.00    -0.337 N 
ATOM     14  H   UNL     1       0.213  -0.731   1.986  0.00  0.00    +0.147 HD
BRANCH  13  16
ATOM     15  C   UNL     1      -0.019   1.526   0.010  0.00  0.00    +0.033 C 
ATOM     16  C   UNL     1       0.002  -0.004   0.002  0.00  0.00    +0.105 C 
BRANCH  16  17
ATOM     17  C   UNL     1      -1.412  -0.526   0.013  0.00  0.00    +0.024 A 
ATOM     18  C   UNL     1      -2.126  -1.077  -0.999  0.00  0.00    +0.030 A 
ATOM     19  C   UNL     1      -3.423  -1.490  -0.757  0.00  0.00    +0.023 A 
ATOM     20  C   UNL     1      -3.942  -1.332   0.486  0.00  0.00    +0.046 A 
ATOM     21  S   UNL     1      -2.578  -0.586   1.363  0.00  0.00    -0.099 S 
ATOM     22 BR   UNL     1      -1.361  -1.276  -2.717  0.00  0.00    -0.049 Br
ENDBRANCH  16  17
ENDBRANCH  13  16
ENDBRANCH   1  13
TORSDOF 4
