REMARK  Name = ZINC57608388
REMARK  15 active torsions:
REMARK  status: ('A' for Active; 'I' for Inactive)
REMARK    1  A    between atoms: C_1  and  C_2
REMARK    2  A    between atoms: C_2  and  C_3
REMARK    3  A    between atoms: C_3  and  C_4
REMARK    4  A    between atoms: C_3  and  C_5
REMARK    5  A    between atoms: C_3  and  N_6
REMARK    6  A    between atoms: C_7  and  C_11
REMARK    7  A    between atoms: C_11  and  C_13
REMARK    8  A    between atoms: C_11  and  N_26
REMARK    9  A    between atoms: C_18  and  C_25
REMARK   10  A    between atoms: N_26  and  C_27
REMARK   11  A    between atoms: N_26  and  C_36
REMARK   12  A    between atoms: C_27  and  C_28
REMARK   13  A    between atoms: C_32  and  O_34
REMARK   14  A    between atoms: O_34  and  C_35
REMARK   15  A    between atoms: C_36  and  C_37
REMARK                            x       y       z     vdW  Elec       q    Type
REMARK                         _______ _______ _______ _____ _____    ______ ____
ROOT
ATOM      1  C   UNL     1       2.075  -2.244  -3.774  0.00  0.00    +0.163 C 
ENDROOT
BRANCH   1   2
ATOM      2  C   UNL     1       1.418  -2.575  -5.089  0.00  0.00    +0.042 A 
ATOM      3  C   UNL     1       0.973  -1.578  -5.892  0.00  0.00    +0.021 A 
ATOM      4  C   UNL     1       0.339  -1.933  -7.163  0.00  0.00    -0.001 A 
ATOM      5  C   UNL     1      -0.139  -0.948  -8.034  0.00  0.00    +0.010 A 
ATOM      6  C   UNL     1      -0.725  -1.313  -9.213  0.00  0.00    +0.004 A 
ATOM      7  C   UNL     1      -0.851  -2.653  -9.554  0.00  0.00    -0.048 A 
ATOM      8  C   UNL     1      -0.388  -3.640  -8.712  0.00  0.00    +0.029 A 
ATOM      9  C   UNL     1       0.214  -3.293  -7.506  0.00  0.00    +0.049 A 
ATOM     10  N   UNL     1       0.687  -4.259  -6.645  0.00  0.00    -0.322 N 
ATOM     11  H   UNL     1       0.600  -5.196  -6.883  0.00  0.00    +0.169 HD
ATOM     12  C   UNL     1       1.272  -3.923  -5.482  0.00  0.00    +0.254 A 
ATOM     13  O   UNL     1       1.684  -4.804  -4.747  0.00  0.00    -0.268 OA
ATOM     14  C   UNL     1      -1.502  -3.032 -10.860  0.00  0.00    +0.044 C 
ENDBRANCH   1   2
BRANCH   1  16
ATOM     15  N   UNL     1       0.405  -2.046  -1.857  0.00  0.00    -0.222 N 
ATOM     16  C   UNL     1       1.227  -2.765  -2.643  0.00  0.00    +0.174 A 
ATOM     17  N   UNL     1       1.147  -4.008  -2.233  0.00  0.00    -0.111 NA
ATOM     18  N   UNL     1       0.319  -4.050  -1.248  0.00  0.00    -0.023 NA
ATOM     19  N   UNL     1      -0.128  -2.865  -1.014  0.00  0.00    -0.043 NA
BRANCH  15  20
ATOM     20  C   UNL     1       0.164  -0.603  -1.939  0.00  0.00    +0.062 C 
ATOM     21  C   UNL     1      -0.334  -0.249  -3.342  0.00  0.00    +0.036 C 
ATOM     22  C   UNL     1       1.466   0.148  -1.655  0.00  0.00    +0.036 C 
BRANCH  20  24
ATOM     23  C   UNL     1      -1.143   1.304  -0.993  0.00  0.00    +0.006 C 
ATOM     24  C   UNL     1      -0.892  -0.203  -0.907  0.00  0.00    +0.026 C 
ENDBRANCH  20  24
ENDBRANCH  15  20
ENDBRANCH   1  16
BRANCH   1  25
ATOM     25  N   UNL     1       3.404  -2.869  -3.719  0.00  0.00    -0.277 NA
BRANCH  25  26
ATOM     26  C   UNL     1       4.158  -2.400  -2.549  0.00  0.00    +0.121 C 
BRANCH  26  27
ATOM     27  C   UNL     1       3.735  -3.182  -1.333  0.00  0.00    -0.030 A 
ATOM     28  C   UNL     1       2.799  -2.654  -0.463  0.00  0.00    +0.005 A 
ATOM     29  C   UNL     1       2.409  -3.369   0.654  0.00  0.00    +0.004 A 
ATOM     30  C   UNL     1       2.955  -4.613   0.905  0.00  0.00    +0.045 A 
ATOM     31  C   UNL     1       3.894  -5.145   0.034  0.00  0.00    +0.120 A 
ATOM     32  C   UNL     1       4.279  -4.428  -1.090  0.00  0.00    +0.050 A 
BRANCH  31  33
ATOM     33  O   UNL     1       4.432  -6.369   0.278  0.00  0.00    -0.495 OA
ATOM     34  C   UNL     1       3.903  -7.101   1.385  0.00  0.00    +0.277 C 
ENDBRANCH  31  33
ENDBRANCH  26  27
ENDBRANCH  25  26
BRANCH  25  35
ATOM     35  C   UNL     1       4.151  -2.625  -4.960  0.00  0.00    +0.160 C 
BRANCH  35  36
ATOM     36  C   UNL     1       5.321  -3.573  -5.036  0.00  0.00    +0.119 A 
ATOM     37  C   UNL     1       5.332  -4.760  -5.669  0.00  0.00    +0.046 A 
ATOM     38  C   UNL     1       6.622  -5.309  -5.486  0.00  0.00    +0.041 A 
ATOM     39  C   UNL     1       7.322  -4.425  -4.752  0.00  0.00    +0.195 A 
ATOM     40  O   UNL     1       6.530  -3.373  -4.487  0.00  0.00    -0.467 OA
ENDBRANCH  35  36
ENDBRANCH  25  35
ENDBRANCH   1  25
TORSDOF 10
