REMARK  Name = ZINC38971902
REMARK  8 active torsions:
REMARK  status: ('A' for Active; 'I' for Inactive)
REMARK    1  A    between atoms: C_1  and  C_2
REMARK    2  A    between atoms: C_5  and  S_9
REMARK    3  A    between atoms: C_7  and  C_8
REMARK    4  A    between atoms: S_9  and  N_12
REMARK    5  A    between atoms: C_14  and  N_24
REMARK    6  A    between atoms: N_24  and  C_25
REMARK    7  A    between atoms: C_27  and  C_32
REMARK    8  A    between atoms: C_29  and  C_31
REMARK                            x       y       z     vdW  Elec       q    Type
REMARK                         _______ _______ _______ _____ _____    ______ ____
ROOT
ATOM      1  N   UNL     1       1.679  -4.669   0.331  0.00  0.00    -0.110 NA
ATOM      2  C   UNL     1       1.892  -5.929   0.090  0.00  0.00    +0.192 C 
ATOM      3  C   UNL     1       3.300  -6.450  -0.082  0.00  0.00    +0.237 C 
ATOM      4  N   UNL     1       3.473  -7.886  -0.353  0.00  0.00    -0.359 N 
ATOM      5  C   UNL     1       2.410  -8.637  -0.431  0.00  0.00    +0.063 A 
ATOM      6  C   UNL     1       2.528 -10.078  -0.700  0.00  0.00    +0.027 A 
ATOM      7  C   UNL     1       1.404 -10.823  -0.774  0.00  0.00    +0.002 A 
ATOM      8  C   UNL     1       0.130 -10.257  -0.601  0.00  0.00    +0.002 A 
ATOM      9  C   UNL     1      -0.058  -8.943  -0.352  0.00  0.00    +0.030 A 
ATOM     10  C   UNL     1       1.052  -8.066  -0.253  0.00  0.00    +0.089 A 
ATOM     11  N   UNL     1       0.863  -6.787  -0.005  0.00  0.00    -0.226 NA
ATOM     12  H   UNL     1       4.358  -8.266  -0.470  0.00  0.00    +0.162 HD
ENDROOT
BRANCH   1  13
ATOM     13  S   UNL     1       0.132  -4.112   0.524  0.00  0.00    +0.100 S 
ATOM     14  O   UNL     1      -0.368  -4.707   1.713  0.00  0.00    -0.146 OA
ATOM     15  O   UNL     1      -0.513  -4.262  -0.733  0.00  0.00    -0.146 OA
BRANCH  13  20
ATOM     16  C   UNL     1       0.485   1.818   1.580  0.00  0.00    +0.044 C 
ATOM     17  C   UNL     1       0.397   0.337   1.316  0.00  0.00    -0.047 A 
ATOM     18  C   UNL     1       0.288  -0.129   0.019  0.00  0.00    +0.005 A 
ATOM     19  C   UNL     1       0.207  -1.487  -0.223  0.00  0.00    +0.029 A 
ATOM     20  C   UNL     1       0.236  -2.380   0.832  0.00  0.00    +0.113 A 
ATOM     21  C   UNL     1       0.346  -1.914   2.129  0.00  0.00    +0.032 A 
ATOM     22  C   UNL     1       0.431  -0.556   2.370  0.00  0.00    -0.046 A 
ATOM     23  C   UNL     1       0.557  -0.048   3.784  0.00  0.00    +0.044 C 
ENDBRANCH  13  20
ENDBRANCH   1  13
BRANCH   3  24
ATOM     24  N   UNL     1       4.046  -6.133   1.138  0.00  0.00    -0.318 N 
ATOM     25  H   UNL     1       3.638  -6.274   2.007  0.00  0.00    +0.148 HD
BRANCH  24  26
ATOM     26  C   UNL     1       5.346  -5.628   1.051  0.00  0.00    +0.029 A 
ATOM     27  C   UNL     1       5.999  -5.187   2.195  0.00  0.00    +0.026 A 
ATOM     28  C   UNL     1       7.284  -4.688   2.105  0.00  0.00    -0.048 A 
ATOM     29  C   UNL     1       7.919  -4.627   0.879  0.00  0.00    +0.006 A 
ATOM     30  C   UNL     1       7.272  -5.065  -0.262  0.00  0.00    -0.048 A 
ATOM     31  C   UNL     1       5.989  -5.570  -0.178  0.00  0.00    +0.026 A 
ATOM     32  C   UNL     1       7.968  -4.996  -1.596  0.00  0.00    +0.044 C 
ATOM     33  C   UNL     1       7.993  -4.209   3.346  0.00  0.00    +0.044 C 
ENDBRANCH  24  26
ENDBRANCH   3  24
TORSDOF 4
