REMARK  Name = ZINC02315904
REMARK  9 active torsions:
REMARK  status: ('A' for Active; 'I' for Inactive)
REMARK    1  A    between atoms: C_4  and  C_7
REMARK    2  A    between atoms: C_7  and  N_8
REMARK    3  A    between atoms: N_8  and  C_9
REMARK    4  A    between atoms: N_8  and  S_26
REMARK    5  A    between atoms: C_9  and  C_10
REMARK    6  A    between atoms: N_12  and  N_13
REMARK    7  A    between atoms: C_14  and  C_15
REMARK    8  A    between atoms: C_24  and  O_25
REMARK    9  A    between atoms: S_26  and  C_29
REMARK                            x       y       z     vdW  Elec       q    Type
REMARK                         _______ _______ _______ _____ _____    ______ ____
ROOT
ATOM      1  C   UNL     1      -3.863  10.168   0.088  0.00  0.00    +0.207 C 
ENDROOT
BRANCH   1   2
ATOM      2  C   UNL     1      -2.563   9.406   0.072  0.00  0.00    +0.248 C 
ATOM      3  O   UNL     1      -1.508  10.005   0.065  0.00  0.00    -0.273 OA
ATOM      4  N   UNL     1      -2.572   8.058   0.066  0.00  0.00    -0.206 N 
ATOM      5  H   UNL     1      -3.415   7.579   0.072  0.00  0.00    +0.177 HD
BRANCH   4   6
ATOM      6  N   UNL     1      -1.363   7.350   0.052  0.00  0.00    -0.188 NA
ATOM      7  C   UNL     1      -1.372   6.050   0.046  0.00  0.00    +0.142 C 
BRANCH   7   8
ATOM      8  C   UNL     1      -0.104   5.307   0.031  0.00  0.00    +0.044 A 
ATOM      9  C   UNL     1      -0.096   3.845   0.024  0.00  0.00    -0.006 A 
ATOM     10  C   UNL     1      -1.286   3.107   0.031  0.00  0.00    +0.009 A 
ATOM     11  C   UNL     1      -1.234   1.745   0.017  0.00  0.00    +0.001 A 
ATOM     12  C   UNL     1      -0.013   1.076   0.008  0.00  0.00    +0.001 A 
ATOM     13  C   UNL     1       1.163   1.762   0.000  0.00  0.00    +0.008 A 
ATOM     14  C   UNL     1       1.148   3.168   0.008  0.00  0.00    -0.017 A 
ATOM     15  C   UNL     1       2.342   3.910   0.000  0.00  0.00    +0.012 A 
ATOM     16  C   UNL     1       2.316   5.269   0.007  0.00  0.00    +0.046 A 
ATOM     17  C   UNL     1       1.117   5.981   0.022  0.00  0.00    +0.126 A 
BRANCH  17  18
ATOM     18  O   UNL     1       1.138   7.338   0.028  0.00  0.00    -0.506 OA
ATOM     19  H   UNL     1       1.135   7.735  -0.854  0.00  0.00    +0.292 HD
ENDBRANCH  17  18
ENDBRANCH   7   8
ENDBRANCH   4   6
ENDBRANCH   1   2
BRANCH   1  20
ATOM     20  N   UNL     1      -3.585  11.607   0.091  0.00  0.00    -0.163 NA
BRANCH  20  21
ATOM     21  S   UNL     1      -3.538  12.437   1.523  0.00  0.00    +0.062 S 
ATOM     22  O   UNL     1      -3.814  13.796   1.214  0.00  0.00    -0.153 OA
ATOM     23  O   UNL     1      -4.317  11.693   2.450  0.00  0.00    -0.153 OA
BRANCH  21  24
ATOM     24  C   UNL     1      -1.875  12.380   2.104  0.00  0.00    +0.106 A 
ATOM     25  C   UNL     1      -1.467  11.350   2.930  0.00  0.00    +0.030 A 
ATOM     26  C   UNL     1      -0.161  11.302   3.381  0.00  0.00    +0.022 A 
ATOM     27  C   UNL     1       0.734  12.291   3.014  0.00  0.00    +0.041 A 
ATOM     28  C   UNL     1       0.323  13.325   2.192  0.00  0.00    +0.022 A 
ATOM     29  C   UNL     1      -0.981  13.369   1.737  0.00  0.00    +0.030 A 
ATOM     30 CL   UNL     1       2.373  12.235   3.586  0.00  0.00    -0.084 Cl
ENDBRANCH  21  24
ENDBRANCH  20  21
BRANCH  20  31
ATOM     31  C   UNL     1      -3.350  12.311  -1.172  0.00  0.00    +0.145 C 
BRANCH  31  35
ATOM     32  C   UNL     1      -7.093  13.452  -2.885  0.00  0.00    +0.000 A 
ATOM     33  C   UNL     1      -6.439  14.309  -2.018  0.00  0.00    +0.000 A 
ATOM     34  C   UNL     1      -5.228  13.939  -1.464  0.00  0.00    +0.005 A 
ATOM     35  C   UNL     1      -4.670  12.713  -1.776  0.00  0.00    -0.032 A 
ATOM     36  C   UNL     1      -5.321  11.859  -2.647  0.00  0.00    +0.005 A 
ATOM     37  C   UNL     1      -6.535  12.227  -3.197  0.00  0.00    +0.000 A 
ENDBRANCH  31  35
ENDBRANCH  20  31
ENDBRANCH   1  20
TORSDOF 9
