REMARK  Name = ZINC20089088
REMARK  7 active torsions:
REMARK  status: ('A' for Active; 'I' for Inactive)
REMARK    1  A    between atoms: C_1  and  C_2
REMARK    2  A    between atoms: C_2  and  C_3
REMARK    3  A    between atoms: C_3  and  C_4
REMARK    4  A    between atoms: C_7  and  N_10
REMARK    5  A    between atoms: N_10  and  C_11
REMARK    6  A    between atoms: C_14  and  S_17
REMARK    7  A    between atoms: S_17  and  N_20
REMARK                            x       y       z     vdW  Elec       q    Type
REMARK                         _______ _______ _______ _____ _____    ______ ____
ROOT
ATOM      1  C   UNL     1      -2.355   2.659   3.684  0.00  0.00    +0.027 A 
ATOM      2  C   UNL     1      -2.560   1.407   3.119  0.00  0.00    +0.025 A 
ATOM      3  C   UNL     1      -1.846   1.031   1.999  0.00  0.00    +0.030 A 
ATOM      4  C   UNL     1      -0.927   1.900   1.439  0.00  0.00    +0.105 A 
ATOM      5  C   UNL     1      -0.716   3.145   2.003  0.00  0.00    +0.030 A 
ATOM      6  C   UNL     1      -1.431   3.530   3.120  0.00  0.00    +0.025 A 
ENDROOT
BRANCH   4   7
ATOM      7  S   UNL     1      -0.017   1.417   0.010  0.00  0.00    +0.056 S 
ATOM      8  O   UNL     1       0.002  -0.004   0.002  0.00  0.00    -0.153 OA
ATOM      9  O   UNL     1       1.172   2.195   0.003  0.00  0.00    -0.153 OA
BRANCH   7  10
ATOM     10  N   UNL     1      -0.897   1.885  -1.312  0.00  0.00    -0.204 NA
ATOM     11  H   UNL     1      -0.361   1.601  -2.229  0.00  0.00    +0.144 HD
ATOM     12  H   UNL     1      -1.036   2.977  -1.292  0.00  0.00    +0.144 HD
ENDBRANCH   7  10
ENDBRANCH   4   7
BRANCH   1  13
ATOM     13  N   UNL     1      -3.076   3.042   4.818  0.00  0.00    -0.341 N 
ATOM     14  H   UNL     1      -3.807   2.352   5.264  0.00  0.00    +0.146 HD
BRANCH  13  18
ATOM     15  C   UNL     1      -3.207   3.711   8.247  0.00  0.00    -0.011 C 
ATOM     16  C   UNL     1      -4.398   3.773   7.289  0.00  0.00    +0.005 C 
ATOM     17  C   UNL     1      -4.110   4.789   6.182  0.00  0.00    +0.022 C 
ATOM     18  C   UNL     1      -2.858   4.364   5.412  0.00  0.00    +0.070 C 
ATOM     19  C   UNL     1      -1.667   4.301   6.371  0.00  0.00    +0.022 C 
ATOM     20  C   UNL     1      -1.955   3.285   7.478  0.00  0.00    +0.005 C 
BRANCH  15  21
ATOM     21  C   UNL     1      -3.496   2.695   9.354  0.00  0.00    +0.003 C 
BRANCH  21  23
ATOM     22  C   UNL     1      -2.650   1.706  11.487  0.00  0.00    +0.004 C 
ATOM     23  C   UNL     1      -2.361   2.722  10.380  0.00  0.00    -0.003 C 
ENDBRANCH  21  23
ENDBRANCH  15  21
ENDBRANCH  13  18
ENDBRANCH   1  13
TORSDOF 6
