REMARK  Name = ZINC40814747
REMARK  8 active torsions:
REMARK  status: ('A' for Active; 'I' for Inactive)
REMARK    1  A    between atoms: C_1  and  C_2
REMARK    2  A    between atoms: C_6  and  C_7
REMARK    3  A    between atoms: N_9  and  N_10
REMARK    4  A    between atoms: N_10  and  C_11
REMARK    5  A    between atoms: N_10  and  C_17
REMARK    6  A    between atoms: N_27  and  N_28
REMARK    7  A    between atoms: N_28  and  C_29
REMARK    8  A    between atoms: C_32  and  N_35
REMARK                            x       y       z     vdW  Elec       q    Type
REMARK                         _______ _______ _______ _____ _____    ______ ____
ROOT
ATOM      1  C   UNL     1      -0.638  -1.131  -0.509  0.00  0.00    +0.048 C 
ATOM      2  C   UNL     1      -0.640  -2.450   0.221  0.00  0.00    +0.009 A 
ATOM      3  C   UNL     1      -0.799  -3.721  -0.343  0.00  0.00    +0.042 A 
ATOM      4  C   UNL     1      -0.739  -4.637   0.681  0.00  0.00    +0.115 A 
ATOM      5  O   UNL     1      -0.549  -3.970   1.818  0.00  0.00    -0.454 OA
ATOM      6  C   UNL     1      -0.482  -2.643   1.565  0.00  0.00    +0.194 A 
ATOM      7  C   UNL     1      -0.876  -6.122   0.463  0.00  0.00    +0.075 C 
ATOM      8  C   UNL     1      -1.577  -6.377  -0.874  0.00  0.00    +0.014 C 
ATOM      9  C   UNL     1      -0.866  -5.630  -2.008  0.00  0.00    +0.058 C 
ATOM     10  C   UNL     1      -0.999  -4.136  -1.750  0.00  0.00    +0.070 C 
ATOM     11  N   UNL     1      -1.267  -3.287  -2.694  0.00  0.00    -0.186 NA
ENDROOT
BRANCH   6  12
ATOM     12  C   UNL     1      -0.277  -1.589   2.564  0.00  0.00    +0.296 C 
ATOM     13  O   UNL     1      -0.236  -0.423   2.219  0.00  0.00    -0.265 OA
ATOM     14  N   UNL     1      -0.134  -1.913   3.865  0.00  0.00    -0.223 N 
ATOM     15  H   UNL     1      -0.166  -2.842   4.140  0.00  0.00    +0.174 HD
BRANCH  14  16
ATOM     16  N   UNL     1       0.062  -0.906   4.820  0.00  0.00    -0.219 N 
BRANCH  16  17
ATOM     17  C   UNL     1      -1.010  -0.103   5.218  0.00  0.00    +0.053 A 
ATOM     18  C   UNL     1      -0.785   1.014   6.013  0.00  0.00    +0.025 A 
ATOM     19  C   UNL     1      -1.847   1.805   6.405  0.00  0.00    +0.002 A 
ATOM     20  C   UNL     1      -3.132   1.488   6.007  0.00  0.00    +0.000 A 
ATOM     21  C   UNL     1      -3.359   0.377   5.215  0.00  0.00    +0.002 A 
ATOM     22  C   UNL     1      -2.302  -0.417   4.815  0.00  0.00    +0.025 A 
ENDBRANCH  16  17
BRANCH  16  23
ATOM     23  C   UNL     1       1.329  -0.705   5.373  0.00  0.00    +0.053 A 
ATOM     24  C   UNL     1       2.424  -0.488   4.546  0.00  0.00    +0.025 A 
ATOM     25  C   UNL     1       3.675  -0.289   5.096  0.00  0.00    +0.002 A 
ATOM     26  C   UNL     1       3.838  -0.306   6.469  0.00  0.00    +0.000 A 
ATOM     27  C   UNL     1       2.751  -0.522   7.296  0.00  0.00    +0.002 A 
ATOM     28  C   UNL     1       1.496  -0.716   6.752  0.00  0.00    +0.025 A 
ENDBRANCH  16  23
ENDBRANCH  14  16
ENDBRANCH   6  12
BRANCH  11  29
ATOM     29  N   UNL     1      -1.446  -3.736  -4.009  0.00  0.00    -0.238 N 
ATOM     30  H   UNL     1      -1.369  -4.681  -4.214  0.00  0.00    +0.174 HD
BRANCH  29  31
ATOM     31  C   UNL     1      -1.734  -2.824  -5.024  0.00  0.00    +0.048 A 
ATOM     32  C   UNL     1      -1.839  -1.468  -4.734  0.00  0.00    +0.027 A 
ATOM     33  C   UNL     1      -2.124  -0.569  -5.741  0.00  0.00    +0.034 A 
ATOM     34  C   UNL     1      -2.306  -1.014  -7.038  0.00  0.00    +0.126 A 
ATOM     35  C   UNL     1      -2.203  -2.362  -7.331  0.00  0.00    +0.034 A 
ATOM     36  C   UNL     1      -1.912  -3.267  -6.330  0.00  0.00    +0.027 A 
BRANCH  34  37
ATOM     37  N   UNL     1      -2.612  -0.046  -8.115  0.00  0.00    +0.056 N 
ATOM     38  O   UNL     1      -2.703   1.132  -7.861  0.00  0.00    -0.126 OA
ATOM     39  O   UNL     1      -2.772  -0.434  -9.249  0.00  0.00    -0.126 OA
ENDBRANCH  34  37
ENDBRANCH  29  31
ENDBRANCH  11  29
TORSDOF 7
