REMARK  Name = ZINC16688341
REMARK  9 active torsions:
REMARK  status: ('A' for Active; 'I' for Inactive)
REMARK    1  A    between atoms: C_1  and  C_2
REMARK    2  A    between atoms: C_2  and  O_3
REMARK    3  A    between atoms: O_3  and  C_4
REMARK    4  A    between atoms: C_6  and  C_24
REMARK    5  A    between atoms: C_9  and  O_10
REMARK    6  A    between atoms: O_10  and  C_11
REMARK    7  A    between atoms: C_11  and  C_12
REMARK    8  A    between atoms: C_24  and  N_25
REMARK    9  A    between atoms: N_25  and  N_26
REMARK                            x       y       z     vdW  Elec       q    Type
REMARK                         _______ _______ _______ _____ _____    ______ ____
ROOT
ATOM      1  C   UNL     1       0.002  -0.004   0.002  0.00  0.00    +0.163 A 
ATOM      2  C   UNL     1       1.211  -0.682  -0.013  0.00  0.00    +0.054 A 
ATOM      3  C   UNL     1       1.228  -2.064  -0.021  0.00  0.00    -0.024 A 
ATOM      4  C   UNL     1       0.042  -2.774  -0.013  0.00  0.00    +0.024 A 
ATOM      5  C   UNL     1      -1.168  -2.104   0.002  0.00  0.00    +0.063 A 
ATOM      6  C   UNL     1      -1.192  -0.717   0.015  0.00  0.00    +0.176 A 
ATOM      7 BR   UNL     1      -2.789  -3.078   0.012  0.00  0.00    -0.046 Br
ENDROOT
BRANCH   1   8
ATOM      8  O   UNL     1      -0.016   1.356   0.009  0.00  0.00    -0.489 OA
BRANCH   8  10
ATOM      9  C   UNL     1       1.027   3.536   0.011  0.00  0.00    +0.048 C 
ATOM     10  C   UNL     1       1.248   2.022   0.001  0.00  0.00    +0.226 C 
ENDBRANCH   8  10
ENDBRANCH   1   8
BRANCH   6  11
ATOM     11  O   UNL     1      -2.381  -0.057   0.036  0.00  0.00    -0.478 OA
BRANCH  11  12
ATOM     12  C   UNL     1      -2.966   0.266  -1.227  0.00  0.00    +0.325 C 
BRANCH  12  13
ATOM     13  C   UNL     1      -4.269   0.991  -1.007  0.00  0.00    +0.257 C 
ATOM     14  O   UNL     1      -4.658   1.210   0.120  0.00  0.00    -0.272 OA
ATOM     15  N   UNL     1      -5.001   1.395  -2.064  0.00  0.00    -0.268 N 
ATOM     16  C   UNL     1      -6.283   2.101  -1.976  0.00  0.00    +0.118 C 
ATOM     17  C   UNL     1      -6.711   2.341  -3.433  0.00  0.00    +0.056 C 
ATOM     18  C   UNL     1      -5.606   1.724  -4.261  0.00  0.00    -0.024 A 
ATOM     19  C   UNL     1      -4.653   1.198  -3.404  0.00  0.00    +0.040 A 
ATOM     20  C   UNL     1      -3.529   0.571  -3.943  0.00  0.00    +0.024 A 
ATOM     21  C   UNL     1      -3.371   0.480  -5.309  0.00  0.00    +0.002 A 
ATOM     22  C   UNL     1      -4.327   1.009  -6.157  0.00  0.00    +0.000 A 
ATOM     23  C   UNL     1      -5.445   1.631  -5.630  0.00  0.00    +0.005 A 
ENDBRANCH  12  13
ENDBRANCH  11  12
ENDBRANCH   6  11
BRANCH   3  24
ATOM     24  C   UNL     1       2.544  -2.799  -0.038  0.00  0.00    +0.157 C 
BRANCH  24  25
ATOM     25  N   UNL     1       2.985  -3.046   1.342  0.00  0.00    -0.260 N 
ATOM     26  H   UNL     1       3.043  -2.183   1.862  0.00  0.00    +0.168 HD
BRANCH  25  27
ATOM     27  N   UNL     1       4.177  -3.712   1.363  0.00  0.00    -0.129 N 
ATOM     28  C   UNL     1       4.880  -4.104   2.450  0.00  0.00    +0.251 A 
ATOM     29  N   UNL     1       5.962  -4.710   2.014  0.00  0.00    -0.091 NA
ATOM     30  N   UNL     1       5.984  -4.722   0.730  0.00  0.00    -0.020 NA
ATOM     31  N   UNL     1       4.934  -4.142   0.259  0.00  0.00    -0.024 NA
ATOM     32  N   UNL     1       4.525  -3.906   3.773  0.00  0.00    -0.325 N 
ATOM     33  H   UNL     1       3.700  -3.445   3.990  0.00  0.00    +0.145 HD
ATOM     34  H   UNL     1       5.102  -4.229   4.483  0.00  0.00    +0.145 HD
ENDBRANCH  25  27
ENDBRANCH  24  25
ENDBRANCH   3  24
TORSDOF 8
