REMARK  Name = ZINC13346584
REMARK  7 active torsions:
REMARK  status: ('A' for Active; 'I' for Inactive)
REMARK    1  A    between atoms: C_1  and  C_2
REMARK    2  A    between atoms: C_2  and  C_3
REMARK    3  A    between atoms: C_2  and  C_4
REMARK    4  A    between atoms: C_8  and  C_28
REMARK    5  A    between atoms: C_8  and  C_29
REMARK    6  A    between atoms: C_13  and  S_15
REMARK    7  A    between atoms: S_15  and  N_18
REMARK                            x       y       z     vdW  Elec       q    Type
REMARK                         _______ _______ _______ _____ _____    ______ ____
ROOT
ATOM      1  C   UNL     1       2.840   4.850  -0.108  0.00  0.00    +0.222 C 
ATOM      2  O   UNL     1       1.880   5.333   0.454  0.00  0.00    -0.275 OA
ATOM      3  N   UNL     1       2.681   3.788  -0.922  0.00  0.00    -0.270 N 
ATOM      4  C   UNL     1       3.741   3.185  -1.734  0.00  0.00    +0.124 C 
ATOM      5  C   UNL     1       3.068   2.019  -2.475  0.00  0.00    +0.008 C 
ATOM      6  C   UNL     1       1.629   2.053  -2.010  0.00  0.00    -0.017 A 
ATOM      7  C   UNL     1       1.479   3.100  -1.115  0.00  0.00    +0.040 A 
ATOM      8  C   UNL     1       0.226   3.331  -0.547  0.00  0.00    +0.026 A 
ATOM      9  C   UNL     1      -0.846   2.527  -0.875  0.00  0.00    +0.030 A 
ATOM     10  C   UNL     1      -0.686   1.488  -1.772  0.00  0.00    +0.106 A 
ATOM     11  C   UNL     1       0.553   1.249  -2.335  0.00  0.00    +0.034 A 
ATOM     12  C   UNL     1       3.723   0.692  -2.089  0.00  0.00    +0.017 C 
ATOM     13  C   UNL     1       3.145   2.233  -3.988  0.00  0.00    +0.017 C 
ENDROOT
BRANCH   1  15
ATOM     14  C   UNL     1       4.094   6.951   0.300  0.00  0.00    +0.017 C 
ATOM     15  C   UNL     1       4.212   5.438   0.104  0.00  0.00    +0.069 C 
ATOM     16  C   UNL     1       4.848   4.812   1.347  0.00  0.00    +0.017 C 
ENDBRANCH   1  15
BRANCH  10  17
ATOM     17  S   UNL     1      -2.059   0.466  -2.193  0.00  0.00    +0.061 S 
ATOM     18  O   UNL     1      -3.228   1.236  -1.947  0.00  0.00    -0.153 OA
ATOM     19  O   UNL     1      -1.771  -0.097  -3.465  0.00  0.00    -0.153 OA
BRANCH  17  20
ATOM     20  N   UNL     1      -2.084  -0.790  -1.113  0.00  0.00    -0.172 NA
ATOM     21  C   UNL     1      -1.365  -2.046  -1.383  0.00  0.00    +0.114 C 
ATOM     22  C   UNL     1      -0.267  -2.189  -0.324  0.00  0.00    +0.052 C 
ATOM     23  C   UNL     1      -0.816  -1.931   1.054  0.00  0.00    -0.042 A 
ATOM     24  C   UNL     1      -0.093  -2.415   2.138  0.00  0.00    +0.004 A 
ATOM     25  C   UNL     1      -0.533  -2.203   3.427  0.00  0.00    +0.000 A 
ATOM     26  C   UNL     1      -1.704  -1.502   3.647  0.00  0.00    +0.000 A 
ATOM     27  C   UNL     1      -2.427  -1.023   2.574  0.00  0.00    +0.005 A 
ATOM     28  C   UNL     1      -1.986  -1.239   1.275  0.00  0.00    -0.028 A 
ATOM     29  C   UNL     1      -2.828  -0.698   0.147  0.00  0.00    +0.144 C 
ENDBRANCH  17  20
ENDBRANCH  10  17
TORSDOF 3
