REMARK  Name = ZINC20615933
REMARK  8 active torsions:
REMARK  status: ('A' for Active; 'I' for Inactive)
REMARK    1  A    between atoms: C_1  and  C_2
REMARK    2  A    between atoms: C_2  and  O_3
REMARK    3  A    between atoms: O_3  and  C_4
REMARK    4  A    between atoms: C_7  and  C_27
REMARK    5  A    between atoms: C_9  and  C_10
REMARK    6  A    between atoms: C_10  and  N_11
REMARK    7  A    between atoms: N_28  and  N_29
REMARK    8  A    between atoms: C_30  and  C_32
REMARK                            x       y       z     vdW  Elec       q    Type
REMARK                         _______ _______ _______ _____ _____    ______ ____
ROOT
ATOM      1  C   UNL     1       3.635   3.248  -0.015  0.00  0.00    +0.122 A 
ATOM      2  C   UNL     1       2.424   3.929   0.000  0.00  0.00    +0.046 A 
ATOM      3  C   UNL     1       1.237   3.228   0.008  0.00  0.00    +0.013 A 
ATOM      4  C   UNL     1       1.254   1.830  -0.000  0.00  0.00    -0.005 A 
ATOM      5  C   UNL     1       2.474   1.150  -0.010  0.00  0.00    +0.014 A 
ATOM      6  C   UNL     1       3.656   1.860  -0.023  0.00  0.00    -0.022 A 
ENDROOT
BRANCH   4   7
ATOM      7  C   UNL     1      -0.013   1.076   0.008  0.00  0.00    +0.138 C 
ATOM      8  N   UNL     1      -1.146   1.710   0.017  0.00  0.00    -0.187 NA
BRANCH   8   9
ATOM      9  N   UNL     1      -2.349   0.993   0.019  0.00  0.00    -0.203 N 
ATOM     10  C   UNL     1      -3.526   1.651   0.028  0.00  0.00    +0.263 C 
ATOM     11  O   UNL     1      -3.542   2.866   0.034  0.00  0.00    -0.268 OA
ATOM     12  H   UNL     1      -2.334  -0.107   0.013  0.00  0.00    +0.178 HD
BRANCH  10  13
ATOM     13  C   UNL     1      -4.798   0.893   0.030  0.00  0.00    +0.041 A 
ATOM     14  C   UNL     1      -4.801  -0.506   0.016  0.00  0.00    +0.033 A 
ATOM     15  C   UNL     1      -6.011  -1.172   0.024  0.00  0.00    +0.111 A 
ATOM     16  N   UNL     1      -7.150  -0.508   0.033  0.00  0.00    -0.263 NA
ATOM     17  C   UNL     1      -7.191   0.809   0.041  0.00  0.00    +0.111 A 
ATOM     18  C   UNL     1      -6.029   1.556   0.039  0.00  0.00    +0.033 A 
ENDBRANCH  10  13
ENDBRANCH   8   9
ENDBRANCH   4   7
BRANCH   1  19
ATOM     19  O   UNL     1       4.802   3.943  -0.022  0.00  0.00    -0.492 OA
BRANCH  19  21
ATOM     20  C   UNL     1       6.113   5.973  -0.023  0.00  0.00    +0.048 C 
ATOM     21  C   UNL     1       4.708   5.369  -0.013  0.00  0.00    +0.225 C 
ENDBRANCH  19  21
ENDBRANCH   1  19
BRANCH   6  22
ATOM     22  C   UNL     1       4.973   1.127  -0.039  0.00  0.00    -0.039 C 
BRANCH  22  23
ATOM     23  N   UNL     1       5.530   1.093   1.320  0.00  0.00    +0.383 N 
ATOM     24  C   UNL     1       5.710   2.448   1.849  0.00  0.00    -0.073 C 
ATOM     25  C   UNL     1       6.340   2.417   3.233  0.00  0.00    -0.007 C 
ATOM     26  C   UNL     1       5.521   1.543   4.186  0.00  0.00    +0.011 C 
ATOM     27  C   UNL     1       5.420   0.147   3.560  0.00  0.00    +0.020 C 
ATOM     28  C   UNL     1       4.690   0.281   2.213  0.00  0.00    -0.069 C 
ATOM     29  C   UNL     1       6.812  -0.370   3.272  0.00  0.00    +0.023 A 
ATOM     30  C   UNL     1       6.986  -1.718   3.254  0.00  0.00    +0.022 A 
ATOM     31  C   UNL     1       8.231  -2.270   2.933  0.00  0.00    +0.007 A 
ATOM     32  C   UNL     1       9.261  -1.433   2.619  0.00  0.00    +0.070 A 
ATOM     33  C   UNL     1       9.049  -0.048   2.650  0.00  0.00    +0.251 A 
ATOM     34  O   UNL     1       9.950   0.708   2.325  0.00  0.00    -0.268 OA
ATOM     35  N   UNL     1       7.853   0.462   3.037  0.00  0.00    -0.312 N 
ATOM     36  C   UNL     1       7.773   1.915   3.193  0.00  0.00    +0.126 C 
ATOM     37  H   UNL     1       6.523   0.621   1.267  0.00  0.00    -0.081 HD
ENDBRANCH  22  23
ENDBRANCH   6  22
TORSDOF 7
