REMARK  Name = ZINC36547857
REMARK  14 active torsions:
REMARK  status: ('A' for Active; 'I' for Inactive)
REMARK    1  A    between atoms: C_1  and  C_2
REMARK    2  A    between atoms: C_2  and  C_3
REMARK    3  A    between atoms: C_2  and  C_4
REMARK    4  A    between atoms: C_2  and  C_5
REMARK    5  A    between atoms: C_5  and  C_6
REMARK    6  A    between atoms: C_6  and  C_7
REMARK    7  A    between atoms: C_6  and  C_8
REMARK    8  A    between atoms: C_6  and  N_9
REMARK    9  A    between atoms: C_10  and  C_12
REMARK   10  A    between atoms: C_12  and  C_14
REMARK   11  A    between atoms: C_12  and  N_21
REMARK   12  A    between atoms: N_21  and  C_22
REMARK   13  A    between atoms: C_29  and  C_31
REMARK   14  A    between atoms: C_31  and  O_32
REMARK                            x       y       z     vdW  Elec       q    Type
REMARK                         _______ _______ _______ _____ _____    ______ ____
ROOT
ATOM      1  C   UNL     1       5.426  -0.596  -4.451  0.00  0.00    +0.197 C 
ENDROOT
BRANCH   1   2
ATOM      2  C   UNL     1       4.933   0.263  -5.587  0.00  0.00    -0.018 A 
ATOM      3  C   UNL     1       5.440   1.537  -5.760  0.00  0.00    +0.007 A 
ATOM      4  C   UNL     1       4.988   2.325  -6.802  0.00  0.00    +0.020 A 
ATOM      5  C   UNL     1       4.028   1.839  -7.671  0.00  0.00    +0.041 A 
ATOM      6  C   UNL     1       3.521   0.563  -7.497  0.00  0.00    +0.020 A 
ATOM      7  C   UNL     1       3.978  -0.226  -6.459  0.00  0.00    +0.007 A 
ATOM      8 CL   UNL     1       3.459   2.828  -8.979  0.00  0.00    -0.084 Cl
ENDBRANCH   1   2
BRANCH   1  10
ATOM      9  N   UNL     1       3.836   0.212  -2.737  0.00  0.00    -0.308 N 
ATOM     10  C   UNL     1       5.115   0.079  -3.140  0.00  0.00    +0.239 C 
ATOM     11  O   UNL     1       6.016   0.501  -2.447  0.00  0.00    -0.273 OA
ATOM     12  H   UNL     1       3.115  -0.126  -3.292  0.00  0.00    +0.149 HD
BRANCH   9  13
ATOM     13  C   UNL     1       3.534   0.868  -1.462  0.00  0.00    +0.030 C 
ATOM     14  C   UNL     1       4.193   2.249  -1.430  0.00  0.00    +0.031 C 
ATOM     15  C   UNL     1       4.074   0.018  -0.311  0.00  0.00    +0.031 C 
BRANCH  13  16
ATOM     16  C   UNL     1       2.019   1.022  -1.315  0.00  0.00    +0.031 C 
BRANCH  16  18
ATOM     17  C   UNL     1       1.247   0.300  -3.578  0.00  0.00    +0.010 C 
ATOM     18  C   UNL     1       1.423   1.497  -2.642  0.00  0.00    -0.036 C 
ATOM     19  C   UNL     1       2.363   2.516  -3.288  0.00  0.00    +0.010 C 
ATOM     20  C   UNL     1       0.062   2.148  -2.386  0.00  0.00    +0.010 C 
ENDBRANCH  16  18
ENDBRANCH  13  16
ENDBRANCH   9  13
ENDBRANCH   1  10
BRANCH   1  21
ATOM     21  N   UNL     1       6.874  -0.783  -4.573  0.00  0.00    -0.252 N 
ATOM     22  C   UNL     1       7.507  -1.675  -3.787  0.00  0.00    +0.246 C 
ATOM     23  O   UNL     1       8.688  -1.897  -3.949  0.00  0.00    -0.273 OA
BRANCH  21  24
ATOM     24  C   UNL     1       7.600  -0.034  -5.507  0.00  0.00    +0.056 A 
ATOM     25  C   UNL     1       8.281   1.107  -5.105  0.00  0.00    +0.025 A 
ATOM     26  C   UNL     1       8.997   1.844  -6.028  0.00  0.00    +0.002 A 
ATOM     27  C   UNL     1       9.036   1.447  -7.352  0.00  0.00    +0.002 A 
ATOM     28  C   UNL     1       8.358   0.312  -7.757  0.00  0.00    +0.022 A 
ATOM     29  C   UNL     1       7.645  -0.434  -6.837  0.00  0.00    +0.062 A 
ATOM     30 CL   UNL     1       6.801  -1.864  -7.343  0.00  0.00    -0.082 Cl
ENDBRANCH  21  24
BRANCH  22  31
ATOM     31  C   UNL     1       6.747  -2.399  -2.705  0.00  0.00    +0.252 C 
BRANCH  31  32
ATOM     32  O   UNL     1       7.650  -3.202  -1.944  0.00  0.00    -0.386 OA
ATOM     33  H   UNL     1       7.229  -3.698  -1.228  0.00  0.00    +0.210 HD
ENDBRANCH  31  32
ENDBRANCH  22  31
ENDBRANCH   1  21
TORSDOF 9
