REMARK  Name = ZINC05271747
REMARK  5 active torsions:
REMARK  status: ('A' for Active; 'I' for Inactive)
REMARK    1  A    between atoms: C_1  and  C_2
REMARK    2  A    between atoms: C_5  and  S_8
REMARK    3  A    between atoms: S_8  and  C_9
REMARK    4  A    between atoms: C_9  and  C_10
REMARK    5  A    between atoms: N_12  and  N_13
REMARK                            x       y       z     vdW  Elec       q    Type
REMARK                         _______ _______ _______ _____ _____    ______ ____
ROOT
ATOM      1  N   UNL     1       4.381   7.776   0.002  0.00  0.00    -0.243 N 
ATOM      2  C   UNL     1       5.630   8.363  -0.007  0.00  0.00    +0.176 A 
ATOM      3  N   UNL     1       5.941   9.639  -0.008  0.00  0.00    -0.223 NA
ATOM      4  C   UNL     1       7.221  10.073  -0.013  0.00  0.00    +0.084 A 
ATOM      5  C   UNL     1       8.209   9.066  -0.029  0.00  0.00    +0.041 A 
ATOM      6  S   UNL     1       7.236   7.579  -0.027  0.00  0.00    -0.051 S 
ATOM      7  C   UNL     1       9.550   9.351  -0.043  0.00  0.00    +0.017 A 
ATOM      8  C   UNL     1       9.961  10.668  -0.038  0.00  0.00    +0.005 A 
ATOM      9  C   UNL     1       9.018  11.696  -0.018  0.00  0.00    -0.042 A 
ATOM     10  C   UNL     1       7.679  11.417  -0.008  0.00  0.00    -0.018 A 
ATOM     11  C   UNL     1       6.620  12.489   0.002  0.00  0.00    +0.037 C 
ATOM     12  C   UNL     1       7.215  13.829   0.431  0.00  0.00    +0.005 C 
ATOM     13  C   UNL     1       8.462  14.096  -0.421  0.00  0.00    +0.005 C 
ATOM     14  C   UNL     1       9.549  13.108  -0.005  0.00  0.00    +0.035 C 
ATOM     15  H   UNL     1       3.585   8.330   0.013  0.00  0.00    +0.172 HD
ENDROOT
BRANCH   1  18
ATOM     16  C   UNL     1       3.042   5.807   0.004  0.00  0.00    +0.239 C 
ATOM     17  O   UNL     1       2.047   6.500   0.017  0.00  0.00    -0.273 OA
ATOM     18  N   UNL     1       4.262   6.380  -0.004  0.00  0.00    -0.234 N 
ATOM     19  H   UNL     1       5.058   5.826  -0.015  0.00  0.00    +0.173 HD
BRANCH  16  20
ATOM     20  C   UNL     1       2.915   4.306  -0.003  0.00  0.00    +0.171 C 
BRANCH  20  21
ATOM     21  S   UNL     1       1.159   3.848   0.012  0.00  0.00    -0.116 S 
BRANCH  21  26
ATOM     22  C   UNL     1       1.224  -2.188  -0.022  0.00  0.00    +0.044 C 
ATOM     23  C   UNL     1       1.208  -0.681  -0.014  0.00  0.00    -0.050 A 
ATOM     24  C   UNL     1       0.002  -0.004   0.002  0.00  0.00    +0.004 A 
ATOM     25  C   UNL     1      -0.017   1.377   0.010  0.00  0.00    +0.015 A 
ATOM     26  C   UNL     1       1.178   2.086   0.002  0.00  0.00    +0.008 A 
ATOM     27  C   UNL     1       2.388   1.403  -0.012  0.00  0.00    +0.015 A 
ATOM     28  C   UNL     1       2.399   0.022  -0.021  0.00  0.00    +0.004 A 
ENDBRANCH  21  26
ENDBRANCH  20  21
ENDBRANCH  16  20
ENDBRANCH   1  18
TORSDOF 4
