REMARK  Name = ZINC12162785
REMARK  13 active torsions:
REMARK  status: ('A' for Active; 'I' for Inactive)
REMARK    1  A    between atoms: C_1  and  C_2
REMARK    2  A    between atoms: C_5  and  C_8
REMARK    3  A    between atoms: C_8  and  O_9
REMARK    4  A    between atoms: O_9  and  C_10
REMARK    5  A    between atoms: C_11  and  C_24
REMARK    6  A    between atoms: C_15  and  O_22
REMARK    7  A    between atoms: C_16  and  O_20
REMARK    8  A    between atoms: O_20  and  C_21
REMARK    9  A    between atoms: O_22  and  C_23
REMARK   10  A    between atoms: C_24  and  N_59
REMARK   11  A    between atoms: C_25  and  C_27
REMARK   12  A    between atoms: C_25  and  C_28
REMARK   13  A    between atoms: C_25  and  N_59
REMARK                            x       y       z     vdW  Elec       q    Type
REMARK                         _______ _______ _______ _____ _____    ______ ____
ROOT
ATOM      1  C   UNL     1      -0.017   1.395   0.010  0.00  0.00    +0.217 A 
ATOM      2  C   UNL     1       0.002  -0.004   0.002  0.00  0.00    -0.002 A 
ATOM      3  C   UNL     1       1.193  -0.668  -0.013  0.00  0.00    +0.017 A 
ATOM      4  C   UNL     1       2.380   0.091  -0.020  0.00  0.00    +0.005 A 
ATOM      5  C   UNL     1       3.640  -0.530  -0.036  0.00  0.00    +0.059 A 
ATOM      6  C   UNL     1       4.770   0.235  -0.042  0.00  0.00    +0.162 A 
ATOM      7  C   UNL     1       4.686   1.636  -0.034  0.00  0.00    +0.164 A 
ATOM      8  C   UNL     1       3.475   2.265  -0.019  0.00  0.00    +0.077 A 
ATOM      9  C   UNL     1       2.293   1.505  -0.012  0.00  0.00    +0.079 A 
ATOM     10  N   UNL     1       1.094   2.099   0.003  0.00  0.00    -0.213 NA
ENDROOT
BRANCH   7  11
ATOM     11  O   UNL     1       5.826   2.375  -0.042  0.00  0.00    -0.491 OA
ATOM     12  C   UNL     1       5.677   3.797  -0.033  0.00  0.00    +0.277 C 
ENDBRANCH   7  11
BRANCH   6  13
ATOM     13  O   UNL     1       5.989  -0.366  -0.058  0.00  0.00    -0.491 OA
ATOM     14  C   UNL     1       6.008  -1.795  -0.066  0.00  0.00    +0.277 C 
ENDBRANCH   6  13
BRANCH   1  15
ATOM     15  O   UNL     1      -1.209   2.041   0.019  0.00  0.00    -0.471 OA
BRANCH  15  16
ATOM     16  C   UNL     1      -1.174   3.469   0.026  0.00  0.00    +0.266 C 
BRANCH  16  21
ATOM     17  C   UNL     1      -6.572   5.532   0.063  0.00  0.00    +0.044 C 
ATOM     18  C   UNL     1      -5.164   4.994   0.053  0.00  0.00    -0.050 A 
ATOM     19  C   UNL     1      -4.513   4.740   1.246  0.00  0.00    +0.004 A 
ATOM     20  C   UNL     1      -3.222   4.247   1.238  0.00  0.00    +0.007 A 
ATOM     21  C   UNL     1      -2.582   4.007   0.036  0.00  0.00    -0.010 A 
ATOM     22  C   UNL     1      -3.231   4.265  -1.157  0.00  0.00    +0.007 A 
ATOM     23  C   UNL     1      -4.524   4.754  -1.148  0.00  0.00    +0.004 A 
ENDBRANCH  16  21
ENDBRANCH  15  16
ENDBRANCH   1  15
BRANCH   2  24
ATOM     24  C   UNL     1      -1.292  -0.776   0.010  0.00  0.00    -0.040 C 
BRANCH  24  25
ATOM     25  N   UNL     1      -1.844  -0.809  -1.358  0.00  0.00    +0.388 N 
ATOM     26  H   UNL     1      -1.169  -1.264  -1.984  0.00  0.00    -0.084 HD
ATOM     27  H   UNL     1      -2.013   0.152  -1.678  0.00  0.00    -0.084 HD
BRANCH  25  28
ATOM     28  C   UNL     1      -3.113  -1.560  -1.380  0.00  0.00    -0.007 C 
ATOM     29  C   UNL     1      -2.820  -3.054  -1.530  0.00  0.00    -0.006 C 
BRANCH  28  30
ATOM     30  C   UNL     1      -3.944  -1.092  -2.547  0.00  0.00    +0.091 A 
ATOM     31  C   UNL     1      -5.276  -0.902  -2.538  0.00  0.00    +0.043 A 
ATOM     32  C   UNL     1      -5.636  -0.464  -3.833  0.00  0.00    +0.041 A 
ATOM     33  C   UNL     1      -4.503  -0.411  -4.556  0.00  0.00    +0.195 A 
ATOM     34  O   UNL     1      -3.480  -0.787  -3.770  0.00  0.00    -0.469 OA
ENDBRANCH  28  30
ENDBRANCH  25  28
ENDBRANCH  24  25
ENDBRANCH   2  24
TORSDOF 9
