REMARK  Name = ZINC36545425
REMARK  12 active torsions:
REMARK  status: ('A' for Active; 'I' for Inactive)
REMARK    1  A    between atoms: C_1  and  C_2
REMARK    2  A    between atoms: C_2  and  C_3
REMARK    3  A    between atoms: C_3  and  C_4
REMARK    4  A    between atoms: C_3  and  C_6
REMARK    5  A    between atoms: C_4  and  C_5
REMARK    6  A    between atoms: C_6  and  C_8
REMARK    7  A    between atoms: C_6  and  N_17
REMARK    8  A    between atoms: N_10  and  C_11
REMARK    9  A    between atoms: N_17  and  C_18
REMARK   10  A    between atoms: C_25  and  C_27
REMARK   11  A    between atoms: C_31  and  O_34
REMARK   12  A    between atoms: C_32  and  O_33
REMARK                            x       y       z     vdW  Elec       q    Type
REMARK                         _______ _______ _______ _____ _____    ______ ____
ROOT
ATOM      1  N   UNL     1      -2.420  -1.683   0.633  0.00  0.00    -0.254 N 
ATOM      2  C   UNL     1      -3.522  -1.495  -0.120  0.00  0.00    +0.255 C 
ATOM      3  O   UNL     1      -3.601  -0.526  -0.851  0.00  0.00    -0.269 OA
ENDROOT
BRANCH   1   4
ATOM      4  C   UNL     1      -2.279  -2.854   1.386  0.00  0.00    +0.056 A 
ATOM      5  C   UNL     1      -1.828  -4.020   0.782  0.00  0.00    +0.025 A 
ATOM      6  C   UNL     1      -1.689  -5.174   1.528  0.00  0.00    +0.002 A 
ATOM      7  C   UNL     1      -2.000  -5.170   2.876  0.00  0.00    +0.002 A 
ATOM      8  C   UNL     1      -2.449  -4.011   3.481  0.00  0.00    +0.022 A 
ATOM      9  C   UNL     1      -2.585  -2.851   2.742  0.00  0.00    +0.062 A 
ATOM     10 CL   UNL     1      -3.143  -1.394   3.504  0.00  0.00    -0.082 Cl
ENDBRANCH   1   4
BRANCH   2  11
ATOM     11  C   UNL     1      -4.632  -2.464  -0.058  0.00  0.00    +0.082 A 
ATOM     12  C   UNL     1      -4.396  -3.820  -0.304  0.00  0.00    +0.017 A 
ATOM     13  C   UNL     1      -5.435  -4.722  -0.246  0.00  0.00    +0.005 A 
ATOM     14  C   UNL     1      -6.718  -4.294   0.057  0.00  0.00    +0.049 A 
ATOM     15  C   UNL     1      -6.968  -2.955   0.304  0.00  0.00    +0.159 A 
ATOM     16  C   UNL     1      -5.927  -2.032   0.254  0.00  0.00    +0.171 A 
BRANCH  16  17
ATOM     17  O   UNL     1      -6.167  -0.719   0.501  0.00  0.00    -0.503 OA
ATOM     18  H   UNL     1      -6.399  -0.207  -0.285  0.00  0.00    +0.292 HD
ENDBRANCH  16  17
BRANCH  15  19
ATOM     19  O   UNL     1      -8.229  -2.542   0.600  0.00  0.00    -0.503 OA
ATOM     20  H   UNL     1      -8.434  -2.551   1.545  0.00  0.00    +0.292 HD
ENDBRANCH  15  19
ENDBRANCH   2  11
BRANCH   1  21
ATOM     21  C   UNL     1      -1.371  -0.661   0.664  0.00  0.00    +0.170 C 
BRANCH  21  22
ATOM     22  C   UNL     1      -1.998   0.699   0.824  0.00  0.00    +0.234 C 
ATOM     23  O   UNL     1      -3.194   0.799   0.997  0.00  0.00    -0.274 OA
ATOM     24  N   UNL     1      -1.230   1.806   0.775  0.00  0.00    -0.311 N 
ATOM     25  H   UNL     1      -0.287   1.732   0.559  0.00  0.00    +0.149 HD
BRANCH  24  26
ATOM     26  C   UNL     1      -1.819   3.119   1.047  0.00  0.00    +0.073 C 
ATOM     27  C   UNL     1      -2.443   3.674  -0.235  0.00  0.00    +0.022 C 
ATOM     28  C   UNL     1      -3.058   5.045   0.049  0.00  0.00    +0.002 C 
ATOM     29  C   UNL     1      -1.970   6.001   0.540  0.00  0.00    +0.000 C 
ATOM     30  C   UNL     1      -1.345   5.446   1.823  0.00  0.00    +0.002 C 
ATOM     31  C   UNL     1      -0.730   4.075   1.539  0.00  0.00    +0.022 C 
ENDBRANCH  24  26
ENDBRANCH  21  22
BRANCH  21  32
ATOM     32  C   UNL     1      -0.577  -0.706  -0.644  0.00  0.00    +0.018 C 
BRANCH  32  34
ATOM     33  C   UNL     1       1.195  -2.115   0.413  0.00  0.00    +0.004 C 
ATOM     34  C   UNL     1       0.185  -2.030  -0.733  0.00  0.00    +0.002 C 
ENDBRANCH  32  34
BRANCH  32  35
ATOM     35  C   UNL     1      -1.539  -0.591  -1.828  0.00  0.00    +0.002 C 
ATOM     36  C   UNL     1      -2.015   0.857  -1.959  0.00  0.00    +0.004 C 
ENDBRANCH  32  35
ENDBRANCH  21  32
ENDBRANCH   1  21
TORSDOF 10
