REMARK  Name = ZINC04305352
REMARK  7 active torsions:
REMARK  status: ('A' for Active; 'I' for Inactive)
REMARK    1  A    between atoms: C_1  and  C_2
REMARK    2  A    between atoms: C_2  and  C_3
REMARK    3  A    between atoms: C_3  and  C_22
REMARK    4  A    between atoms: N_6  and  C_10
REMARK    5  A    between atoms: C_10  and  C_11
REMARK    6  A    between atoms: N_13  and  C_14
REMARK    7  A    between atoms: C_19  and  C_20
REMARK                            x       y       z     vdW  Elec       q    Type
REMARK                         _______ _______ _______ _____ _____    ______ ____
ROOT
ATOM      1  C   UNL     1      -1.322   2.127   0.028  0.00  0.00    +0.138 C 
ATOM      2  C   UNL     1      -1.792   2.368   1.449  0.00  0.00    +0.251 C 
ATOM      3  O   UNL     1      -1.232   3.018   2.306  0.00  0.00    -0.272 OA
ATOM      4  N   UNL     1      -2.962   1.709   1.562  0.00  0.00    -0.215 N 
ATOM      5  C   UNL     1      -3.293   1.093   0.421  0.00  0.00    +0.310 C 
ATOM      6  O   UNL     1      -4.306   0.435   0.278  0.00  0.00    -0.252 OA
ATOM      7  N   UNL     1      -2.381   1.282  -0.549  0.00  0.00    -0.281 N 
ATOM      8  H   UNL     1      -2.414   0.931  -1.453  0.00  0.00    +0.152 HD
ENDROOT
BRANCH   1   9
ATOM      9  C   UNL     1      -0.002   1.401   0.022  0.00  0.00    -0.015 A 
ATOM     10  C   UNL     1       1.181   2.116   0.013  0.00  0.00    +0.006 A 
ATOM     11  C   UNL     1       2.392   1.450   0.001  0.00  0.00    +0.000 A 
ATOM     12  C   UNL     1       2.420   0.068  -0.001  0.00  0.00    +0.000 A 
ATOM     13  C   UNL     1       1.238  -0.648   0.009  0.00  0.00    +0.000 A 
ATOM     14  C   UNL     1       0.027   0.019   0.021  0.00  0.00    +0.006 A 
ENDBRANCH   1   9
BRANCH   1  16
ATOM     15  C   UNL     1      -2.561   4.167  -0.712  0.00  0.00    +0.007 C 
ATOM     16  C   UNL     1      -1.210   3.450  -0.733  0.00  0.00    +0.037 C 
ENDBRANCH   1  16
BRANCH   4  17
ATOM     17  C   UNL     1      -3.772   1.672   2.782  0.00  0.00    +0.214 C 
BRANCH  17  18
ATOM     18  C   UNL     1      -4.745   2.823   2.775  0.00  0.00    +0.235 C 
ATOM     19  O   UNL     1      -4.761   3.598   1.842  0.00  0.00    -0.274 OA
ATOM     20  N   UNL     1      -5.598   2.991   3.805  0.00  0.00    -0.284 N 
ATOM     21  H   UNL     1      -5.641   2.328   4.512  0.00  0.00    +0.155 HD
BRANCH  20  22
ATOM     22  C   UNL     1      -6.421   4.122   3.854  0.00  0.00    +0.036 A 
ATOM     23  C   UNL     1      -6.046   5.285   3.194  0.00  0.00    +0.025 A 
ATOM     24  C   UNL     1      -6.862   6.398   3.241  0.00  0.00    +0.022 A 
ATOM     25  C   UNL     1      -8.048   6.358   3.953  0.00  0.00    +0.041 A 
ATOM     26  C   UNL     1      -8.421   5.203   4.617  0.00  0.00    +0.025 A 
ATOM     27  C   UNL     1      -7.611   4.085   4.569  0.00  0.00    -0.028 A 
ATOM     28  C   UNL     1      -8.018   2.827   5.291  0.00  0.00    +0.046 C 
ATOM     29 CL   UNL     1      -9.068   7.761   4.015  0.00  0.00    -0.084 Cl
ENDBRANCH  20  22
ENDBRANCH  17  18
ENDBRANCH   4  17
TORSDOF 5
