REMARK  Name = ZINC12806550
REMARK  5 active torsions:
REMARK  status: ('A' for Active; 'I' for Inactive)
REMARK    1  A    between atoms: C_4  and  C_7
REMARK    2  A    between atoms: C_7  and  C_8
REMARK    3  A    between atoms: C_13  and  N_14
REMARK    4  A    between atoms: C_15  and  C_17
REMARK    5  A    between atoms: C_18  and  C_19
REMARK                            x       y       z     vdW  Elec       q    Type
REMARK                         _______ _______ _______ _____ _____    ______ ____
ROOT
ATOM      1  N   UNL     1      -2.229  -0.307   1.123  0.00  0.00    -0.282 N 
ATOM      2  C   UNL     1      -3.209  -1.050   1.673  0.00  0.00    +0.241 C 
ATOM      3  O   UNL     1      -3.780  -0.659   2.675  0.00  0.00    -0.270 OA
ATOM      4  H   UNL     1      -1.830  -0.578   0.281  0.00  0.00    +0.155 HD
ENDROOT
BRANCH   1  10
ATOM      5  C   UNL     1      -1.194   1.873   1.029  0.00  0.00    -0.022 A 
ATOM      6  C   UNL     1      -0.766   3.021   1.665  0.00  0.00    +0.006 A 
ATOM      7  C   UNL     1      -0.923   3.157   3.031  0.00  0.00    +0.000 A 
ATOM      8  C   UNL     1      -1.510   2.143   3.767  0.00  0.00    +0.002 A 
ATOM      9  C   UNL     1      -1.941   0.992   3.138  0.00  0.00    +0.023 A 
ATOM     10  C   UNL     1      -1.789   0.855   1.764  0.00  0.00    +0.037 A 
BRANCH   5  11
ATOM     11  C   UNL     1      -1.023   1.726  -0.461  0.00  0.00    +0.072 C 
BRANCH  11  15
ATOM     12  C   UNL     1      -4.614   2.934  -2.434  0.00  0.00    +0.000 A 
ATOM     13  C   UNL     1      -3.620   3.861  -2.178  0.00  0.00    +0.000 A 
ATOM     14  C   UNL     1      -2.459   3.470  -1.539  0.00  0.00    +0.004 A 
ATOM     15  C   UNL     1      -2.290   2.152  -1.157  0.00  0.00    -0.043 A 
ATOM     16  C   UNL     1      -3.281   1.225  -1.418  0.00  0.00    +0.004 A 
ATOM     17  C   UNL     1      -4.445   1.617  -2.052  0.00  0.00    +0.000 A 
ENDBRANCH  11  15
ENDBRANCH   5  11
ENDBRANCH   1  10
BRANCH   2  18
ATOM     18  C   UNL     1      -3.587  -2.326   1.068  0.00  0.00    +0.068 C 
ATOM     19  C   UNL     1      -4.570  -3.072   1.621  0.00  0.00    +0.015 C 
BRANCH  19  20
ATOM     20  C   UNL     1      -4.949  -4.352   1.013  0.00  0.00    +0.001 A 
ATOM     21  C   UNL     1      -4.310  -4.810  -0.136  0.00  0.00    +0.010 A 
ATOM     22  C   UNL     1      -4.666  -6.023  -0.707  0.00  0.00    +0.001 A 
ATOM     23  C   UNL     1      -5.651  -6.802  -0.178  0.00  0.00    +0.010 A 
ATOM     24  C   UNL     1      -6.341  -6.399   0.976  0.00  0.00    +0.001 A 
ATOM     25  C   UNL     1      -6.011  -5.171   1.599  0.00  0.00    +0.078 A 
ATOM     26  N   UNL     1      -6.661  -4.782   2.694  0.00  0.00    -0.254 NA
ATOM     27  C   UNL     1      -7.614  -5.517   3.219  0.00  0.00    +0.111 A 
ATOM     28  C   UNL     1      -7.990  -6.735   2.659  0.00  0.00    +0.020 A 
ATOM     29  C   UNL     1      -7.362  -7.192   1.535  0.00  0.00    +0.011 A 
ENDBRANCH  19  20
ENDBRANCH   2  18
TORSDOF 5
