REMARK  Name = ZINC60291829
REMARK  6 active torsions:
REMARK  status: ('A' for Active; 'I' for Inactive)
REMARK    1  A    between atoms: C_1  and  C_2
REMARK    2  A    between atoms: C_3  and  C_15
REMARK    3  A    between atoms: C_5  and  C_7
REMARK    4  A    between atoms: C_7  and  C_8
REMARK    5  A    between atoms: C_22  and  C_24
REMARK    6  A    between atoms: C_24  and  C_25
REMARK                            x       y       z     vdW  Elec       q    Type
REMARK                         _______ _______ _______ _____ _____    ______ ____
ROOT
ATOM      1  C   UNL     1       2.883   0.846  -0.710  0.00  0.00    +0.067 C 
ATOM      2  C   UNL     1       2.026  -0.353  -0.393  0.00  0.00    +0.058 A 
ATOM      3  C   UNL     1       1.071  -0.813  -1.272  0.00  0.00    +0.097 A 
ATOM      4  S   UNL     1       0.424  -2.201  -0.354  0.00  0.00    -0.067 S 
ATOM      5  C   UNL     1       1.404  -2.055   1.007  0.00  0.00    +0.084 A 
ATOM      6  N   UNL     1       2.156  -1.014   0.730  0.00  0.00    -0.248 NA
ENDROOT
BRANCH   3   7
ATOM      7  C   UNL     1       0.690  -0.304  -2.594  0.00  0.00    +0.255 C 
ATOM      8  O   UNL     1       0.548   0.892  -2.768  0.00  0.00    -0.269 OA
ATOM      9  N   UNL     1       0.498  -1.161  -3.617  0.00  0.00    -0.294 N 
ATOM     10  C   UNL     1       0.579  -2.612  -3.402  0.00  0.00    +0.108 C 
ATOM     11  C   UNL     1       1.578  -3.204  -4.401  0.00  0.00    +0.019 C 
ATOM     12  C   UNL     1       1.173  -2.800  -5.821  0.00  0.00    +0.003 C 
ATOM     13  C   UNL     1       1.208  -1.275  -5.949  0.00  0.00    +0.023 C 
ATOM     14  C   UNL     1       0.199  -0.662  -4.966  0.00  0.00    +0.085 C 
BRANCH  14  15
ATOM     15  C   UNL     1       0.321   0.863  -4.987  0.00  0.00    +0.118 C 
BRANCH  15  16
ATOM     16  C   UNL     1      -0.894   1.474  -4.338  0.00  0.00    +0.212 C 
ATOM     17  O   UNL     1      -1.772   0.759  -3.901  0.00  0.00    -0.276 OA
ATOM     18  N   UNL     1      -1.006   2.813  -4.243  0.00  0.00    -0.329 N 
ATOM     19  H   UNL     1      -0.305   3.385  -4.593  0.00  0.00    +0.145 HD
ATOM     20  H   UNL     1      -1.789   3.206  -3.825  0.00  0.00    +0.145 HD
ENDBRANCH  15  16
ENDBRANCH  14  15
ENDBRANCH   3   7
BRANCH   5  21
ATOM     21  C   UNL     1       1.420  -2.917   2.243  0.00  0.00    +0.098 C 
BRANCH  21  22
ATOM     22  C   UNL     1       0.461  -2.354   3.260  0.00  0.00    -0.041 A 
ATOM     23  C   UNL     1       0.898  -1.419   4.179  0.00  0.00    +0.007 A 
ATOM     24  C   UNL     1       0.019  -0.902   5.112  0.00  0.00    +0.038 A 
ATOM     25  C   UNL     1      -1.301  -1.321   5.125  0.00  0.00    +0.123 A 
ATOM     26  C   UNL     1      -1.738  -2.257   4.203  0.00  0.00    +0.038 A 
ATOM     27  C   UNL     1      -0.858  -2.769   3.268  0.00  0.00    +0.007 A 
ATOM     28  F   UNL     1      -2.162  -0.817   6.036  0.00  0.00    -0.205 F 
ENDBRANCH  21  22
ENDBRANCH   5  21
TORSDOF 5
