REMARK  Name = ZINC40733484
REMARK  4 active torsions:
REMARK  status: ('A' for Active; 'I' for Inactive)
REMARK    1  A    between atoms: C_1  and  C_2
REMARK    2  A    between atoms: C_2  and  C_3
REMARK    3  A    between atoms: C_11  and  N_24
REMARK    4  A    between atoms: C_12  and  N_16
REMARK                            x       y       z     vdW  Elec       q    Type
REMARK                         _______ _______ _______ _____ _____    ______ ____
ROOT
ATOM      1  C   UNL     1      -2.900   0.367  -0.092  0.00  0.00    +0.075 C 
ATOM      2  C   UNL     1      -2.464  -0.041   1.319  0.00  0.00    +0.022 C 
ATOM      3  C   UNL     1      -2.253  -1.556   1.365  0.00  0.00    +0.003 C 
ATOM      4  C   UNL     1      -1.146  -1.949   0.385  0.00  0.00    +0.019 C 
ATOM      5  C   UNL     1      -1.566  -1.563  -1.036  0.00  0.00    +0.107 C 
ATOM      6  N   UNL     1      -1.913  -0.135  -1.058  0.00  0.00    -0.311 N 
ATOM      7  C   UNL     1      -1.317   0.725  -1.973  0.00  0.00    +0.147 A 
ATOM      8  C   UNL     1      -1.945   1.016  -3.186  0.00  0.00    +0.104 A 
ATOM      9  C   UNL     1      -1.302   1.886  -4.068  0.00  0.00    +0.127 A 
ATOM     10  N   UNL     1      -0.125   2.402  -3.722  0.00  0.00    -0.333 N 
ATOM     11  C   UNL     1       0.433   2.101  -2.568  0.00  0.00    +0.200 A 
ATOM     12  N   UNL     1      -0.142   1.288  -1.704  0.00  0.00    -0.221 NA
ATOM     13  H   UNL     1       0.329   3.007  -4.330  0.00  0.00    +0.168 HD
ENDROOT
BRANCH   9  14
ATOM     14  N   UNL     1      -1.883   2.209  -5.290  0.00  0.00    -0.284 N 
ATOM     15  C   UNL     1      -1.171   2.957  -6.223  0.00  0.00    +0.124 A 
ATOM     16  C   UNL     1      -1.808   3.408  -7.376  0.00  0.00    +0.045 A 
ATOM     17  C   UNL     1      -1.088   4.150  -8.295  0.00  0.00    +0.020 A 
ATOM     18  C   UNL     1       0.249   4.418  -8.029  0.00  0.00    +0.036 A 
ATOM     19  C   UNL     1       0.816   3.939  -6.865  0.00  0.00    +0.128 A 
ATOM     20  N   UNL     1       0.104   3.237  -6.004  0.00  0.00    -0.239 NA
ATOM     21 BR   UNL     1       1.281   5.428  -9.250  0.00  0.00    -0.049 Br
ATOM     22  H   UNL     1      -2.785   1.914  -5.492  0.00  0.00    +0.155 HD
ENDBRANCH   9  14
BRANCH   8  23
ATOM     23  N   UNL     1      -3.187   0.449  -3.510  0.00  0.00    -0.353 N 
ATOM     24  H   UNL     1      -3.587  -0.211  -2.921  0.00  0.00    +0.143 HD
ATOM     25  H   UNL     1      -3.646   0.716  -4.322  0.00  0.00    +0.143 HD
ENDBRANCH   8  23
BRANCH   1  27
ATOM     26  C   UNL     1      -4.047   2.408   0.781  0.00  0.00    +0.006 C 
ATOM     27  C   UNL     1      -2.978   1.893  -0.184  0.00  0.00    +0.019 C 
ENDBRANCH   1  27
TORSDOF 3
