REMARK  Name = ZINC25533797
REMARK  12 active torsions:
REMARK  status: ('A' for Active; 'I' for Inactive)
REMARK    1  A    between atoms: C_1  and  C_2
REMARK    2  A    between atoms: C_2  and  C_27
REMARK    3  A    between atoms: N_5  and  N_9
REMARK    4  A    between atoms: C_10  and  C_12
REMARK    5  A    between atoms: C_12  and  N_13
REMARK    6  A    between atoms: N_13  and  C_14
REMARK    7  A    between atoms: N_13  and  C_15
REMARK    8  A    between atoms: C_15  and  C_16
REMARK    9  A    between atoms: C_21  and  O_22
REMARK   10  A    between atoms: O_22  and  C_23
REMARK   11  A    between atoms: C_30  and  O_33
REMARK   12  A    between atoms: O_33  and  C_34
REMARK                            x       y       z     vdW  Elec       q    Type
REMARK                         _______ _______ _______ _____ _____    ______ ____
ROOT
ATOM      1  N   UNL     1       1.433  -6.150  -2.839  0.00  0.00    -0.225 N 
ATOM      2  C   UNL     1       1.499  -5.630  -4.080  0.00  0.00    +0.213 C 
ATOM      3  O   UNL     1       0.915  -4.598  -4.337  0.00  0.00    -0.276 OA
ATOM      4  H   UNL     1       1.962  -7.086  -2.606  0.00  0.00    +0.173 HD
ENDROOT
BRANCH   1   9
ATOM      5  C   UNL     1       0.115  -4.821   1.408  0.00  0.00    +0.047 C 
ATOM      6  C   UNL     1       0.060  -4.277  -0.021  0.00  0.00    +0.137 C 
ATOM      7  C   UNL     1       1.231  -4.790  -0.836  0.00  0.00    +0.267 C 
ATOM      8  O   UNL     1       2.409  -4.600  -0.625  0.00  0.00    -0.271 OA
ATOM      9  N   UNL     1       0.689  -5.500  -1.845  0.00  0.00    -0.137 N 
ATOM     10  C   UNL     1      -0.648  -5.507  -1.782  0.00  0.00    +0.327 C 
ATOM     11  O   UNL     1      -1.359  -6.081  -2.583  0.00  0.00    -0.251 OA
ATOM     12  N   UNL     1      -1.116  -4.807  -0.733  0.00  0.00    -0.280 N 
ATOM     13  H   UNL     1      -2.128  -4.591  -0.360  0.00  0.00    +0.152 HD
BRANCH   6  14
ATOM     14  C   UNL     1       0.040  -2.770  -0.013  0.00  0.00    -0.015 A 
ATOM     15  C   UNL     1      -1.168  -2.096   0.002  0.00  0.00    +0.010 A 
ATOM     16  C   UNL     1      -1.189  -0.715   0.010  0.00  0.00    +0.046 A 
ATOM     17  C   UNL     1       0.002  -0.004   0.002  0.00  0.00    +0.120 A 
ATOM     18  C   UNL     1       1.212  -0.682  -0.019  0.00  0.00    +0.046 A 
ATOM     19  C   UNL     1       1.228  -2.064  -0.021  0.00  0.00    +0.010 A 
BRANCH  17  20
ATOM     20  O   UNL     1      -0.016   1.355   0.009  0.00  0.00    -0.495 OA
ATOM     21  C   UNL     1       1.248   2.021   0.001  0.00  0.00    +0.277 C 
ENDBRANCH  17  20
ENDBRANCH   6  14
ENDBRANCH   1   9
BRANCH   2  22
ATOM     22  C   UNL     1       2.300  -6.329  -5.149  0.00  0.00    +0.020 C 
BRANCH  22  23
ATOM     23  N   UNL     1       2.214  -5.567  -6.402  0.00  0.00    +0.386 N 
ATOM     24  C   UNL     1       0.844  -5.575  -6.930  0.00  0.00    -0.095 C 
ATOM     25  H   UNL     1       2.486  -4.524  -6.183  0.00  0.00    -0.081 HD
BRANCH  23  26
ATOM     26  C   UNL     1       3.165  -6.082  -7.396  0.00  0.00    -0.039 C 
BRANCH  26  27
ATOM     27  C   UNL     1       3.227  -5.136  -8.568  0.00  0.00    -0.022 A 
ATOM     28  C   UNL     1       2.524  -5.419  -9.723  0.00  0.00    +0.005 A 
ATOM     29  C   UNL     1       2.580  -4.552 -10.798  0.00  0.00    +0.000 A 
ATOM     30  C   UNL     1       3.340  -3.399 -10.721  0.00  0.00    +0.004 A 
ATOM     31  C   UNL     1       4.044  -3.111  -9.568  0.00  0.00    +0.046 A 
ATOM     32  C   UNL     1       3.985  -3.977  -8.486  0.00  0.00    +0.131 A 
BRANCH  32  33
ATOM     33  O   UNL     1       4.673  -3.694  -7.349  0.00  0.00    -0.406 OA
BRANCH  33  34
ATOM     34  C   UNL     1       5.433  -2.483  -7.335  0.00  0.00    +0.575 C 
ATOM     35  F   UNL     1       4.579  -1.394  -7.539  0.00  0.00    -0.133 F 
ATOM     36  F   UNL     1       6.073  -2.349  -6.098  0.00  0.00    -0.133 F 
ATOM     37  F   UNL     1       6.391  -2.522  -8.354  0.00  0.00    -0.133 F 
ENDBRANCH  33  34
ENDBRANCH  32  33
ENDBRANCH  26  27
ENDBRANCH  23  26
ENDBRANCH  22  23
ENDBRANCH   2  22
TORSDOF 9
