REMARK  Name = ZINC09817546
REMARK  13 active torsions:
REMARK  status: ('A' for Active; 'I' for Inactive)
REMARK    1  A    between atoms: C_1  and  C_2
REMARK    2  A    between atoms: C_2  and  O_3
REMARK    3  A    between atoms: O_3  and  C_4
REMARK    4  A    between atoms: C_4  and  C_6
REMARK    5  A    between atoms: C_7  and  C_22
REMARK    6  A    between atoms: C_12  and  C_14
REMARK    7  A    between atoms: C_17  and  O_20
REMARK    8  A    between atoms: O_20  and  C_21
REMARK    9  A    between atoms: C_22  and  S_23
REMARK   10  A    between atoms: S_23  and  C_24
REMARK   11  A    between atoms: C_27  and  C_36
REMARK   12  A    between atoms: N_28  and  C_29
REMARK   13  A    between atoms: C_33  and  C_35
REMARK                            x       y       z     vdW  Elec       q    Type
REMARK                         _______ _______ _______ _____ _____    ______ ____
ROOT
ATOM      1  C   UNL     1       1.233   7.186  -5.684  0.00  0.00    +0.079 C 
ATOM      2  C   UNL     1       1.998   7.022  -4.583  0.00  0.00    +0.034 C 
ATOM      3  N   UNL     1       3.333   6.755  -4.685  0.00  0.00    -0.272 N 
ATOM      4  C   UNL     1       3.981   6.643  -5.852  0.00  0.00    +0.304 C 
ATOM      5  O   UNL     1       5.172   6.404  -5.842  0.00  0.00    -0.252 OA
ATOM      6  N   UNL     1       3.354   6.787  -7.037  0.00  0.00    -0.288 N 
ATOM      7  C   UNL     1       1.910   7.077  -7.035  0.00  0.00    +0.144 C 
ATOM      8  H   UNL     1       3.841   6.641  -3.867  0.00  0.00    +0.156 HD
ATOM      9  H   UNL     1       3.843   6.702  -7.870  0.00  0.00    +0.151 HD
ENDROOT
BRANCH   7  10
ATOM     10  C   UNL     1       1.217   5.985  -7.810  0.00  0.00    -0.022 A 
ATOM     11  C   UNL     1       1.631   4.673  -7.674  0.00  0.00    +0.009 A 
ATOM     12  C   UNL     1       0.993   3.670  -8.378  0.00  0.00    +0.046 A 
ATOM     13  C   UNL     1      -0.056   3.982  -9.231  0.00  0.00    +0.120 A 
ATOM     14  C   UNL     1      -0.465   5.300  -9.370  0.00  0.00    +0.046 A 
ATOM     15  C   UNL     1       0.172   6.299  -8.659  0.00  0.00    +0.009 A 
BRANCH  13  16
ATOM     16  O   UNL     1      -0.680   2.998  -9.930  0.00  0.00    -0.495 OA
ATOM     17  C   UNL     1      -0.205   1.664  -9.738  0.00  0.00    +0.277 C 
ENDBRANCH  13  16
ENDBRANCH   7  10
BRANCH   1  18
ATOM     18  C   UNL     1      -0.151   7.456  -5.580  0.00  0.00    +0.339 C 
ATOM     19  O   UNL     1      -0.647   7.681  -4.492  0.00  0.00    -0.245 OA
BRANCH  18  20
ATOM     20  O   UNL     1      -0.922   7.465  -6.687  0.00  0.00    -0.462 OA
BRANCH  20  22
ATOM     21  C   UNL     1      -3.018   7.713  -7.865  0.00  0.00    +0.048 C 
ATOM     22  C   UNL     1      -2.312   7.746  -6.508  0.00  0.00    +0.229 C 
ENDBRANCH  20  22
ENDBRANCH  18  20
ENDBRANCH   1  18
BRANCH   2  23
ATOM     23  C   UNL     1       1.365   7.128  -3.219  0.00  0.00    +0.128 C 
BRANCH  23  24
ATOM     24  S   UNL     1       1.681   8.773  -2.534  0.00  0.00    -0.080 S 
BRANCH  24  25
ATOM     25  C   UNL     1       0.855   8.623  -0.985  0.00  0.00    +0.196 A 
ATOM     26  N   UNL     1       0.215   7.566  -0.540  0.00  0.00    -0.122 NA
ATOM     27  N   UNL     1      -0.267   7.805   0.627  0.00  0.00    -0.133 NA
ATOM     28  C   UNL     1       0.037   9.016   0.999  0.00  0.00    +0.135 A 
ATOM     29  N   UNL     1       0.759   9.585  -0.017  0.00  0.00    -0.274 N 
ATOM     30  C   UNL     1      -0.338   9.671   2.303  0.00  0.00    +0.088 C 
BRANCH  29  31
ATOM     31  C   UNL     1       1.294  10.881  -0.055  0.00  0.00    +0.050 A 
ATOM     32  C   UNL     1       2.287  11.250   0.842  0.00  0.00    +0.026 A 
ATOM     33  C   UNL     1       2.816  12.525   0.799  0.00  0.00    +0.002 A 
ATOM     34  C   UNL     1       2.348  13.438  -0.130  0.00  0.00    +0.003 A 
ATOM     35  C   UNL     1       1.359  13.073  -1.024  0.00  0.00    -0.048 A 
ATOM     36  C   UNL     1       0.831  11.797  -0.989  0.00  0.00    +0.029 A 
ATOM     37  C   UNL     1       0.857  14.068  -2.038  0.00  0.00    +0.044 C 
ENDBRANCH  29  31
ENDBRANCH  24  25
ENDBRANCH  23  24
ENDBRANCH   2  23
TORSDOF 9
