REMARK  Name = ZINC62729930
REMARK  11 active torsions:
REMARK  status: ('A' for Active; 'I' for Inactive)
REMARK    1  A    between atoms: C_1  and  C_2
REMARK    2  A    between atoms: C_2  and  C_3
REMARK    3  A    between atoms: C_3  and  C_5
REMARK    4  A    between atoms: C_3  and  O_8
REMARK    5  A    between atoms: O_8  and  C_9
REMARK    6  A    between atoms: C_14  and  C_15
REMARK    7  A    between atoms: C_15  and  N_16
REMARK    8  A    between atoms: N_16  and  C_17
REMARK    9  A    between atoms: C_17  and  C_18
REMARK   10  A    between atoms: C_17  and  C_19
REMARK   11  A    between atoms: C_17  and  C_20
REMARK                            x       y       z     vdW  Elec       q    Type
REMARK                         _______ _______ _______ _____ _____    ______ ____
ROOT
ATOM      1  C   UNL     1       2.420   1.054  -1.846  0.00  0.00    +0.123 A 
ATOM      2  C   UNL     1       1.429   1.846  -2.407  0.00  0.00    +0.047 A 
ATOM      3  C   UNL     1       1.766   3.019  -3.053  0.00  0.00    +0.019 A 
ATOM      4  C   UNL     1       3.092   3.405  -3.141  0.00  0.00    +0.018 A 
ATOM      5  C   UNL     1       4.082   2.617  -2.583  0.00  0.00    +0.020 A 
ATOM      6  C   UNL     1       3.748   1.445  -1.931  0.00  0.00    -0.022 A 
ATOM      7 BR   UNL     1       3.551   5.012  -4.026  0.00  0.00    -0.050 Br
ENDROOT
BRANCH   1   8
ATOM      8  O   UNL     1       2.090  -0.101  -1.210  0.00  0.00    -0.479 OA
BRANCH   8   9
ATOM      9  C   UNL     1       0.720  -0.502  -1.264  0.00  0.00    +0.258 C 
BRANCH   9  10
ATOM     10  C   UNL     1       0.641  -1.997  -1.441  0.00  0.00    +0.251 C 
ATOM     11  O   UNL     1       1.653  -2.664  -1.423  0.00  0.00    -0.272 OA
ATOM     12  N   UNL     1      -0.555  -2.592  -1.619  0.00  0.00    -0.326 N 
ATOM     13  H   UNL     1      -1.365  -2.058  -1.633  0.00  0.00    +0.145 HD
ATOM     14  H   UNL     1      -0.607  -3.554  -1.733  0.00  0.00    +0.145 HD
ENDBRANCH   9  10
BRANCH   9  16
ATOM     15  C   UNL     1      -0.008   1.420   0.157  0.00  0.00    +0.008 C 
ATOM     16  C   UNL     1       0.021  -0.105   0.038  0.00  0.00    +0.051 C 
ENDBRANCH   9  16
ENDBRANCH   8   9
ENDBRANCH   1   8
BRANCH   6  17
ATOM     17  C   UNL     1       4.827   0.591  -1.317  0.00  0.00    -0.042 C 
BRANCH  17  18
ATOM     18  N   UNL     1       5.137  -0.527  -2.218  0.00  0.00    +0.385 N 
ATOM     19  H   UNL     1       4.308  -1.084  -2.362  0.00  0.00    -0.085 HD
ATOM     20  H   UNL     1       5.458  -0.167  -3.104  0.00  0.00    -0.085 HD
BRANCH  18  21
ATOM     21  C   UNL     1       6.189  -1.361  -1.620  0.00  0.00    -0.077 C 
ATOM     22  C   UNL     1       5.703  -1.908  -0.276  0.00  0.00    -0.011 C 
ATOM     23  C   UNL     1       6.512  -2.525  -2.558  0.00  0.00    -0.011 C 
ATOM     24  C   UNL     1       7.446  -0.517  -1.402  0.00  0.00    -0.011 C 
ENDBRANCH  18  21
ENDBRANCH  17  18
ENDBRANCH   6  17
TORSDOF 7
