REMARK  Name = ZINC36610143
REMARK  11 active torsions:
REMARK  status: ('A' for Active; 'I' for Inactive)
REMARK    1  A    between atoms: C_1  and  C_2
REMARK    2  A    between atoms: C_5  and  S_8
REMARK    3  A    between atoms: S_8  and  C_11
REMARK    4  A    between atoms: C_11  and  N_12
REMARK    5  A    between atoms: C_13  and  C_15
REMARK    6  A    between atoms: C_15  and  C_17
REMARK    7  A    between atoms: C_15  and  N_22
REMARK    8  A    between atoms: N_22  and  C_23
REMARK    9  A    between atoms: C_29  and  C_31
REMARK   10  A    between atoms: C_32  and  O_38
REMARK   11  A    between atoms: C_36  and  O_37
REMARK                            x       y       z     vdW  Elec       q    Type
REMARK                         _______ _______ _______ _____ _____    ______ ____
ROOT
ATOM      1  C   UNL     1       3.895  -5.474   4.798  0.00  0.00    +0.233 C 
ENDROOT
BRANCH   1   2
ATOM      2  C   UNL     1       5.161  -6.136   5.279  0.00  0.00    +0.135 A 
ATOM      3  C   UNL     1       5.906  -5.741   6.327  0.00  0.00    +0.047 A 
ATOM      4  C   UNL     1       6.994  -6.639   6.418  0.00  0.00    +0.041 A 
ATOM      5  C   UNL     1       6.849  -7.529   5.420  0.00  0.00    +0.195 A 
ATOM      6  O   UNL     1       5.734  -7.223   4.737  0.00  0.00    -0.465 OA
ENDBRANCH   1   2
BRANCH   1   8
ATOM      7  N   UNL     1       5.081  -3.610   3.687  0.00  0.00    -0.294 N 
ATOM      8  C   UNL     1       4.199  -4.625   3.592  0.00  0.00    +0.243 C 
ATOM      9  O   UNL     1       3.651  -4.854   2.534  0.00  0.00    -0.273 OA
ATOM     10  H   UNL     1       5.519  -3.426   4.532  0.00  0.00    +0.150 HD
BRANCH   7  11
ATOM     11  C   UNL     1       5.377  -2.783   2.514  0.00  0.00    +0.278 C 
BRANCH  11  12
ATOM     12  S   UNL     1       4.329  -1.303   2.537  0.00  0.00    +0.013 S 
ATOM     13  O   UNL     1       2.981  -1.661   2.807  0.00  0.00    -0.168 OA
ATOM     14  O   UNL     1       4.648  -0.460   1.439  0.00  0.00    -0.168 OA
BRANCH  12  19
ATOM     15  C   UNL     1       6.105   1.780   7.410  0.00  0.00    +0.044 C 
ATOM     16  C   UNL     1       5.661   1.010   6.193  0.00  0.00    -0.050 A 
ATOM     17  C   UNL     1       6.267   1.239   4.972  0.00  0.00    +0.005 A 
ATOM     18  C   UNL     1       5.860   0.532   3.856  0.00  0.00    +0.027 A 
ATOM     19  C   UNL     1       4.848  -0.403   3.961  0.00  0.00    +0.090 A 
ATOM     20  C   UNL     1       4.243  -0.632   5.182  0.00  0.00    +0.027 A 
ATOM     21  C   UNL     1       4.653   0.071   6.299  0.00  0.00    +0.005 A 
ENDBRANCH  12  19
ENDBRANCH  11  12
ENDBRANCH   7  11
ENDBRANCH   1   8
BRANCH   1  22
ATOM     22  N   UNL     1       2.914  -6.501   4.438  0.00  0.00    -0.248 N 
ATOM     23  C   UNL     1       1.601  -6.282   4.649  0.00  0.00    +0.259 C 
ATOM     24  O   UNL     1       1.228  -5.222   5.114  0.00  0.00    -0.269 OA
BRANCH  22  25
ATOM     25  C   UNL     1       3.340  -7.708   3.874  0.00  0.00    +0.038 A 
ATOM     26  C   UNL     1       3.807  -7.739   2.567  0.00  0.00    +0.023 A 
ATOM     27  C   UNL     1       4.227  -8.933   2.013  0.00  0.00    +0.002 A 
ATOM     28  C   UNL     1       4.184 -10.096   2.760  0.00  0.00    +0.000 A 
ATOM     29  C   UNL     1       3.719 -10.069   4.062  0.00  0.00    +0.002 A 
ATOM     30  C   UNL     1       3.303  -8.877   4.623  0.00  0.00    +0.023 A 
ENDBRANCH  22  25
BRANCH  23  31
ATOM     31  C   UNL     1       0.618  -7.327   4.317  0.00  0.00    +0.120 A 
ATOM     32  C   UNL     1       0.118  -8.170   5.320  0.00  0.00    +0.133 A 
ATOM     33  C   UNL     1      -0.807  -9.149   4.997  0.00  0.00    +0.046 A 
ATOM     34  C   UNL     1      -1.237  -9.297   3.691  0.00  0.00    +0.007 A 
ATOM     35  C   UNL     1      -0.750  -8.472   2.695  0.00  0.00    +0.046 A 
ATOM     36  C   UNL     1       0.172  -7.482   2.997  0.00  0.00    +0.133 A 
BRANCH  36  37
ATOM     37  O   UNL     1       0.644  -6.670   2.018  0.00  0.00    -0.506 OA
ATOM     38  H   UNL     1       1.438  -7.004   1.579  0.00  0.00    +0.292 HD
ENDBRANCH  36  37
BRANCH  32  39
ATOM     39  O   UNL     1       0.538  -8.027   6.602  0.00  0.00    -0.506 OA
ATOM     40  H   UNL     1       0.003  -7.415   7.126  0.00  0.00    +0.292 HD
ENDBRANCH  32  39
ENDBRANCH  23  31
ENDBRANCH   1  22
TORSDOF 10
