REMARK  Name = ZINC59875525
REMARK  11 active torsions:
REMARK  status: ('A' for Active; 'I' for Inactive)
REMARK    1  A    between atoms: C_1  and  C_2
REMARK    2  A    between atoms: C_2  and  C_3
REMARK    3  A    between atoms: C_2  and  C_4
REMARK    4  A    between atoms: C_4  and  C_6
REMARK    5  A    between atoms: C_4  and  N_18
REMARK    6  A    between atoms: C_9  and  C_12
REMARK    7  A    between atoms: C_19  and  C_21
REMARK    8  A    between atoms: C_21  and  C_22
REMARK    9  A    between atoms: C_22  and  C_23
REMARK   10  A    between atoms: C_23  and  C_24
REMARK   11  A    between atoms: C_24  and  C_25
REMARK                            x       y       z     vdW  Elec       q    Type
REMARK                         _______ _______ _______ _____ _____    ______ ____
ROOT
ATOM      1  N   UNL     1      -1.413  -1.998   0.005  0.00  0.00    -0.308 N 
ATOM      2  C   UNL     1      -1.292  -2.677   1.163  0.00  0.00    +0.213 C 
ATOM      3  O   UNL     1      -1.198  -2.075   2.212  0.00  0.00    -0.276 OA
ATOM      4  H   UNL     1      -1.488  -2.480  -0.834  0.00  0.00    +0.149 HD
ENDROOT
BRANCH   1   5
ATOM      5  C   UNL     1      -1.433  -0.534   0.013  0.00  0.00    +0.106 C 
BRANCH   5   6
ATOM      6  C   UNL     1      -2.162  -0.034  -1.208  0.00  0.00    -0.027 A 
ATOM      7  C   UNL     1      -1.982  -0.663  -2.426  0.00  0.00    +0.006 A 
ATOM      8  C   UNL     1      -2.650  -0.205  -3.546  0.00  0.00    +0.004 A 
ATOM      9  C   UNL     1      -3.500   0.881  -3.448  0.00  0.00    -0.044 A 
ATOM     10  C   UNL     1      -3.681   1.509  -2.230  0.00  0.00    +0.004 A 
ATOM     11  C   UNL     1      -3.015   1.049  -1.109  0.00  0.00    +0.006 A 
BRANCH   9  12
ATOM     12  C   UNL     1      -4.228   1.381  -4.669  0.00  0.00    +0.019 C 
ATOM     13  C   UNL     1      -3.832   2.834  -4.939  0.00  0.00    +0.008 C 
ATOM     14  C   UNL     1      -4.572   3.341  -6.179  0.00  0.00    +0.001 C 
ATOM     15  C   UNL     1      -6.081   3.259  -5.942  0.00  0.00    +0.000 C 
ATOM     16  C   UNL     1      -6.476   1.806  -5.672  0.00  0.00    +0.001 C 
ATOM     17  C   UNL     1      -5.737   1.299  -4.432  0.00  0.00    +0.008 C 
ENDBRANCH   9  12
ENDBRANCH   5   6
BRANCH   5  19
ATOM     18  C   UNL     1      -0.019   1.526   0.010  0.00  0.00    +0.009 C 
ATOM     19  C   UNL     1       0.002  -0.004   0.002  0.00  0.00    +0.008 C 
ATOM     20  C   UNL     1       0.742  -0.511   1.242  0.00  0.00    +0.009 C 
ENDBRANCH   5  19
ENDBRANCH   1   5
BRANCH   2  21
ATOM     21  C   UNL     1      -1.271  -4.184   1.155  0.00  0.00    +0.096 C 
BRANCH  21  22
ATOM     22  C   UNL     1      -1.125  -4.700   2.587  0.00  0.00    +0.009 C 
BRANCH  22  23
ATOM     23  C   UNL     1      -1.104  -6.230   2.579  0.00  0.00    +0.002 C 
BRANCH  23  24
ATOM     24  C   UNL     1      -0.958  -6.746   4.012  0.00  0.00    +0.016 C 
BRANCH  24  25
ATOM     25  C   UNL     1      -0.937  -8.276   4.004  0.00  0.00    +0.069 C 
ATOM     26  C   UNL     1      -0.747  -8.835   5.430  0.00  0.00    +0.108 C 
ATOM     27  C   UNL     1      -1.602 -10.071   5.725  0.00  0.00    +0.105 C 
ATOM     28  C   UNL     1      -2.491 -10.507   4.540  0.00  0.00    +0.093 C 
ATOM     29  S   UNL     1      -2.593  -8.958   3.561  0.00  0.00    -0.154 S 
ATOM     30  N   UNL     1      -2.468  -9.650   6.837  0.00  0.00    -0.294 N 
ATOM     31  C   UNL     1      -2.183  -8.380   7.155  0.00  0.00    +0.300 C 
ATOM     32  O   UNL     1      -2.751  -7.775   8.044  0.00  0.00    -0.253 OA
ATOM     33  N   UNL     1      -1.224  -7.841   6.404  0.00  0.00    -0.294 N 
ATOM     34  H   UNL     1      -3.138 -10.202   7.269  0.00  0.00    +0.151 HD
ATOM     35  H   UNL     1      -0.892  -6.934   6.491  0.00  0.00    +0.151 HD
ENDBRANCH  24  25
ENDBRANCH  23  24
ENDBRANCH  22  23
ENDBRANCH  21  22
ENDBRANCH   2  21
TORSDOF 9
