REMARK  Name = ZINC57415166
REMARK  9 active torsions:
REMARK  status: ('A' for Active; 'I' for Inactive)
REMARK    1  A    between atoms: C_1  and  C_2
REMARK    2  A    between atoms: C_2  and  C_3
REMARK    3  A    between atoms: C_6  and  C_9
REMARK    4  A    between atoms: C_11  and  C_30
REMARK    5  A    between atoms: C_12  and  C_17
REMARK    6  A    between atoms: C_17  and  N_18
REMARK    7  A    between atoms: C_21  and  N_24
REMARK    8  A    between atoms: C_30  and  O_32
REMARK    9  A    between atoms: O_32  and  C_33
REMARK                            x       y       z     vdW  Elec       q    Type
REMARK                         _______ _______ _______ _____ _____    ______ ____
ROOT
ATOM      1  C   UNL     1      -5.427  -1.998   0.043  0.00  0.00    +0.144 C 
ATOM      2  C   UNL     1      -5.432  -3.509  -0.068  0.00  0.00    +0.079 C 
ATOM      3  C   UNL     1      -6.069  -4.059  -1.124  0.00  0.00    +0.038 C 
ATOM      4  N   UNL     1      -6.687  -3.279  -2.060  0.00  0.00    -0.271 N 
ATOM      5  C   UNL     1      -6.713  -1.942  -2.011  0.00  0.00    +0.304 C 
ATOM      6  O   UNL     1      -7.289  -1.332  -2.891  0.00  0.00    -0.252 OA
ATOM      7  N   UNL     1      -6.121  -1.249  -1.018  0.00  0.00    -0.288 N 
ATOM      8  H   UNL     1      -7.131  -3.719  -2.801  0.00  0.00    +0.156 HD
ATOM      9  H   UNL     1      -6.153  -0.280  -1.003  0.00  0.00    +0.151 HD
ENDROOT
BRANCH   1  13
ATOM     10  C   UNL     1      -1.358  -0.699   0.125  0.00  0.00    -0.048 A 
ATOM     11  C   UNL     1      -2.054  -0.869   1.308  0.00  0.00    +0.004 A 
ATOM     12  C   UNL     1      -3.370  -1.289   1.281  0.00  0.00    +0.006 A 
ATOM     13  C   UNL     1      -3.992  -1.539   0.072  0.00  0.00    -0.022 A 
ATOM     14  C   UNL     1      -3.296  -1.368  -1.111  0.00  0.00    +0.006 A 
ATOM     15  C   UNL     1      -1.981  -0.944  -1.084  0.00  0.00    +0.004 A 
BRANCH  10  17
ATOM     16  C   UNL     1       0.126   1.287   0.111  0.00  0.00    +0.009 C 
ATOM     17  C   UNL     1       0.077  -0.242   0.154  0.00  0.00    +0.032 C 
ENDBRANCH  10  17
ENDBRANCH   1  13
BRANCH   2  18
ATOM     18  C   UNL     1      -4.791  -4.315   0.901  0.00  0.00    +0.339 C 
ATOM     19  O   UNL     1      -5.332  -4.527   1.970  0.00  0.00    -0.245 OA
BRANCH  18  20
ATOM     20  O   UNL     1      -3.580  -4.850   0.640  0.00  0.00    -0.465 OA
ATOM     21  C   UNL     1      -2.992  -5.654   1.665  0.00  0.00    +0.280 C 
ENDBRANCH  18  20
ENDBRANCH   2  18
BRANCH   3  22
ATOM     22  C   UNL     1      -6.098  -5.559  -1.273  0.00  0.00    +0.135 C 
BRANCH  22  23
ATOM     23  N   UNL     1      -7.484  -6.035  -1.168  0.00  0.00    -0.297 NA
ATOM     24  C   UNL     1      -8.019  -5.802   0.180  0.00  0.00    +0.083 C 
ATOM     25  C   UNL     1      -9.503  -6.174   0.212  0.00  0.00    +0.000 C 
ATOM     26  C   UNL     1      -9.663  -7.647  -0.174  0.00  0.00    -0.066 C 
ATOM     27  C   UNL     1      -9.054  -7.873  -1.560  0.00  0.00    +0.000 C 
ATOM     28  C   UNL     1      -7.583  -7.451  -1.541  0.00  0.00    +0.083 C 
BRANCH  26  29
ATOM     29  N   UNL     1     -11.090  -7.995  -0.202  0.00  0.00    +0.382 N 
ATOM     30  C   UNL     1     -11.675  -7.762   1.125  0.00  0.00    -0.078 C 
ATOM     31  C   UNL     1     -13.178  -8.046   1.080  0.00  0.00    -0.019 C 
ATOM     32  C   UNL     1     -13.405  -9.503   0.669  0.00  0.00    -0.004 C 
ATOM     33  C   UNL     1     -12.727  -9.754  -0.681  0.00  0.00    -0.019 C 
ATOM     34  C   UNL     1     -11.241  -9.408  -0.571  0.00  0.00    -0.078 C 
ATOM     35  H   UNL     1     -11.562  -7.418  -0.881  0.00  0.00    -0.081 HD
ENDBRANCH  26  29
ENDBRANCH  22  23
ENDBRANCH   3  22
TORSDOF 7
