REMARK  Name = ZINC01430888
REMARK  5 active torsions:
REMARK  status: ('A' for Active; 'I' for Inactive)
REMARK    1  A    between atoms: C_1  and  C_2
REMARK    2  A    between atoms: C_2  and  C_3
REMARK    3  A    between atoms: C_6  and  C_9
REMARK    4  A    between atoms: N_14  and  C_22
REMARK    5  A    between atoms: C_23  and  C_31
REMARK                            x       y       z     vdW  Elec       q    Type
REMARK                         _______ _______ _______ _____ _____    ______ ____
ROOT
ATOM      1  C   UNL     1      -1.292  -0.775   0.012  0.00  0.00    +0.063 C 
ATOM      2  C   UNL     1      -1.371  -1.661  -1.235  0.00  0.00    +0.109 C 
ATOM      3  C   UNL     1      -2.539  -2.604  -1.089  0.00  0.00    +0.225 C 
ATOM      4  O   UNL     1      -3.171  -2.943  -2.066  0.00  0.00    -0.275 OA
ATOM      5  N   UNL     1      -2.879  -3.068   0.127  0.00  0.00    -0.236 N 
ATOM      6  C   UNL     1      -2.125  -2.759   1.234  0.00  0.00    +0.026 C 
ATOM      7  C   UNL     1      -1.350  -1.654   1.241  0.00  0.00    +0.020 C 
ATOM      8  C   UNL     1      -0.592  -1.298   2.368  0.00  0.00    +0.161 C 
ATOM      9  O   UNL     1       0.093  -0.295   2.336  0.00  0.00    -0.292 OA
ATOM     10  C   UNL     1      -0.616  -2.141   3.615  0.00  0.00    +0.080 C 
ATOM     11  C   UNL     1      -1.967  -2.857   3.709  0.00  0.00    +0.014 C 
ATOM     12  C   UNL     1      -2.179  -3.673   2.432  0.00  0.00    +0.052 C 
ENDROOT
BRANCH   5  13
ATOM     13  C   UNL     1      -4.005  -3.871   0.266  0.00  0.00    +0.097 A 
ATOM     14  C   UNL     1      -5.294  -3.494   0.610  0.00  0.00    +0.084 A 
ATOM     15  C   UNL     1      -6.302  -4.536   0.687  0.00  0.00    -0.018 A 
ATOM     16  C   UNL     1      -5.861  -5.784   0.408  0.00  0.00    -0.004 A 
ATOM     17  S   UNL     1      -4.141  -5.584   0.042  0.00  0.00    -0.076 S 
ATOM     18  C   UNL     1      -6.666  -7.047   0.409  0.00  0.00    +0.043 C 
ATOM     19  C   UNL     1      -7.990  -6.776   1.139  0.00  0.00    +0.005 C 
ATOM     20  C   UNL     1      -8.596  -5.479   0.595  0.00  0.00    +0.005 C 
ATOM     21  C   UNL     1      -7.759  -4.282   1.051  0.00  0.00    +0.037 C 
BRANCH  14  22
ATOM     22  C   UNL     1      -5.620  -2.126   0.881  0.00  0.00    +0.102 C 
ATOM     23  N   UNL     1      -5.878  -1.041   1.096  0.00  0.00    -0.191 NA
ENDBRANCH  14  22
ENDBRANCH   5  13
BRANCH   1  27
ATOM     24  C   UNL     1       2.378   1.410  -0.014  0.00  0.00    -0.048 A 
ATOM     25  C   UNL     1       1.172   2.085   0.005  0.00  0.00    +0.004 A 
ATOM     26  C   UNL     1      -0.016   1.378   0.013  0.00  0.00    +0.004 A 
ATOM     27  C   UNL     1       0.002  -0.004   0.003  0.00  0.00    -0.039 A 
ATOM     28  C   UNL     1       1.209  -0.679  -0.014  0.00  0.00    +0.004 A 
ATOM     29  C   UNL     1       2.396   0.028  -0.022  0.00  0.00    +0.004 A 
BRANCH  24  31
ATOM     30  C   UNL     1       4.097   2.451  -1.467  0.00  0.00    +0.009 C 
ATOM     31  C   UNL     1       3.673   2.181  -0.022  0.00  0.00    +0.032 C 
ENDBRANCH  24  31
ENDBRANCH   1  27
TORSDOF 4
