REMARK  Name = ZINC04789027
REMARK  13 active torsions:
REMARK  status: ('A' for Active; 'I' for Inactive)
REMARK    1  A    between atoms: C_1  and  C_2
REMARK    2  A    between atoms: C_2  and  O_3
REMARK    3  A    between atoms: O_3  and  C_4
REMARK    4  A    between atoms: C_6  and  C_11
REMARK    5  A    between atoms: C_9  and  O_10
REMARK    6  A    between atoms: C_16  and  C_26
REMARK    7  A    between atoms: C_18  and  C_22
REMARK    8  A    between atoms: C_22  and  O_24
REMARK    9  A    between atoms: O_24  and  C_25
REMARK   10  A    between atoms: C_28  and  C_39
REMARK   11  A    between atoms: C_29  and  C_30
REMARK   12  A    between atoms: C_30  and  O_32
REMARK   13  A    between atoms: O_32  and  C_33
REMARK                            x       y       z     vdW  Elec       q    Type
REMARK                         _______ _______ _______ _____ _____    ______ ____
ROOT
ATOM      1  C   UNL     1      -0.229  -4.969   0.477  0.00  0.00    +0.092 C 
ATOM      2  C   UNL     1      -1.282  -5.832  -0.171  0.00  0.00    +0.025 C 
ATOM      3  C   UNL     1      -1.019  -7.116  -0.492  0.00  0.00    +0.016 C 
ATOM      4  C   UNL     1      -2.068  -7.987  -1.139  0.00  0.00    +0.055 C 
ATOM      5  C   UNL     1      -2.996  -7.123  -1.994  0.00  0.00    +0.013 C 
ATOM      6  C   UNL     1      -3.632  -6.056  -1.096  0.00  0.00    +0.171 C 
ATOM      7  C   UNL     1      -2.540  -5.262  -0.433  0.00  0.00    +0.176 C 
ATOM      8  O   UNL     1      -2.749  -4.107  -0.117  0.00  0.00    -0.291 OA
ATOM      9  C   UNL     1      -4.089  -7.998  -2.612  0.00  0.00    +0.009 C 
ATOM     10  N   UNL     1       0.211  -7.659  -0.233  0.00  0.00    -0.321 N 
ATOM     11  C   UNL     1       1.046  -7.086   0.686  0.00  0.00    +0.016 C 
ATOM     12  C   UNL     1       0.871  -5.808   1.058  0.00  0.00    +0.065 C 
ATOM     13  C   UNL     1       2.168  -7.894   1.285  0.00  0.00    +0.061 C 
ATOM     14  H   UNL     1       0.493  -8.458  -0.706  0.00  0.00    +0.152 HD
ENDROOT
BRANCH   1  17
ATOM     15  C   UNL     1       0.777  -1.811  -1.336  0.00  0.00    +0.162 A 
ATOM     16  C   UNL     1       0.243  -2.669  -0.388  0.00  0.00    +0.054 A 
ATOM     17  C   UNL     1       0.352  -4.037  -0.555  0.00  0.00    -0.032 A 
ATOM     18  C   UNL     1       0.992  -4.552  -1.667  0.00  0.00    +0.008 A 
ATOM     19  C   UNL     1       1.526  -3.702  -2.616  0.00  0.00    +0.049 A 
ATOM     20  C   UNL     1       1.416  -2.330  -2.458  0.00  0.00    +0.158 A 
BRANCH  20  21
ATOM     21  O   UNL     1       1.936  -1.492  -3.394  0.00  0.00    -0.503 OA
ATOM     22  H   UNL     1       2.856  -1.241  -3.231  0.00  0.00    +0.292 HD
ENDBRANCH  20  21
BRANCH  15  23
ATOM     23  O   UNL     1       0.671  -0.465  -1.174  0.00  0.00    -0.489 OA
BRANCH  23  25
ATOM     24  C   UNL     1      -0.019   1.526   0.010  0.00  0.00    +0.048 C 
ATOM     25  C   UNL     1       0.002  -0.004   0.002  0.00  0.00    +0.226 C 
ENDBRANCH  23  25
ENDBRANCH  15  23
ENDBRANCH   1  17
BRANCH   6  26
ATOM     26  C   UNL     1      -4.489  -5.140  -1.931  0.00  0.00    +0.318 C 
ATOM     27  O   UNL     1      -4.584  -5.319  -3.122  0.00  0.00    -0.250 OA
BRANCH  26  28
ATOM     28  O   UNL     1      -5.148  -4.124  -1.351  0.00  0.00    -0.467 OA
ATOM     29  C   UNL     1      -5.942  -3.295  -2.203  0.00  0.00    +0.280 C 
ENDBRANCH  26  28
ENDBRANCH   6  26
BRANCH  12  30
ATOM     30  C   UNL     1       1.743  -5.241   2.017  0.00  0.00    +0.338 C 
ATOM     31  O   UNL     1       2.639  -5.911   2.496  0.00  0.00    -0.245 OA
BRANCH  30  32
ATOM     32  O   UNL     1       1.581  -3.957   2.401  0.00  0.00    -0.458 OA
BRANCH  32  33
ATOM     33  C   UNL     1       2.498  -3.450   3.373  0.00  0.00    +0.177 C 
ATOM     34  C   UNL     1       1.941  -3.697   4.777  0.00  0.00    +0.044 C 
ATOM     35  C   UNL     1       2.922  -3.154   5.817  0.00  0.00    +0.004 C 
ATOM     36  C   UNL     1       3.115  -1.652   5.602  0.00  0.00    +0.000 C 
ATOM     37  C   UNL     1       3.672  -1.405   4.199  0.00  0.00    +0.004 C 
ATOM     38  C   UNL     1       2.690  -1.948   3.158  0.00  0.00    +0.044 C 
ENDBRANCH  32  33
ENDBRANCH  30  32
ENDBRANCH  12  30
TORSDOF 9
