REMARK  Name = ZINC20805770
REMARK  11 active torsions:
REMARK  status: ('A' for Active; 'I' for Inactive)
REMARK    1  A    between atoms: C_1  and  C_2
REMARK    2  A    between atoms: C_7  and  N_8
REMARK    3  A    between atoms: C_13  and  C_16
REMARK    4  A    between atoms: C_16  and  C_17
REMARK    5  A    between atoms: C_16  and  C_18
REMARK    6  A    between atoms: C_16  and  C_19
REMARK    7  A    between atoms: N_20  and  C_25
REMARK    8  A    between atoms: C_21  and  S_23
REMARK    9  A    between atoms: S_23  and  C_24
REMARK   10  A    between atoms: C_28  and  O_31
REMARK   11  A    between atoms: O_31  and  C_32
REMARK                            x       y       z     vdW  Elec       q    Type
REMARK                         _______ _______ _______ _____ _____    ______ ____
ROOT
ATOM      1  N   UNL     1       2.042  -1.273   0.392  0.00  0.00    -0.232 NA
ATOM      2  C   UNL     1       1.388  -0.181   0.074  0.00  0.00    +0.133 C 
ATOM      3  C   UNL     1      -0.090   0.080   0.248  0.00  0.00    +0.099 C 
ATOM      4  C   UNL     1      -0.908  -0.911  -0.570  0.00  0.00    +0.034 C 
ATOM      5  C   UNL     1      -2.399  -0.602  -0.407  0.00  0.00    +0.006 C 
ATOM      6  C   UNL     1      -2.780  -0.697   1.071  0.00  0.00    -0.005 C 
ATOM      7  C   UNL     1      -1.967   0.320   1.876  0.00  0.00    +0.006 C 
ATOM      8  C   UNL     1      -0.474   0.014   1.722  0.00  0.00    +0.034 C 
ATOM      9  N   UNL     1      -0.267   1.445  -0.269  0.00  0.00    -0.268 N 
ATOM     10  C   UNL     1       0.977   1.853  -0.669  0.00  0.00    +0.141 C 
ATOM     11  N   UNL     1       1.893   0.932  -0.471  0.00  0.00    -0.324 N 
ATOM     12  H   UNL     1       2.939   1.129  -0.748  0.00  0.00    +0.169 HD
ENDROOT
BRANCH   1  19
ATOM     13  C   UNL     1       2.106  -1.218   3.232  0.00  0.00    +0.046 C 
ATOM     14  C   UNL     1       1.404  -2.304   2.458  0.00  0.00    -0.025 A 
ATOM     15  C   UNL     1       0.755  -3.321   3.128  0.00  0.00    +0.005 A 
ATOM     16  C   UNL     1       0.115  -4.322   2.420  0.00  0.00    +0.000 A 
ATOM     17  C   UNL     1       0.116  -4.309   1.036  0.00  0.00    +0.002 A 
ATOM     18  C   UNL     1       0.756  -3.295   0.353  0.00  0.00    +0.028 A 
ATOM     19  C   UNL     1       1.404  -2.281   1.062  0.00  0.00    +0.069 A 
ENDBRANCH   1  19
BRANCH   9  20
ATOM     20  C   UNL     1      -1.460   2.173  -0.342  0.00  0.00    +0.037 A 
ATOM     21  C   UNL     1      -2.256   2.090  -1.477  0.00  0.00    +0.027 A 
ATOM     22  C   UNL     1      -3.436   2.804  -1.546  0.00  0.00    +0.047 A 
ATOM     23  C   UNL     1      -3.821   3.613  -0.488  0.00  0.00    +0.120 A 
ATOM     24  C   UNL     1      -3.023   3.701   0.644  0.00  0.00    +0.047 A 
ATOM     25  C   UNL     1      -1.846   2.983   0.718  0.00  0.00    +0.027 A 
BRANCH  23  26
ATOM     26  O   UNL     1      -4.980   4.320  -0.559  0.00  0.00    -0.495 OA
ATOM     27  C   UNL     1      -5.752   4.182  -1.754  0.00  0.00    +0.277 C 
ENDBRANCH  23  26
ENDBRANCH   9  20
BRANCH   6  28
ATOM     28  C   UNL     1      -4.271  -0.399   1.233  0.00  0.00    -0.035 C 
ATOM     29  C   UNL     1      -4.590   0.963   0.612  0.00  0.00    +0.011 C 
ATOM     30  C   UNL     1      -5.088  -1.484   0.529  0.00  0.00    +0.011 C 
ATOM     31  C   UNL     1      -4.629  -0.377   2.721  0.00  0.00    +0.011 C 
ENDBRANCH   6  28
BRANCH  10  32
ATOM     32  S   UNL     1       1.311   3.435  -1.371  0.00  0.00    -0.095 S 
ATOM     33  C   UNL     1       3.094   3.285  -1.647  0.00  0.00    +0.093 C 
ENDBRANCH  10  32
TORSDOF 5
