REMARK  Name = ZINC09762447
REMARK  8 active torsions:
REMARK  status: ('A' for Active; 'I' for Inactive)
REMARK    1  A    between atoms: C_1  and  O_2
REMARK    2  A    between atoms: O_2  and  C_3
REMARK    3  A    between atoms: C_6  and  N_9
REMARK    4  A    between atoms: C_10  and  C_12
REMARK    5  A    between atoms: N_17  and  C_28
REMARK    6  A    between atoms: N_19  and  C_20
REMARK    7  A    between atoms: C_28  and  C_29
REMARK    8  A    between atoms: C_29  and  C_30
REMARK                            x       y       z     vdW  Elec       q    Type
REMARK                         _______ _______ _______ _____ _____    ______ ____
ROOT
ATOM      1  C   UNL     1       0.879   0.192  -5.062  0.00  0.00    +0.149 C 
ATOM      2  C   UNL     1       0.172  -0.768  -4.106  0.00  0.00    +0.120 C 
ATOM      3  C   UNL     1      -0.448  -0.055  -2.951  0.00  0.00    +0.223 C 
ATOM      4  O   UNL     1      -1.388  -0.606  -2.419  0.00  0.00    -0.275 OA
ATOM      5  N   UNL     1      -0.084   1.115  -2.442  0.00  0.00    -0.250 N 
ATOM      6  C   UNL     1       0.900   1.921  -2.978  0.00  0.00    +0.164 C 
ATOM      7  N   UNL     1       0.980   3.190  -2.656  0.00  0.00    -0.226 NA
ATOM      8  S   UNL     1       2.054   1.194  -4.106  0.00  0.00    -0.077 S 
ENDROOT
BRANCH   7   9
ATOM      9  C   UNL     1       1.964   3.974  -3.198  0.00  0.00    +0.067 A 
ATOM     10  C   UNL     1       3.279   3.508  -3.256  0.00  0.00    +0.029 A 
ATOM     11  C   UNL     1       4.265   4.299  -3.808  0.00  0.00    +0.022 A 
ATOM     12  C   UNL     1       3.954   5.558  -4.294  0.00  0.00    +0.041 A 
ATOM     13  C   UNL     1       2.654   6.028  -4.235  0.00  0.00    +0.022 A 
ATOM     14  C   UNL     1       1.658   5.244  -3.690  0.00  0.00    +0.029 A 
ATOM     15 CL   UNL     1       5.202   6.552  -4.980  0.00  0.00    -0.084 Cl
ENDBRANCH   7   9
BRANCH   1  17
ATOM     16  N   UNL     1       1.799  -0.075  -7.343  0.00  0.00    -0.285 N 
ATOM     17  C   UNL     1       1.621  -0.594  -6.112  0.00  0.00    +0.231 C 
ATOM     18  O   UNL     1       2.059  -1.695  -5.850  0.00  0.00    -0.274 OA
ATOM     19  H   UNL     1       1.392   0.775  -7.574  0.00  0.00    +0.155 HD
BRANCH  16  23
ATOM     20  C   UNL     1       4.095  -2.120 -10.160  0.00  0.00    +0.120 A 
ATOM     21  C   UNL     1       3.312  -2.826  -9.258  0.00  0.00    +0.047 A 
ATOM     22  C   UNL     1       2.551  -2.150  -8.325  0.00  0.00    +0.027 A 
ATOM     23  C   UNL     1       2.571  -0.762  -8.289  0.00  0.00    +0.034 A 
ATOM     24  C   UNL     1       3.351  -0.055  -9.195  0.00  0.00    +0.027 A 
ATOM     25  C   UNL     1       4.115  -0.733 -10.124  0.00  0.00    +0.047 A 
BRANCH  20  27
ATOM     26  C   UNL     1       5.625  -1.996 -11.975  0.00  0.00    +0.277 C 
ATOM     27  O   UNL     1       4.843  -2.787 -11.078  0.00  0.00    -0.495 OA
ENDBRANCH  20  27
ENDBRANCH  16  23
ENDBRANCH   1  17
BRANCH   5  28
ATOM     28  C   UNL     1      -0.775   1.585  -1.239  0.00  0.00    +0.120 C 
BRANCH  28  29
ATOM     29  C   UNL     1      -0.034   1.086   0.003  0.00  0.00    +0.054 C 
BRANCH  29  30
ATOM     30  C   UNL     1      -0.745   1.569   1.240  0.00  0.00    -0.046 A 
ATOM     31  C   UNL     1      -0.396   2.779   1.810  0.00  0.00    +0.006 A 
ATOM     32  C   UNL     1      -1.051   3.226   2.942  0.00  0.00    +0.038 A 
ATOM     33  C   UNL     1      -2.049   2.455   3.513  0.00  0.00    +0.123 A 
ATOM     34  C   UNL     1      -2.394   1.240   2.945  0.00  0.00    +0.038 A 
ATOM     35  C   UNL     1      -1.742   0.798   1.810  0.00  0.00    +0.006 A 
ATOM     36  F   UNL     1      -2.687   2.888   4.622  0.00  0.00    -0.205 F 
ENDBRANCH  29  30
ENDBRANCH  28  29
ENDBRANCH   5  28
TORSDOF 7
