REMARK  Name = ZINC12651299
REMARK  5 active torsions:
REMARK  status: ('A' for Active; 'I' for Inactive)
REMARK    1  A    between atoms: C_1  and  C_2
REMARK    2  A    between atoms: N_15  and  C_16
REMARK    3  A    between atoms: C_16  and  N_18
REMARK    4  A    between atoms: C_19  and  C_21
REMARK    5  A    between atoms: C_29  and  N_49
REMARK                            x       y       z     vdW  Elec       q    Type
REMARK                         _______ _______ _______ _____ _____    ______ ____
ROOT
ATOM      1  C   UNL     1      -1.286  -0.785  -0.013  0.00  0.00    +0.044 C 
ATOM      2  C   UNL     1       0.007  -0.011  -0.014  0.00  0.00    -0.050 A 
ATOM      3  C   UNL     1       1.215  -0.684  -0.035  0.00  0.00    +0.005 A 
ATOM      4  C   UNL     1       2.400   0.022  -0.033  0.00  0.00    +0.024 A 
ATOM      5  C   UNL     1       2.389   1.410  -0.011  0.00  0.00    +0.039 A 
ATOM      6  C   UNL     1       1.163   2.088   0.002  0.00  0.00    -0.023 A 
ATOM      7  C   UNL     1      -0.015   1.371   0.004  0.00  0.00    +0.009 A 
ATOM      8  C   UNL     1       1.487   3.542   0.005  0.00  0.00    +0.025 C 
ATOM      9  C   UNL     1       0.672   4.493  -0.838  0.00  0.00    -0.069 C 
ATOM     10  C   UNL     1       2.668   5.942  -0.975  0.00  0.00    -0.077 C 
ATOM     11  C   UNL     1       3.517   4.892  -0.207  0.00  0.00    +0.005 C 
ATOM     12  C   UNL     1       2.928   3.548  -0.576  0.00  0.00    +0.085 C 
ATOM     13  N   UNL     1       3.467   2.332   0.004  0.00  0.00    -0.279 N 
ATOM     14  C   UNL     1       0.464   6.860  -1.345  0.00  0.00    -0.096 C 
ATOM     15  N   UNL     1       1.234   5.862  -0.591  0.00  0.00    +0.378 N 
ATOM     16  H   UNL     1       1.154   6.070   0.412  0.00  0.00    -0.082 HD
ENDROOT
BRANCH  13  17
ATOM     17  C   UNL     1       4.719   2.123   0.458  0.00  0.00    +0.144 C 
ATOM     18  S   UNL     1       5.915   3.330   0.255  0.00  0.00    -0.018 S 
BRANCH  17  19
ATOM     19  N   UNL     1       5.028   0.964   1.072  0.00  0.00    -0.263 N 
ATOM     20  C   UNL     1       6.249   0.796   1.617  0.00  0.00    +0.251 C 
ATOM     21  O   UNL     1       7.071   1.689   1.555  0.00  0.00    -0.270 OA
ATOM     22  H   UNL     1       4.372   0.251   1.122  0.00  0.00    +0.157 HD
BRANCH  20  23
ATOM     23  C   UNL     1       6.589  -0.474   2.290  0.00  0.00    +0.055 A 
ATOM     24  C   UNL     1       5.644  -1.500   2.369  0.00  0.00    +0.016 A 
ATOM     25  C   UNL     1       5.968  -2.685   2.994  0.00  0.00    +0.021 A 
ATOM     26  C   UNL     1       7.225  -2.856   3.554  0.00  0.00    +0.042 A 
ATOM     27  C   UNL     1       8.164  -1.842   3.485  0.00  0.00    +0.040 A 
ATOM     28  C   UNL     1       7.854  -0.652   2.857  0.00  0.00    +0.054 A 
ATOM     29 CL   UNL     1       9.033   0.620   2.770  0.00  0.00    -0.083 Cl
ATOM     30 CL   UNL     1       7.622  -4.349   4.345  0.00  0.00    -0.083 Cl
ENDBRANCH  20  23
ENDBRANCH  17  19
ENDBRANCH  13  17
TORSDOF 3
