REMARK  Name = ZINC08845182
REMARK  6 active torsions:
REMARK  status: ('A' for Active; 'I' for Inactive)
REMARK    1  A    between atoms: C_7  and  N_19
REMARK    2  A    between atoms: C_8  and  C_10
REMARK    3  A    between atoms: C_10  and  C_12
REMARK    4  A    between atoms: C_20  and  C_22
REMARK    5  A    between atoms: C_24  and  C_28
REMARK    6  A    between atoms: C_33  and  O_34
REMARK                            x       y       z     vdW  Elec       q    Type
REMARK                         _______ _______ _______ _____ _____    ______ ____
ROOT
ATOM      1  N   UNL     1       0.768  -3.188   0.037  0.00  0.00    -0.277 N 
ATOM      2  C   UNL     1      -0.561  -3.041  -0.129  0.00  0.00    +0.266 C 
ATOM      3  O   UNL     1      -1.040  -1.929  -0.244  0.00  0.00    -0.268 OA
ATOM      4  H   UNL     1       1.143  -4.068   0.197  0.00  0.00    +0.155 HD
ENDROOT
BRANCH   1  11
ATOM      5  C   UNL     1       0.168   1.238   1.219  0.00  0.00    +0.001 A 
ATOM      6  C   UNL     1       1.307   1.991   0.974  0.00  0.00    +0.004 A 
ATOM      7  C   UNL     1       2.436   1.407   0.441  0.00  0.00    +0.047 A 
ATOM      8  C   UNL     1       2.439   0.049   0.143  0.00  0.00    +0.138 A 
ATOM      9  C   UNL     1       1.281  -0.709   0.394  0.00  0.00    +0.042 A 
ATOM     10  C   UNL     1       0.148  -0.099   0.934  0.00  0.00    +0.013 A 
ATOM     11  C   UNL     1       1.601  -2.080  -0.020  0.00  0.00    +0.091 A 
ATOM     12  C   UNL     1       2.904  -2.038  -0.479  0.00  0.00    +0.197 A 
ATOM     13  O   UNL     1       3.373  -0.775  -0.372  0.00  0.00    -0.450 OA
BRANCH  12  14
ATOM     14  C   UNL     1       3.632  -3.144  -0.981  0.00  0.00    +0.230 C 
ATOM     15  O   UNL     1       3.077  -4.217  -1.141  0.00  0.00    -0.283 OA
BRANCH  14  16
ATOM     16  C   UNL     1       5.066  -2.997  -1.311  0.00  0.00    +0.026 A 
ATOM     17  C   UNL     1       5.740  -1.816  -0.992  0.00  0.00    +0.014 A 
ATOM     18  C   UNL     1       7.077  -1.684  -1.302  0.00  0.00    +0.039 A 
ATOM     19  C   UNL     1       7.752  -2.721  -1.928  0.00  0.00    +0.123 A 
ATOM     20  C   UNL     1       7.087  -3.895  -2.247  0.00  0.00    +0.039 A 
ATOM     21  C   UNL     1       5.751  -4.040  -1.936  0.00  0.00    +0.014 A 
ATOM     22  F   UNL     1       9.062  -2.586  -2.230  0.00  0.00    -0.205 F 
ENDBRANCH  14  16
ENDBRANCH  12  14
ENDBRANCH   1  11
BRANCH   2  23
ATOM     23  C   UNL     1      -1.432  -4.226  -0.170  0.00  0.00    +0.121 A 
ATOM     24  C   UNL     1      -2.804  -4.239  -0.338  0.00  0.00    +0.062 A 
ATOM     25  C   UNL     1      -3.169  -5.597  -0.307  0.00  0.00    +0.097 A 
ATOM     26  N   UNL     1      -2.070  -6.300  -0.133  0.00  0.00    -0.173 NA
ATOM     27  N   UNL     1      -1.044  -5.532  -0.055  0.00  0.00    -0.272 N 
ATOM     28  H   UNL     1      -0.130  -5.832   0.069  0.00  0.00    +0.189 HD
BRANCH  25  29
ATOM     29  C   UNL     1      -4.544  -6.139  -0.446  0.00  0.00    +0.045 A 
ATOM     30  C   UNL     1      -5.620  -5.276  -0.633  0.00  0.00    +0.033 A 
ATOM     31  C   UNL     1      -6.898  -5.785  -0.761  0.00  0.00    +0.042 A 
ATOM     32  C   UNL     1      -7.112  -7.152  -0.706  0.00  0.00    +0.023 A 
ATOM     33  C   UNL     1      -6.049  -8.017  -0.521  0.00  0.00    +0.047 A 
ATOM     34  C   UNL     1      -4.762  -7.519  -0.396  0.00  0.00    +0.126 A 
ATOM     35 CL   UNL     1      -8.239  -4.708  -0.993  0.00  0.00    -0.084 Cl
BRANCH  34  36
ATOM     36  O   UNL     1      -3.717  -8.369  -0.221  0.00  0.00    -0.506 OA
ATOM     37  H   UNL     1      -3.522  -8.566   0.706  0.00  0.00    +0.292 HD
ENDBRANCH  34  36
ENDBRANCH  25  29
ENDBRANCH   2  23
TORSDOF 6
