REMARK  Name = ZINC01408070
REMARK  5 active torsions:
REMARK  status: ('A' for Active; 'I' for Inactive)
REMARK    1  A    between atoms: C_1  and  C_2
REMARK    2  A    between atoms: C_4  and  C_26
REMARK    3  A    between atoms: C_9  and  C_10
REMARK    4  A    between atoms: C_12  and  C_22
REMARK    5  A    between atoms: C_14  and  C_16
REMARK                            x       y       z     vdW  Elec       q    Type
REMARK                         _______ _______ _______ _____ _____    ______ ____
ROOT
ATOM      1  C   UNL     1       0.108  -4.226   0.186  0.00  0.00    +0.081 A 
ATOM      2  C   UNL     1       1.334  -4.901   0.131  0.00  0.00    +0.061 A 
ATOM      3  C   UNL     1       1.332  -6.280   0.234  0.00  0.00    +0.148 A 
ATOM      4  N   UNL     1       0.180  -6.918   0.369  0.00  0.00    -0.223 NA
ATOM      5  C   UNL     1      -0.967  -6.255   0.413  0.00  0.00    +0.161 A 
ATOM      6  N   UNL     1      -1.012  -4.934   0.324  0.00  0.00    -0.227 NA
ENDROOT
BRANCH   1  15
ATOM      7  C   UNL     1      -1.338  -2.964  -1.994  0.00  0.00    +0.044 C 
ATOM      8  C   UNL     1      -0.631  -2.137  -0.951  0.00  0.00    -0.034 A 
ATOM      9  C   UNL     1      -0.663  -0.741  -1.011  0.00  0.00    +0.025 A 
ATOM     10  C   UNL     1      -0.020  -0.006  -0.071  0.00  0.00    +0.016 A 
ATOM     11  N   UNL     1       0.653  -0.600   0.945  0.00  0.00    -0.326 N 
ATOM     12  H   UNL     1       1.116  -0.034   1.627  0.00  0.00    +0.169 HD
ATOM     13  C   UNL     1       0.709  -1.942   1.049  0.00  0.00    +0.258 A 
ATOM     14  O   UNL     1       1.319  -2.458   1.970  0.00  0.00    -0.267 OA
ATOM     15  C   UNL     1       0.056  -2.751   0.087  0.00  0.00    +0.068 A 
ATOM     16  C   UNL     1      -0.059   1.498  -0.154  0.00  0.00    +0.063 C 
ENDBRANCH   1  15
BRANCH   5  17
ATOM     17  C   UNL     1      -2.234  -7.012   0.565  0.00  0.00    +0.019 A 
ATOM     18  C   UNL     1      -3.451  -6.335   0.619  0.00  0.00    +0.011 A 
ATOM     19  C   UNL     1      -4.627  -7.045   0.755  0.00  0.00    +0.001 A 
ATOM     20  C   UNL     1      -4.598  -8.425   0.850  0.00  0.00    +0.000 A 
ATOM     21  C   UNL     1      -3.392  -9.101   0.802  0.00  0.00    +0.001 A 
ATOM     22  C   UNL     1      -2.211  -8.402   0.660  0.00  0.00    +0.011 A 
ENDBRANCH   5  17
BRANCH   3  23
ATOM     23  C   UNL     1       2.627  -7.048   0.185  0.00  0.00    +0.434 C 
ATOM     24  F   UNL     1       2.356  -8.421   0.187  0.00  0.00    -0.164 F 
ATOM     25  F   UNL     1       3.325  -6.712  -0.979  0.00  0.00    -0.164 F 
ATOM     26  F   UNL     1       3.403  -6.725   1.304  0.00  0.00    -0.164 F 
ENDBRANCH   3  23
TORSDOF 3
