REMARK  Name = ZINC39710921
REMARK  9 active torsions:
REMARK  status: ('A' for Active; 'I' for Inactive)
REMARK    1  A    between atoms: C_1  and  C_2
REMARK    2  A    between atoms: C_8  and  C_14
REMARK    3  A    between atoms: C_14  and  C_16
REMARK    4  A    between atoms: C_14  and  N_27
REMARK    5  A    between atoms: N_21  and  C_22
REMARK    6  A    between atoms: N_27  and  C_28
REMARK    7  A    between atoms: N_27  and  C_34
REMARK    8  A    between atoms: C_28  and  C_29
REMARK    9  A    between atoms: C_34  and  C_35
REMARK                            x       y       z     vdW  Elec       q    Type
REMARK                         _______ _______ _______ _____ _____    ______ ____
ROOT
ATOM      1  C   UNL     1       1.474  -2.280   4.902  0.00  0.00    -0.009 C 
ENDROOT
BRANCH   1   9
ATOM      2  C   UNL     1       1.201   1.671   0.213  0.00  0.00    +0.045 C 
ATOM      3  C   UNL     1       0.984   0.181   0.276  0.00  0.00    -0.029 A 
ATOM      4  C   UNL     1       0.983  -0.548  -0.870  0.00  0.00    +0.005 A 
ATOM      5  C   UNL     1       0.788  -1.930  -0.883  0.00  0.00    +0.001 A 
ATOM      6  C   UNL     1       0.587  -2.626   0.266  0.00  0.00    +0.009 A 
ATOM      7  C   UNL     1       0.576  -1.902   1.537  0.00  0.00    -0.007 A 
ATOM      8  C   UNL     1       0.378  -2.559   2.715  0.00  0.00    -0.006 C 
ATOM      9  C   UNL     1       0.382  -1.729   3.984  0.00  0.00    +0.088 C 
ATOM     10  C   UNL     1       0.606  -0.240   3.840  0.00  0.00    +0.223 C 
ATOM     11  O   UNL     1       0.619   0.473   4.825  0.00  0.00    -0.275 OA
ATOM     12  N   UNL     1       0.787   0.283   2.639  0.00  0.00    -0.284 N 
ATOM     13  C   UNL     1       0.789  -0.444   1.521  0.00  0.00    +0.043 A 
ATOM     14  H   UNL     1       0.929   1.240   2.568  0.00  0.00    +0.155 HD
ENDBRANCH   1   9
BRANCH   1  15
ATOM     15  C   UNL     1       2.846  -2.015   4.279  0.00  0.00    +0.205 C 
ATOM     16  N   UNL     1       2.980  -0.597   3.919  0.00  0.00    -0.152 NA
ATOM     17  N   UNL     1       3.152  -0.508   2.701  0.00  0.00    -0.070 NA
ATOM     18  N   UNL     1       3.165  -1.749   2.064  0.00  0.00    -0.179 N 
ATOM     19  N   UNL     1       2.979  -2.739   2.997  0.00  0.00    -0.185 NA
ATOM     20  H   UNL     1       3.286  -1.890   1.112  0.00  0.00    +0.191 HD
BRANCH  19  21
ATOM     21  C   UNL     1       4.126  -3.657   3.028  0.00  0.00    +0.080 C 
ATOM     22  C   UNL     1       5.435  -2.862   3.209  0.00  0.00    +0.021 C 
ATOM     23  C   UNL     1       6.463  -3.617   2.330  0.00  0.00    +0.002 C 
ATOM     24  C   UNL     1       5.620  -4.028   1.096  0.00  0.00    +0.002 C 
ATOM     25  C   UNL     1       4.244  -4.399   1.685  0.00  0.00    +0.021 C 
ENDBRANCH  19  21
ENDBRANCH   1  15
BRANCH   1  26
ATOM     26  N   UNL     1       1.395  -1.618   6.211  0.00  0.00    +0.391 N 
ATOM     27  H   UNL     1       1.382  -0.617   6.081  0.00  0.00    -0.080 HD
BRANCH  26  28
ATOM     28  C   UNL     1       0.166  -2.038   6.898  0.00  0.00    -0.002 C 
BRANCH  28  29
ATOM     29  C   UNL     1      -1.000  -1.241   6.375  0.00  0.00    +0.089 A 
ATOM     30  C   UNL     1      -2.015  -1.724   5.636  0.00  0.00    +0.042 A 
ATOM     31  C   UNL     1      -2.880  -0.638   5.367  0.00  0.00    +0.041 A 
ATOM     32  C   UNL     1      -2.341   0.444   5.957  0.00  0.00    +0.195 A 
ATOM     33  O   UNL     1      -1.206   0.072   6.570  0.00  0.00    -0.470 OA
ENDBRANCH  28  29
ENDBRANCH  26  28
BRANCH  26  34
ATOM     34  C   UNL     1       2.562  -1.992   7.021  0.00  0.00    -0.046 C 
BRANCH  34  35
ATOM     35  C   UNL     1       3.720  -1.039   6.717  0.00  0.00    +0.102 C 
ATOM     36  C   UNL     1       4.978  -1.478   7.497  0.00  0.00    +0.032 C 
ATOM     37  C   UNL     1       5.584  -0.118   7.937  0.00  0.00    +0.030 C 
ATOM     38  C   UNL     1       4.299   0.717   8.168  0.00  0.00    +0.160 C 
ATOM     39  O   UNL     1       3.383   0.286   7.146  0.00  0.00    -0.378 OA
ENDBRANCH  34  35
ENDBRANCH  26  34
ENDBRANCH   1  26
TORSDOF 8
