REMARK  Name = ZINC39862358
REMARK  7 active torsions:
REMARK  status: ('A' for Active; 'I' for Inactive)
REMARK    1  A    between atoms: C_1  and  C_2
REMARK    2  A    between atoms: C_2  and  O_3
REMARK    3  A    between atoms: O_3  and  C_4
REMARK    4  A    between atoms: C_6  and  C_11
REMARK    5  A    between atoms: C_9  and  O_10
REMARK    6  A    between atoms: N_15  and  C_25
REMARK    7  A    between atoms: N_17  and  C_18
REMARK                            x       y       z     vdW  Elec       q    Type
REMARK                         _______ _______ _______ _____ _____    ______ ____
ROOT
ATOM      1  C   UNL     1      -0.349  -4.965   0.322  0.00  0.00    +0.028 C 
ATOM      2  C   UNL     1      -0.272  -6.310   0.150  0.00  0.00    +0.078 C 
ATOM      3  C   UNL     1      -0.913  -7.391   0.923  0.00  0.00    +0.259 C 
ATOM      4  O   UNL     1      -1.635  -7.152   1.873  0.00  0.00    -0.269 OA
ATOM      5  N   UNL     1      -0.667  -8.631   0.536  0.00  0.00    -0.249 N 
ATOM      6  C   UNL     1       0.151  -8.882  -0.542  0.00  0.00    +0.170 C 
ATOM      7  N   UNL     1       0.497 -10.044  -1.054  0.00  0.00    -0.206 NA
ATOM      8  S   UNL     1       0.625  -7.246  -1.079  0.00  0.00    -0.049 S 
ATOM      9  C   UNL     1      -1.273  -9.750   1.262  0.00  0.00    +0.140 C 
ENDROOT
BRANCH   1  12
ATOM     10  C   UNL     1       1.053  -1.869  -1.264  0.00  0.00    +0.162 A 
ATOM     11  C   UNL     1       0.238  -2.703  -0.523  0.00  0.00    +0.057 A 
ATOM     12  C   UNL     1       0.513  -4.074  -0.464  0.00  0.00    -0.020 A 
ATOM     13  C   UNL     1       1.613  -4.593  -1.158  0.00  0.00    +0.012 A 
ATOM     14  C   UNL     1       2.420  -3.754  -1.895  0.00  0.00    +0.050 A 
ATOM     15  C   UNL     1       2.143  -2.395  -1.956  0.00  0.00    +0.158 A 
BRANCH  15  16
ATOM     16  O   UNL     1       2.939  -1.574  -2.689  0.00  0.00    -0.503 OA
ATOM     17  H   UNL     1       3.683  -1.203  -2.194  0.00  0.00    +0.292 HD
ENDBRANCH  15  16
BRANCH  10  18
ATOM     18  O   UNL     1       0.788  -0.537  -1.323  0.00  0.00    -0.489 OA
BRANCH  18  20
ATOM     19  C   UNL     1      -0.481   1.446  -0.775  0.00  0.00    +0.048 C 
ATOM     20  C   UNL     1      -0.344  -0.067  -0.589  0.00  0.00    +0.226 C 
ENDBRANCH  18  20
ENDBRANCH  10  18
ENDBRANCH   1  12
BRANCH   7  21
ATOM     21  C   UNL     1       0.144 -11.200  -0.423  0.00  0.00    +0.155 A 
ATOM     22  C   UNL     1      -1.027 -11.867  -0.798  0.00  0.00    +0.048 A 
ATOM     23  C   UNL     1      -1.370 -13.037  -0.148  0.00  0.00    +0.005 A 
ATOM     24  C   UNL     1      -0.534 -13.508   0.858  0.00  0.00    +0.020 A 
ATOM     25  C   UNL     1       0.608 -12.800   1.179  0.00  0.00    +0.113 A 
ATOM     26  N   UNL     1       0.918 -11.688   0.542  0.00  0.00    -0.236 NA
ENDBRANCH   7  21
TORSDOF 5
