REMARK  Name = ZINC64541223
REMARK  10 active torsions:
REMARK  status: ('A' for Active; 'I' for Inactive)
REMARK    1  A    between atoms: C_1  and  C_2
REMARK    2  A    between atoms: C_2  and  C_4
REMARK    3  A    between atoms: C_2  and  C_23
REMARK    4  A    between atoms: C_10  and  C_12
REMARK    5  A    between atoms: N_25  and  C_26
REMARK    6  A    between atoms: C_26  and  C_27
REMARK    7  A    between atoms: C_27  and  N_28
REMARK    8  A    between atoms: N_28  and  C_29
REMARK    9  A    between atoms: N_28  and  C_30
REMARK   10  A    between atoms: C_30  and  C_31
REMARK                            x       y       z     vdW  Elec       q    Type
REMARK                         _______ _______ _______ _____ _____    ______ ____
ROOT
ATOM      1  C   UNL     1      -1.433  -0.534   0.013  0.00  0.00    +0.004 C 
ATOM      2  C   UNL     1      -1.412  -2.064   0.006  0.00  0.00    +0.023 C 
ATOM      3  C   UNL     1      -2.850  -2.591   0.052  0.00  0.00    +0.108 C 
ATOM      4  N   UNL     1      -3.608  -1.993  -1.055  0.00  0.00    -0.300 N 
ATOM      5  C   UNL     1      -3.620  -0.530  -1.195  0.00  0.00    +0.108 C 
ATOM      6  C   UNL     1      -2.173  -0.026  -1.227  0.00  0.00    +0.023 C 
ATOM      7  C   UNL     1      -4.280  -2.771  -1.927  0.00  0.00    +0.242 C 
ATOM      8  O   UNL     1      -4.263  -3.977  -1.801  0.00  0.00    -0.273 OA
ENDROOT
BRANCH   7   9
ATOM      9  C   UNL     1      -5.053  -2.143  -3.057  0.00  0.00    +0.190 C 
ATOM     10  C   UNL     1      -6.158  -1.267  -2.510  0.00  0.00    +0.016 C 
ATOM     11  C   UNL     1      -7.316  -1.791  -2.973  0.00  0.00    -0.002 A 
ATOM     12  C   UNL     1      -8.721  -1.405  -2.800  0.00  0.00    +0.029 A 
ATOM     13  C   UNL     1      -9.683  -2.143  -3.402  0.00  0.00    +0.042 A 
ATOM     14  C   UNL     1      -9.371  -3.264  -4.185  0.00  0.00    +0.022 A 
ATOM     15  C   UNL     1      -8.103  -3.680  -4.389  0.00  0.00    +0.027 A 
ATOM     16  C   UNL     1      -7.013  -2.979  -3.804  0.00  0.00    +0.043 A 
ATOM     17  N   UNL     1      -5.717  -3.180  -3.854  0.00  0.00    -0.370 N 
ATOM     18 CL   UNL     1     -11.347  -1.690  -3.199  0.00  0.00    -0.084 Cl
ATOM     19  H   UNL     1      -5.273  -3.895  -4.336  0.00  0.00    +0.161 HD
ENDBRANCH   7   9
BRANCH   1  21
ATOM     20  C   UNL     1      -0.019   1.526   0.010  0.00  0.00    +0.017 C 
ATOM     21  C   UNL     1       0.002  -0.004   0.002  0.00  0.00    +0.075 C 
BRANCH  21  22
ATOM     22  C   UNL     1       0.731  -0.503   1.223  0.00  0.00    +0.216 C 
ATOM     23  O   UNL     1       0.159  -1.213   2.023  0.00  0.00    -0.276 OA
ATOM     24  N   UNL     1       2.019  -0.161   1.426  0.00  0.00    -0.317 N 
ATOM     25  H   UNL     1       2.476   0.406   0.786  0.00  0.00    +0.149 HD
BRANCH  24  26
ATOM     26  C   UNL     1       2.727  -0.647   2.613  0.00  0.00    +0.085 C 
BRANCH  26  27
ATOM     27  C   UNL     1       4.163  -0.117   2.602  0.00  0.00    -0.060 C 
BRANCH  27  28
ATOM     28  N   UNL     1       4.873  -0.604   3.792  0.00  0.00    +0.382 N 
ATOM     29  C   UNL     1       4.998  -2.066   3.724  0.00  0.00    -0.096 C 
ATOM     30  H   UNL     1       4.356  -0.348   4.620  0.00  0.00    -0.082 HD
BRANCH  28  31
ATOM     31  C   UNL     1       6.211   0.000   3.844  0.00  0.00    -0.043 C 
BRANCH  31  32
ATOM     32  C   UNL     1       6.894  -0.402   5.126  0.00  0.00    -0.064 A 
ATOM     33  C   UNL     1       6.746   0.374   6.261  0.00  0.00    +0.002 A 
ATOM     34  C   UNL     1       7.372   0.006   7.437  0.00  0.00    +0.000 A 
ATOM     35  C   UNL     1       8.146  -1.139   7.478  0.00  0.00    +0.000 A 
ATOM     36  C   UNL     1       8.293  -1.916   6.344  0.00  0.00    +0.000 A 
ATOM     37  C   UNL     1       7.663  -1.550   5.170  0.00  0.00    +0.002 A 
ENDBRANCH  31  32
ENDBRANCH  28  31
ENDBRANCH  27  28
ENDBRANCH  26  27
ENDBRANCH  24  26
ENDBRANCH  21  22
ENDBRANCH   1  21
TORSDOF 8
