REMARK  Name = ZINC04660869
REMARK  7 active torsions:
REMARK  status: ('A' for Active; 'I' for Inactive)
REMARK    1  A    between atoms: C_1  and  C_2
REMARK    2  A    between atoms: C_4  and  C_24
REMARK    3  A    between atoms: C_5  and  S_9
REMARK    4  A    between atoms: C_7  and  C_8
REMARK    5  A    between atoms: S_9  and  N_12
REMARK    6  A    between atoms: N_12  and  C_13
REMARK    7  A    between atoms: C_16  and  O_23
REMARK                            x       y       z     vdW  Elec       q    Type
REMARK                         _______ _______ _______ _____ _____    ______ ____
ROOT
ATOM      1  N   UNL     1      -0.086   5.701   0.039  0.00  0.00    -0.216 N 
ATOM      2  H   UNL     1       0.495   6.267  -0.494  0.00  0.00    +0.174 HD
ENDROOT
BRANCH   1   3
ATOM      3  C   UNL     1       0.207   4.343   0.186  0.00  0.00    +0.056 A 
ATOM      4  C   UNL     1      -0.811   3.416   0.252  0.00  0.00    +0.029 A 
ATOM      5  C   UNL     1      -0.532   2.060   0.393  0.00  0.00    +0.048 A 
ATOM      6  C   UNL     1       0.755   1.611   0.482  0.00  0.00    +0.125 A 
ATOM      7  C   UNL     1       1.823   2.528   0.420  0.00  0.00    +0.025 A 
ATOM      8  C   UNL     1       1.547   3.910   0.270  0.00  0.00    +0.008 A 
ATOM      9  C   UNL     1       2.612   4.822   0.206  0.00  0.00    +0.010 A 
ATOM     10  C   UNL     1       3.894   4.369   0.290  0.00  0.00    +0.001 A 
ATOM     11  C   UNL     1       4.165   3.010   0.438  0.00  0.00    +0.001 A 
ATOM     12  C   UNL     1       3.157   2.097   0.502  0.00  0.00    +0.012 A 
BRANCH   6  13
ATOM     13  O   UNL     1       1.005   0.283   0.626  0.00  0.00    -0.506 OA
ATOM     14  H   UNL     1       1.051  -0.011   1.546  0.00  0.00    +0.292 HD
ENDBRANCH   6  13
ENDBRANCH   1   3
BRANCH   1  15
ATOM     15  S   UNL     1      -1.424   6.344   0.772  0.00  0.00    +0.073 S 
ATOM     16  O   UNL     1      -1.369   7.747   0.558  0.00  0.00    -0.150 OA
ATOM     17  O   UNL     1      -2.531   5.553   0.363  0.00  0.00    -0.150 OA
BRANCH  15  22
ATOM     18  C   UNL     1      -0.791   5.481   6.710  0.00  0.00    +0.044 C 
ATOM     19  C   UNL     1      -0.949   5.697   5.227  0.00  0.00    -0.047 A 
ATOM     20  C   UNL     1      -0.067   6.518   4.550  0.00  0.00    +0.009 A 
ATOM     21  C   UNL     1      -0.212   6.716   3.190  0.00  0.00    -0.024 A 
ATOM     22  C   UNL     1      -1.239   6.091   2.506  0.00  0.00    +0.112 A 
ATOM     23  C   UNL     1      -2.124   5.274   3.184  0.00  0.00    +0.032 A 
ATOM     24  C   UNL     1      -1.976   5.073   4.544  0.00  0.00    -0.046 A 
ATOM     25  C   UNL     1      -2.937   4.177   5.282  0.00  0.00    +0.044 C 
ATOM     26  C   UNL     1       0.749   7.611   2.452  0.00  0.00    +0.046 C 
ENDBRANCH  15  22
ENDBRANCH   1  15
TORSDOF 4
