REMARK  Name = ZINC60195700
REMARK  9 active torsions:
REMARK  status: ('A' for Active; 'I' for Inactive)
REMARK    1  A    between atoms: C_1  and  C_2
REMARK    2  A    between atoms: C_2  and  C_3
REMARK    3  A    between atoms: C_2  and  C_4
REMARK    4  A    between atoms: C_2  and  C_5
REMARK    5  A    between atoms: N_13  and  C_17
REMARK    6  A    between atoms: C_17  and  C_18
REMARK    7  A    between atoms: C_27  and  S_29
REMARK    8  A    between atoms: S_29  and  N_32
REMARK    9  A    between atoms: N_32  and  C_33
REMARK                            x       y       z     vdW  Elec       q    Type
REMARK                         _______ _______ _______ _____ _____    ______ ____
ROOT
ATOM      1  C   UNL     1       5.718  -3.932  -1.222  0.00  0.00    +0.214 C 
ENDROOT
BRANCH   1  10
ATOM      2  C   UNL     1       0.718  -0.497  -1.257  0.00  0.00    -0.005 C 
ATOM      3  C   UNL     1       0.738  -2.027  -1.265  0.00  0.00    +0.006 C 
ATOM      4  C   UNL     1       1.444  -2.520  -2.531  0.00  0.00    +0.035 C 
ATOM      5  C   UNL     1       2.868  -1.976  -2.567  0.00  0.00    +0.113 C 
ATOM      6  C   UNL     1       2.865  -0.452  -2.534  0.00  0.00    +0.035 C 
ATOM      7  C   UNL     1       2.154   0.032  -1.268  0.00  0.00    +0.006 C 
ATOM      8  C   UNL     1       3.673  -2.528  -1.413  0.00  0.00    +0.247 C 
ATOM      9  O   UNL     1       3.458  -2.379  -0.230  0.00  0.00    -0.273 OA
ATOM     10  N   UNL     1       4.683  -3.223  -1.978  0.00  0.00    -0.215 N 
ATOM     11  C   UNL     1       4.622  -3.182  -3.315  0.00  0.00    +0.310 C 
ATOM     12  O   UNL     1       5.422  -3.733  -4.045  0.00  0.00    -0.252 OA
ATOM     13  N   UNL     1       3.574  -2.462  -3.760  0.00  0.00    -0.285 N 
ATOM     14  H   UNL     1       3.333  -2.298  -4.685  0.00  0.00    +0.151 HD
BRANCH   2  16
ATOM     15  C   UNL     1      -0.019   1.526   0.010  0.00  0.00    +0.011 C 
ATOM     16  C   UNL     1       0.002  -0.004   0.002  0.00  0.00    -0.035 C 
ATOM     17  C   UNL     1       0.742  -0.511   1.242  0.00  0.00    +0.011 C 
ATOM     18  C   UNL     1      -1.433  -0.534   0.013  0.00  0.00    +0.011 C 
ENDBRANCH   2  16
ENDBRANCH   1  10
BRANCH   1  19
ATOM     19  C   UNL     1       5.269  -5.347  -0.961  0.00  0.00    +0.238 C 
ATOM     20  O   UNL     1       4.190  -5.725  -1.367  0.00  0.00    -0.274 OA
ATOM     21  N   UNL     1       6.065  -6.192  -0.277  0.00  0.00    -0.270 N 
ATOM     22  C   UNL     1       7.383  -5.849   0.266  0.00  0.00    +0.118 C 
ATOM     23  C   UNL     1       7.883  -7.133   0.950  0.00  0.00    +0.056 C 
ATOM     24  C   UNL     1       6.772  -8.136   0.733  0.00  0.00    -0.023 A 
ATOM     25  C   UNL     1       5.754  -7.521   0.023  0.00  0.00    +0.040 A 
ATOM     26  C   UNL     1       4.609  -8.255  -0.294  0.00  0.00    +0.026 A 
ATOM     27  C   UNL     1       4.496  -9.572   0.100  0.00  0.00    +0.030 A 
ATOM     28  C   UNL     1       5.516 -10.175   0.812  0.00  0.00    +0.106 A 
ATOM     29  C   UNL     1       6.657  -9.457   1.122  0.00  0.00    +0.034 A 
BRANCH  28  30
ATOM     30  S   UNL     1       5.368 -11.857   1.315  0.00  0.00    +0.058 S 
ATOM     31  O   UNL     1       6.223 -12.023   2.438  0.00  0.00    -0.153 OA
ATOM     32  O   UNL     1       3.977 -12.145   1.367  0.00  0.00    -0.153 OA
BRANCH  30  33
ATOM     33  N   UNL     1       5.999 -12.789   0.099  0.00  0.00    -0.193 NA
ATOM     34  C   UNL     1       7.424 -12.701  -0.226  0.00  0.00    +0.127 C 
ATOM     35  H   UNL     1       5.424 -13.392  -0.398  0.00  0.00    +0.148 HD
ENDBRANCH  30  33
ENDBRANCH  28  30
ENDBRANCH   1  19
TORSDOF 5
