REMARK  Name = ZINC66771910
REMARK  4 active torsions:
REMARK  status: ('A' for Active; 'I' for Inactive)
REMARK    1  A    between atoms: C_4  and  N_27
REMARK    2  A    between atoms: C_5  and  C_7
REMARK    3  A    between atoms: C_8  and  C_9
REMARK    4  A    between atoms: C_15  and  C_17
REMARK                            x       y       z     vdW  Elec       q    Type
REMARK                         _______ _______ _______ _____ _____    ______ ____
ROOT
ATOM      1  C   UNL     1       0.125  -4.224   0.945  0.00  0.00    +0.240 C 
ATOM      2  O   UNL     1       1.190  -4.807   1.030  0.00  0.00    -0.271 OA
ATOM      3  N   UNL     1      -1.029  -4.903   1.099  0.00  0.00    -0.291 N 
ATOM      4  C   UNL     1      -2.384  -4.326   1.015  0.00  0.00    +0.109 C 
ATOM      5  C   UNL     1      -3.299  -5.518   0.638  0.00  0.00    +0.021 C 
ATOM      6  C   UNL     1      -2.652  -6.675   1.443  0.00  0.00    +0.029 C 
ATOM      7  C   UNL     1      -1.147  -6.343   1.371  0.00  0.00    +0.110 C 
ENDROOT
BRANCH   7   8
ATOM      8  C   UNL     1      -0.489  -6.671   2.688  0.00  0.00    +0.018 A 
ATOM      9  C   UNL     1      -0.342  -5.688   3.649  0.00  0.00    +0.009 A 
ATOM     10  C   UNL     1       0.261  -5.985   4.857  0.00  0.00    +0.004 A 
ATOM     11  C   UNL     1       0.719  -7.265   5.107  0.00  0.00    +0.049 A 
ATOM     12  C   UNL     1       0.575  -8.255   4.147  0.00  0.00    +0.162 A 
ATOM     13  C   UNL     1      -0.038  -7.958   2.935  0.00  0.00    +0.167 A 
ATOM     14  O   UNL     1      -0.202  -8.918   1.984  0.00  0.00    -0.485 OA
ATOM     15  C   UNL     1       0.595 -10.100   2.119  0.00  0.00    +0.270 C 
ATOM     16  C   UNL     1       0.522 -10.564   3.580  0.00  0.00    +0.270 C 
ATOM     17  O   UNL     1       1.035  -9.509   4.406  0.00  0.00    -0.485 OA
ENDBRANCH   7   8
BRANCH   1  19
ATOM     18  C   UNL     1       1.251  -2.106   0.522  0.00  0.00    +0.015 C 
ATOM     19  C   UNL     1       0.097  -2.785   0.676  0.00  0.00    +0.068 C 
BRANCH  18  24
ATOM     20  C   UNL     1       0.036   1.429   0.217  0.00  0.00    +0.001 A 
ATOM     21  C   UNL     1       1.171   2.063  -0.260  0.00  0.00    +0.002 A 
ATOM     22  C   UNL     1       2.332   1.343  -0.482  0.00  0.00    +0.033 A 
ATOM     23  C   UNL     1       2.366  -0.013  -0.230  0.00  0.00    +0.133 A 
ATOM     24  C   UNL     1       1.224  -0.659   0.251  0.00  0.00    +0.005 A 
ATOM     25  C   UNL     1       0.054   0.075   0.474  0.00  0.00    +0.010 A 
BRANCH  23  26
ATOM     26  N   UNL     1       3.608  -0.781  -0.469  0.00  0.00    +0.057 N 
ATOM     27  O   UNL     1       4.683  -0.283  -0.226  0.00  0.00    -0.126 OA
ATOM     28  O   UNL     1       3.548  -1.906  -0.908  0.00  0.00    -0.126 OA
ENDBRANCH  23  26
ENDBRANCH  18  24
ENDBRANCH   1  19
TORSDOF 4
