REMARK  Name = ZINC08845561
REMARK  13 active torsions:
REMARK  status: ('A' for Active; 'I' for Inactive)
REMARK    1  A    between atoms: C_1  and  C_2
REMARK    2  A    between atoms: C_2  and  O_3
REMARK    3  A    between atoms: O_3  and  C_4
REMARK    4  A    between atoms: C_7  and  C_10
REMARK    5  A    between atoms: C_13  and  C_31
REMARK    6  A    between atoms: N_20  and  C_21
REMARK    7  A    between atoms: C_21  and  C_22
REMARK    8  A    between atoms: C_22  and  C_23
REMARK    9  A    between atoms: C_26  and  O_29
REMARK   10  A    between atoms: O_29  and  C_30
REMARK   11  A    between atoms: C_33  and  C_39
REMARK   12  A    between atoms: C_35  and  C_38
REMARK   13  A    between atoms: C_36  and  O_37
REMARK                            x       y       z     vdW  Elec       q    Type
REMARK                         _______ _______ _______ _____ _____    ______ ____
ROOT
ATOM      1  C   UNL     1      -2.225  -5.665   0.157  0.00  0.00    +0.141 C 
ATOM      2  C   UNL     1      -2.330  -6.409   1.460  0.00  0.00    +0.035 A 
ATOM      3  C   UNL     1      -1.744  -6.717   2.693  0.00  0.00    +0.102 A 
ATOM      4  N   UNL     1      -2.569  -7.525   3.330  0.00  0.00    -0.173 NA
ATOM      5  N   UNL     1      -3.617  -7.757   2.623  0.00  0.00    -0.272 N 
ATOM      6  H   UNL     1      -4.357  -8.323   2.892  0.00  0.00    +0.189 HD
ATOM      7  C   UNL     1      -3.534  -7.087   1.435  0.00  0.00    +0.126 A 
ATOM      8  C   UNL     1      -4.202  -6.804   0.160  0.00  0.00    +0.265 C 
ATOM      9  O   UNL     1      -5.283  -7.251  -0.171  0.00  0.00    -0.268 OA
ATOM     10  N   UNL     1      -3.449  -5.978  -0.591  0.00  0.00    -0.285 N 
ENDROOT
BRANCH   3  11
ATOM     11  C   UNL     1      -0.435  -6.226   3.191  0.00  0.00    +0.044 A 
ATOM     12  C   UNL     1       0.391  -5.473   2.361  0.00  0.00    +0.017 A 
ATOM     13  C   UNL     1       1.607  -5.019   2.829  0.00  0.00    -0.049 A 
ATOM     14  C   UNL     1       2.010  -5.309   4.120  0.00  0.00    +0.010 A 
ATOM     15  C   UNL     1       1.197  -6.056   4.952  0.00  0.00    -0.008 A 
ATOM     16  C   UNL     1      -0.029  -6.513   4.497  0.00  0.00    +0.129 A 
ATOM     17  C   UNL     1       1.643  -6.368   6.358  0.00  0.00    +0.047 C 
ATOM     18  C   UNL     1       2.501  -4.204   1.929  0.00  0.00    +0.044 C 
BRANCH  16  19
ATOM     19  O   UNL     1      -0.832  -7.242   5.316  0.00  0.00    -0.506 OA
ATOM     20  H   UNL     1      -0.678  -8.196   5.270  0.00  0.00    +0.292 HD
ENDBRANCH  16  19
ENDBRANCH   3  11
BRANCH   1  24
ATOM     21  C   UNL     1      -1.975  -1.461   0.878  0.00  0.00    +0.121 A 
ATOM     22  C   UNL     1      -3.154  -2.142   1.142  0.00  0.00    +0.046 A 
ATOM     23  C   UNL     1      -3.232  -3.501   0.907  0.00  0.00    +0.009 A 
ATOM     24  C   UNL     1      -2.137  -4.183   0.411  0.00  0.00    -0.022 A 
ATOM     25  C   UNL     1      -0.960  -3.506   0.148  0.00  0.00    +0.009 A 
ATOM     26  C   UNL     1      -0.878  -2.146   0.374  0.00  0.00    +0.046 A 
BRANCH  21  27
ATOM     27  O   UNL     1      -1.895  -0.123   1.107  0.00  0.00    -0.492 OA
BRANCH  27  29
ATOM     28  C   UNL     1      -2.785   2.009   1.817  0.00  0.00    +0.048 C 
ATOM     29  C   UNL     1      -3.063   0.516   1.626  0.00  0.00    +0.225 C 
ENDBRANCH  27  29
ENDBRANCH  21  27
ENDBRANCH   1  24
BRANCH  10  30
ATOM     30  C   UNL     1      -3.791  -5.477  -1.925  0.00  0.00    +0.114 C 
BRANCH  30  31
ATOM     31  C   UNL     1      -3.255  -6.442  -2.985  0.00  0.00    +0.054 C 
BRANCH  31  32
ATOM     32  C   UNL     1      -3.607  -5.926  -4.357  0.00  0.00    -0.046 A 
ATOM     33  C   UNL     1      -4.801  -6.297  -4.948  0.00  0.00    +0.007 A 
ATOM     34  C   UNL     1      -5.126  -5.826  -6.205  0.00  0.00    +0.046 A 
ATOM     35  C   UNL     1      -4.254  -4.981  -6.875  0.00  0.00    +0.120 A 
ATOM     36  C   UNL     1      -3.057  -4.610  -6.280  0.00  0.00    +0.046 A 
ATOM     37  C   UNL     1      -2.739  -5.079  -5.020  0.00  0.00    +0.007 A 
BRANCH  35  38
ATOM     38  O   UNL     1      -4.571  -4.517  -8.112  0.00  0.00    -0.495 OA
ATOM     39  C   UNL     1      -3.625  -3.651  -8.742  0.00  0.00    +0.277 C 
ENDBRANCH  35  38
ENDBRANCH  31  32
ENDBRANCH  30  31
ENDBRANCH  10  30
TORSDOF 9
