REMARK  Name = ZINC02277498
REMARK  4 active torsions:
REMARK  status: ('A' for Active; 'I' for Inactive)
REMARK    1  A    between atoms: C_8  and  S_10
REMARK    2  A    between atoms: S_10  and  C_11
REMARK    3  A    between atoms: C_11  and  C_12
REMARK    4  A    between atoms: N_14  and  N_15
REMARK                            x       y       z     vdW  Elec       q    Type
REMARK                         _______ _______ _______ _____ _____    ______ ____
ROOT
ATOM      1  C   UNL     1       5.389  -5.692  -0.080  0.00  0.00    +0.242 C 
ATOM      2  O   UNL     1       4.610  -6.621  -0.077  0.00  0.00    -0.273 OA
ATOM      3  N   UNL     1       6.717  -5.925  -0.094  0.00  0.00    -0.206 N 
ATOM      4  H   UNL     1       7.340  -5.182  -0.096  0.00  0.00    +0.177 HD
ENDROOT
BRANCH   3   5
ATOM      5  N   UNL     1       7.196  -7.242  -0.105  0.00  0.00    -0.175 NA
ATOM      6  C   UNL     1       8.487  -7.468  -0.119  0.00  0.00    +0.153 C 
ATOM      7  C   UNL     1       9.172  -8.782  -0.138  0.00  0.00    +0.029 A 
ATOM      8  C   UNL     1       8.713 -10.095  -0.147  0.00  0.00    +0.027 A 
ATOM      9  C   UNL     1       9.620 -11.137  -0.166  0.00  0.00    +0.019 A 
ATOM     10  C   UNL     1      10.980 -10.873  -0.175  0.00  0.00    +0.017 A 
ATOM     11  C   UNL     1      11.444  -9.573  -0.165  0.00  0.00    +0.025 A 
ATOM     12  C   UNL     1      10.546  -8.512  -0.147  0.00  0.00    +0.043 A 
ATOM     13  N   UNL     1      10.744  -7.135  -0.135  0.00  0.00    -0.280 N 
ATOM     14  C   UNL     1       9.576  -6.471  -0.125  0.00  0.00    +0.269 C 
ATOM     15  O   UNL     1       9.440  -5.261  -0.118  0.00  0.00    -0.268 OA
ATOM     16 BR   UNL     1       9.004 -12.925  -0.177  0.00  0.00    -0.050 Br
ATOM     17  H   UNL     1      11.615  -6.708  -0.138  0.00  0.00    +0.155 HD
ENDBRANCH   3   5
BRANCH   1  18
ATOM     18  C   UNL     1       4.873  -4.276  -0.067  0.00  0.00    +0.173 C 
BRANCH  18  19
ATOM     19  S   UNL     1       3.059  -4.293  -0.050  0.00  0.00    -0.089 S 
BRANCH  19  27
ATOM     20  C   UNL     1      -0.017   1.366   0.010  0.00  0.00    +0.002 A 
ATOM     21  C   UNL     1       1.156   2.107   0.002  0.00  0.00    +0.001 A 
ATOM     22  C   UNL     1       2.373   1.449  -0.013  0.00  0.00    +0.017 A 
ATOM     23  C   UNL     1       2.401   0.077  -0.021  0.00  0.00    +0.040 A 
ATOM     24  C   UNL     1       1.227  -0.710  -0.013  0.00  0.00    +0.079 A 
ATOM     25  C   UNL     1       0.002  -0.004   0.002  0.00  0.00    +0.029 A 
ATOM     26  N   UNL     1       1.419  -2.047  -0.023  0.00  0.00    -0.233 NA
ATOM     27  C   UNL     1       2.617  -2.588  -0.037  0.00  0.00    +0.136 A 
ATOM     28  S   UNL     1       3.683  -1.153  -0.039  0.00  0.00    -0.061 S 
ENDBRANCH  19  27
ENDBRANCH  18  19
ENDBRANCH   1  18
TORSDOF 4
