REMARK  Name = ZINC63818936
REMARK  7 active torsions:
REMARK  status: ('A' for Active; 'I' for Inactive)
REMARK    1  A    between atoms: C_1  and  O_2
REMARK    2  A    between atoms: O_2  and  C_3
REMARK    3  A    between atoms: C_6  and  N_9
REMARK    4  A    between atoms: C_10  and  C_26
REMARK    5  A    between atoms: C_14  and  S_15
REMARK    6  A    between atoms: S_15  and  C_16
REMARK    7  A    between atoms: C_16  and  C_17
REMARK                            x       y       z     vdW  Elec       q    Type
REMARK                         _______ _______ _______ _____ _____    ______ ____
ROOT
ATOM      1  N   UNL     1      -4.940  -2.572   0.011  0.00  0.00    -0.254 N 
ATOM      2  C   UNL     1      -5.120  -4.032  -0.061  0.00  0.00    +0.213 C 
ATOM      3  N   UNL     1      -6.580  -4.213   0.021  0.00  0.00    -0.242 N 
ATOM      4  N   UNL     1      -7.127  -2.929   0.130  0.00  0.00    -0.162 NA
ATOM      5  C   UNL     1      -6.209  -2.022   0.129  0.00  0.00    +0.180 C 
ATOM      6  H   UNL     1      -7.065  -5.053   0.004  0.00  0.00    +0.170 HD
ENDROOT
BRANCH   2   7
ATOM      7  C   UNL     1      -4.592  -4.566  -1.368  0.00  0.00    -0.008 A 
ATOM      8  C   UNL     1      -3.443  -4.029  -1.919  0.00  0.00    +0.008 A 
ATOM      9  C   UNL     1      -2.958  -4.518  -3.117  0.00  0.00    +0.020 A 
ATOM     10  C   UNL     1      -3.621  -5.545  -3.765  0.00  0.00    +0.041 A 
ATOM     11  C   UNL     1      -4.771  -6.082  -3.212  0.00  0.00    +0.020 A 
ATOM     12  C   UNL     1      -5.252  -5.596  -2.011  0.00  0.00    +0.008 A 
ATOM     13 CL   UNL     1      -3.012  -6.159  -5.270  0.00  0.00    -0.084 Cl
ENDBRANCH   2   7
BRANCH   1  17
ATOM     14  C   UNL     1      -1.325  -0.499  -0.099  0.00  0.00    +0.120 A 
ATOM     15  C   UNL     1      -1.561  -1.429   0.903  0.00  0.00    +0.047 A 
ATOM     16  C   UNL     1      -2.759  -2.116   0.941  0.00  0.00    +0.027 A 
ATOM     17  C   UNL     1      -3.727  -1.876  -0.026  0.00  0.00    +0.038 A 
ATOM     18  C   UNL     1      -3.490  -0.945  -1.029  0.00  0.00    +0.027 A 
ATOM     19  C   UNL     1      -2.294  -0.255  -1.061  0.00  0.00    +0.047 A 
BRANCH  14  21
ATOM     20  C   UNL     1       0.806  -0.125   0.887  0.00  0.00    +0.277 C 
ATOM     21  O   UNL     1      -0.146   0.177  -0.135  0.00  0.00    -0.495 OA
ENDBRANCH  14  21
ENDBRANCH   1  17
BRANCH   5  22
ATOM     22  S   UNL     1      -6.527  -0.294   0.257  0.00  0.00    -0.085 S 
BRANCH  22  23
ATOM     23  C   UNL     1      -8.334  -0.189   0.383  0.00  0.00    +0.124 C 
BRANCH  23  24
ATOM     24  C   UNL     1      -8.753   1.278   0.501  0.00  0.00    +0.184 C 
ATOM     25  N   UNL     1      -8.245   2.041  -0.646  0.00  0.00    -0.363 N 
ATOM     26  C   UNL     1      -7.453   2.963  -0.182  0.00  0.00    +0.060 A 
ATOM     27  C   UNL     1      -6.660   4.018  -0.829  0.00  0.00    +0.027 A 
ATOM     28  C   UNL     1      -5.915   4.848  -0.072  0.00  0.00    +0.002 A 
ATOM     29  C   UNL     1      -5.858   4.751   1.329  0.00  0.00    +0.002 A 
ATOM     30  C   UNL     1      -6.544   3.821   2.022  0.00  0.00    +0.027 A 
ATOM     31  C   UNL     1      -7.393   2.861   1.302  0.00  0.00    +0.060 A 
ATOM     32  N   UNL     1      -8.150   1.879   1.698  0.00  0.00    -0.363 N 
ATOM     33  H   UNL     1      -8.460   1.886  -1.579  0.00  0.00    +0.162 HD
ATOM     34  H   UNL     1      -8.291   1.596   2.615  0.00  0.00    +0.162 HD
ENDBRANCH  23  24
ENDBRANCH  22  23
ENDBRANCH   5  22
TORSDOF 6
