REMARK  Name = ZINC00989373
REMARK  12 active torsions:
REMARK  status: ('A' for Active; 'I' for Inactive)
REMARK    1  A    between atoms: C_1  and  O_2
REMARK    2  A    between atoms: O_2  and  C_3
REMARK    3  A    between atoms: C_3  and  C_5
REMARK    4  A    between atoms: C_5  and  C_6
REMARK    5  A    between atoms: C_7  and  C_32
REMARK    6  A    between atoms: C_18  and  C_22
REMARK    7  A    between atoms: C_19  and  N_21
REMARK    8  A    between atoms: C_22  and  O_24
REMARK    9  A    between atoms: O_24  and  C_25
REMARK   10  A    between atoms: C_25  and  C_26
REMARK   11  A    between atoms: C_32  and  O_34
REMARK   12  A    between atoms: O_34  and  C_35
REMARK                            x       y       z     vdW  Elec       q    Type
REMARK                         _______ _______ _______ _____ _____    ______ ____
ROOT
ATOM      1  C   UNL     1       1.049  -0.638   0.405  0.00  0.00    +0.129 C 
ATOM      2  C   UNL     1       2.285  -0.120   0.363  0.00  0.00    +0.099 C 
ATOM      3  C   UNL     1       2.509   1.299  -0.072  0.00  0.00    +0.145 C 
ATOM      4  C   UNL     1       3.107   1.339  -1.456  0.00  0.00    -0.002 A 
ATOM      5  C   UNL     1       2.664   0.902  -2.684  0.00  0.00    +0.007 A 
ATOM      6  C   UNL     1       3.452   1.083  -3.807  0.00  0.00    +0.000 A 
ATOM      7  C   UNL     1       4.683   1.701  -3.691  0.00  0.00    +0.002 A 
ATOM      8  C   UNL     1       5.130   2.140  -2.462  0.00  0.00    +0.023 A 
ATOM      9  C   UNL     1       4.342   1.963  -1.327  0.00  0.00    +0.038 A 
ATOM     10  N   UNL     1       4.568   2.314   0.005  0.00  0.00    -0.284 N 
ATOM     11  C   UNL     1       3.545   1.962   0.804  0.00  0.00    +0.237 C 
ATOM     12  O   UNL     1       3.468   2.143   2.001  0.00  0.00    -0.274 OA
ATOM     13  C   UNL     1       1.220   2.070  -0.035  0.00  0.00    +0.117 C 
ATOM     14  C   UNL     1       0.030   1.415   0.032  0.00  0.00    +0.195 C 
ATOM     15  O   UNL     1      -0.035   0.073   0.063  0.00  0.00    -0.445 OA
ATOM     16  H   UNL     1       5.370   2.760   0.319  0.00  0.00    +0.155 HD
ENDROOT
BRANCH  14  17
ATOM     17  N   UNL     1      -1.131   2.141   0.063  0.00  0.00    -0.329 N 
ATOM     18  H   UNL     1      -1.987   1.687   0.028  0.00  0.00    +0.145 HD
ATOM     19  H   UNL     1      -1.096   3.108   0.120  0.00  0.00    +0.145 HD
ENDBRANCH  14  17
BRANCH  13  20
ATOM     20  C   UNL     1       1.244   3.472  -0.070  0.00  0.00    +0.342 C 
ATOM     21  O   UNL     1       1.411   4.052  -1.128  0.00  0.00    -0.245 OA
BRANCH  20  22
ATOM     22  O   UNL     1       1.083   4.179   1.069  0.00  0.00    -0.456 OA
BRANCH  22  23
ATOM     23  C   UNL     1       1.118   5.604   0.960  0.00  0.00    +0.268 C 
BRANCH  23  24
ATOM     24  C   UNL     1       0.922   6.217   2.322  0.00  0.00    -0.010 A 
ATOM     25  C   UNL     1      -0.351   6.520   2.767  0.00  0.00    +0.007 A 
ATOM     26  C   UNL     1      -0.532   7.079   4.018  0.00  0.00    +0.000 A 
ATOM     27  C   UNL     1       0.562   7.344   4.821  0.00  0.00    +0.000 A 
ATOM     28  C   UNL     1       1.836   7.046   4.374  0.00  0.00    +0.000 A 
ATOM     29  C   UNL     1       2.016   6.483   3.124  0.00  0.00    +0.007 A 
ENDBRANCH  23  24
ENDBRANCH  22  23
ENDBRANCH  20  22
ENDBRANCH  13  20
BRANCH   2  30
ATOM     30  C   UNL     1       3.392  -0.922   0.734  0.00  0.00    +0.340 C 
ATOM     31  O   UNL     1       3.235  -2.104   0.972  0.00  0.00    -0.245 OA
BRANCH  30  32
ATOM     32  O   UNL     1       4.622  -0.374   0.822  0.00  0.00    -0.465 OA
ATOM     33  C   UNL     1       5.693  -1.241   1.201  0.00  0.00    +0.280 C 
ENDBRANCH  30  32
ENDBRANCH   2  30
BRANCH   1  34
ATOM     34  C   UNL     1       0.872  -2.066   0.850  0.00  0.00    +0.195 C 
BRANCH  34  35
ATOM     35  C   UNL     1       1.104  -2.989  -0.318  0.00  0.00    +0.314 C 
ATOM     36  O   UNL     1       1.384  -2.534  -1.402  0.00  0.00    -0.250 OA
BRANCH  35  38
ATOM     37  C   UNL     1       1.236  -5.146  -1.325  0.00  0.00    +0.280 C 
ATOM     38  O   UNL     1       1.000  -4.318  -0.155  0.00  0.00    -0.468 OA
ENDBRANCH  35  38
ENDBRANCH  34  35
ENDBRANCH   1  34
TORSDOF 10
