REMARK  Name = ZINC09206577
REMARK  10 active torsions:
REMARK  status: ('A' for Active; 'I' for Inactive)
REMARK    1  A    between atoms: C_1  and  C_2
REMARK    2  A    between atoms: C_2  and  C_3
REMARK    3  A    between atoms: C_3  and  C_5
REMARK    4  A    between atoms: C_3  and  N_6
REMARK    5  A    between atoms: N_6  and  S_7
REMARK    6  A    between atoms: S_7  and  C_10
REMARK    7  A    between atoms: C_13  and  N_16
REMARK    8  A    between atoms: N_16  and  C_17
REMARK    9  A    between atoms: C_17  and  N_19
REMARK   10  A    between atoms: C_20  and  C_22
REMARK                            x       y       z     vdW  Elec       q    Type
REMARK                         _______ _______ _______ _____ _____    ______ ____
ROOT
ATOM      1  N   UNL     1      -1.197   2.366   0.021  0.00  0.00    -0.297 N 
ATOM      2  H   UNL     1      -0.470   2.127  -0.575  0.00  0.00    +0.154 HD
ENDROOT
BRANCH   1   6
ATOM      3  C   UNL     1      -4.624   0.002   0.175  0.00  0.00    +0.105 A 
ATOM      4  C   UNL     1      -4.738   1.379   0.107  0.00  0.00    +0.030 A 
ATOM      5  C   UNL     1      -3.604   2.165   0.056  0.00  0.00    +0.025 A 
ATOM      6  C   UNL     1      -2.348   1.572   0.072  0.00  0.00    +0.033 A 
ATOM      7  C   UNL     1      -2.237   0.189   0.135  0.00  0.00    +0.025 A 
ATOM      8  C   UNL     1      -3.376  -0.591   0.192  0.00  0.00    +0.030 A 
BRANCH   3   9
ATOM      9  S   UNL     1      -6.074  -0.997   0.241  0.00  0.00    +0.059 S 
ATOM     10  O   UNL     1      -5.694  -2.224   0.850  0.00  0.00    -0.153 OA
ATOM     11  O   UNL     1      -7.110  -0.176   0.763  0.00  0.00    -0.153 OA
BRANCH   9  12
ATOM     12  N   UNL     1      -6.494  -1.354  -1.320  0.00  0.00    -0.187 NA
ATOM     13  H   UNL     1      -7.328  -1.020  -1.687  0.00  0.00    +0.148 HD
BRANCH  12  14
ATOM     14  C   UNL     1      -5.606  -2.175  -2.148  0.00  0.00    +0.073 C 
ATOM     15  C   UNL     1      -6.052  -3.637  -2.080  0.00  0.00    +0.025 C 
BRANCH  14  17
ATOM     16  C   UNL     1      -5.106  -0.270  -3.685  0.00  0.00    +0.005 C 
ATOM     17  C   UNL     1      -5.669  -1.690  -3.598  0.00  0.00    +0.017 C 
ENDBRANCH  14  17
ENDBRANCH  12  14
ENDBRANCH   9  12
ENDBRANCH   3   9
ENDBRANCH   1   6
BRANCH   1  18
ATOM     18  C   UNL     1      -1.099   3.462   0.798  0.00  0.00    +0.141 C 
ATOM     19  S   UNL     1      -2.425   3.945   1.768  0.00  0.00    -0.018 S 
BRANCH  18  20
ATOM     20  N   UNL     1       0.044   4.176   0.816  0.00  0.00    -0.264 N 
ATOM     21  C   UNL     1       0.144   5.270   1.597  0.00  0.00    +0.251 C 
ATOM     22  O   UNL     1      -0.797   5.612   2.285  0.00  0.00    -0.270 OA
ATOM     23  H   UNL     1       0.795   3.902   0.266  0.00  0.00    +0.157 HD
BRANCH  21  24
ATOM     24  C   UNL     1       1.396   6.051   1.616  0.00  0.00    +0.055 A 
ATOM     25  C   UNL     1       2.479   5.660   0.826  0.00  0.00    +0.016 A 
ATOM     26  C   UNL     1       3.646   6.393   0.849  0.00  0.00    +0.021 A 
ATOM     27  C   UNL     1       3.747   7.518   1.653  0.00  0.00    +0.042 A 
ATOM     28  C   UNL     1       2.677   7.912   2.439  0.00  0.00    +0.040 A 
ATOM     29  C   UNL     1       1.501   7.189   2.421  0.00  0.00    +0.054 A 
ATOM     30 CL   UNL     1       0.158   7.689   3.401  0.00  0.00    -0.083 Cl
ATOM     31 CL   UNL     1       5.220   8.435   1.675  0.00  0.00    -0.083 Cl
ENDBRANCH  21  24
ENDBRANCH  18  20
ENDBRANCH   1  18
TORSDOF 8
