REMARK  Name = ZINC54752216
REMARK  5 active torsions:
REMARK  status: ('A' for Active; 'I' for Inactive)
REMARK    1  A    between atoms: C_1  and  C_2
REMARK    2  A    between atoms: C_2  and  C_3
REMARK    3  A    between atoms: C_4  and  C_24
REMARK    4  A    between atoms: C_12  and  C_14
REMARK    5  A    between atoms: C_14  and  C_15
REMARK                            x       y       z     vdW  Elec       q    Type
REMARK                         _______ _______ _______ _____ _____    ______ ____
ROOT
ATOM      1  C   UNL     1       0.707  -0.490  -1.238  0.00  0.00    -0.023 A 
ATOM      2  C   UNL     1       0.018  -0.714  -2.368  0.00  0.00    -0.007 A 
ATOM      3  S   UNL     1       1.270  -1.261  -3.514  0.00  0.00    -0.073 S 
ATOM      4  C   UNL     1       2.681  -1.173  -2.442  0.00  0.00    +0.116 A 
ATOM      5  C   UNL     1       2.141  -0.715  -1.226  0.00  0.00    +0.075 A 
ATOM      6  C   UNL     1       3.079  -0.544  -0.157  0.00  0.00    +0.260 A 
ATOM      7  O   UNL     1       2.708  -0.156   0.937  0.00  0.00    -0.267 OA
ATOM      8  N   UNL     1       4.378  -0.819  -0.380  0.00  0.00    -0.310 N 
ATOM      9  H   UNL     1       5.018  -0.705   0.340  0.00  0.00    +0.170 HD
ATOM     10  C   UNL     1       4.810  -1.253  -1.592  0.00  0.00    +0.120 A 
ATOM     11  N   UNL     1       3.978  -1.427  -2.583  0.00  0.00    -0.226 NA
ATOM     12  C   UNL     1      -1.460  -0.545  -2.610  0.00  0.00    +0.052 C 
ENDROOT
BRANCH   1  14
ATOM     13  C   UNL     1      -0.019   1.526   0.010  0.00  0.00    +0.009 C 
ATOM     14  C   UNL     1       0.002  -0.004   0.002  0.00  0.00    +0.033 C 
ENDBRANCH   1  14
BRANCH  10  15
ATOM     15  C   UNL     1       6.274  -1.548  -1.793  0.00  0.00    +0.170 C 
BRANCH  15  16
ATOM     16  C   UNL     1       6.503  -2.011  -3.209  0.00  0.00    +0.204 A 
ATOM     17  N   UNL     1       6.783  -1.230  -4.209  0.00  0.00    -0.213 NA
ATOM     18  C   UNL     1       6.924  -1.988  -5.331  0.00  0.00    +0.110 A 
ATOM     19  C   UNL     1       7.218  -1.695  -6.663  0.00  0.00    +0.031 A 
ATOM     20  C   UNL     1       7.291  -2.715  -7.586  0.00  0.00    +0.002 A 
ATOM     21  C   UNL     1       7.074  -4.029  -7.199  0.00  0.00    +0.004 A 
ATOM     22  C   UNL     1       6.783  -4.333  -5.886  0.00  0.00    +0.048 A 
ATOM     23  C   UNL     1       6.706  -3.318  -4.943  0.00  0.00    +0.155 A 
ATOM     24  O   UNL     1       6.453  -3.289  -3.616  0.00  0.00    -0.439 OA
ENDBRANCH  15  16
ENDBRANCH  10  15
TORSDOF 3
