REMARK  Name = ZINC23431043
REMARK  5 active torsions:
REMARK  status: ('A' for Active; 'I' for Inactive)
REMARK    1  A    between atoms: C_1  and  C_2
REMARK    2  A    between atoms: N_9  and  C_10
REMARK    3  A    between atoms: C_10  and  C_11
REMARK    4  A    between atoms: C_15  and  C_17
REMARK    5  A    between atoms: C_23  and  C_25
REMARK                            x       y       z     vdW  Elec       q    Type
REMARK                         _______ _______ _______ _____ _____    ______ ____
ROOT
ATOM      1  C   UNL     1       2.402   0.016  -0.020  0.00  0.00    -0.063 A 
ATOM      2  C   UNL     1       1.208  -0.682  -0.013  0.00  0.00    +0.002 A 
ATOM      3  C   UNL     1       0.002  -0.004   0.002  0.00  0.00    +0.001 A 
ATOM      4  C   UNL     1      -0.017   1.375   0.010  0.00  0.00    +0.011 A 
ATOM      5  C   UNL     1       1.185   2.087   0.002  0.00  0.00    +0.018 A 
ATOM      6  C   UNL     1       2.398   1.395  -0.013  0.00  0.00    +0.013 A 
ENDROOT
BRANCH   5   7
ATOM      7  C   UNL     1       1.172   3.564   0.011  0.00  0.00    +0.141 A 
ATOM      8  N   UNL     1      -0.022   4.221   0.020  0.00  0.00    -0.307 N 
ATOM      9  H   UNL     1      -0.963   3.651   0.018  0.00  0.00    +0.170 HD
ATOM     10  C   UNL     1      -0.053   5.570   0.033  0.00  0.00    +0.252 A 
ATOM     11  O   UNL     1      -1.118   6.167   0.046  0.00  0.00    -0.268 OA
ATOM     12  C   UNL     1       1.162   6.276   0.025  0.00  0.00    +0.098 A 
ATOM     13  C   UNL     1       2.348   5.557   0.010  0.00  0.00    +0.078 A 
ATOM     14  N   UNL     1       2.313   4.217   0.003  0.00  0.00    -0.229 NA
BRANCH  13  15
ATOM     15  C   UNL     1       3.647   6.268   0.002  0.00  0.00    +0.001 A 
ATOM     16  C   UNL     1       3.683   7.662   0.003  0.00  0.00    +0.013 A 
ATOM     17  C   UNL     1       4.895   8.319   0.000  0.00  0.00    +0.039 A 
ATOM     18  C   UNL     1       6.077   7.596  -0.015  0.00  0.00    +0.123 A 
ATOM     19  C   UNL     1       6.048   6.210  -0.021  0.00  0.00    +0.039 A 
ATOM     20  C   UNL     1       4.840   5.544  -0.013  0.00  0.00    +0.013 A 
ATOM     21  F   UNL     1       7.263   8.244  -0.023  0.00  0.00    -0.205 F 
ENDBRANCH  13  15
ENDBRANCH   5   7
BRANCH   1  22
ATOM     22  C   UNL     1       3.710  -0.731  -0.037  0.00  0.00    -0.042 C 
BRANCH  22  30
ATOM     23  C   UNL     1       5.551  -2.871  -0.858  0.00  0.00    -0.004 C 
ATOM     24  C   UNL     1       5.498  -1.478  -1.489  0.00  0.00    +0.017 C 
ATOM     25  C   UNL     1       5.950  -1.564  -2.920  0.00  0.00    +0.199 C 
ATOM     26  O   UNL     1       6.917  -2.247  -3.183  0.00  0.00    -0.278 OA
ATOM     27  N   UNL     1       5.332  -0.918  -3.913  0.00  0.00    -0.318 N 
ATOM     28  C   UNL     1       4.140  -0.100  -3.708  0.00  0.00    +0.085 C 
ATOM     29  C   UNL     1       4.002   0.263  -2.228  0.00  0.00    -0.058 C 
ATOM     30  N   UNL     1       4.123  -0.966  -1.427  0.00  0.00    +0.391 N 
ATOM     31  H   UNL     1       5.759  -1.024  -4.922  0.00  0.00    +0.149 HD
ATOM     32  H   UNL     1       3.449  -1.727  -1.849  0.00  0.00    -0.080 HD
ENDBRANCH  22  30
ENDBRANCH   1  22
TORSDOF 4
