REMARK  Name = ZINC36309706
REMARK  12 active torsions:
REMARK  status: ('A' for Active; 'I' for Inactive)
REMARK    1  A    between atoms: C_2  and  C_3
REMARK    2  A    between atoms: C_3  and  N_4
REMARK    3  A    between atoms: N_4  and  C_5
REMARK    4  A    between atoms: N_4  and  C_16
REMARK    5  A    between atoms: C_5  and  C_6
REMARK    6  A    between atoms: C_6  and  C_8
REMARK    7  A    between atoms: C_6  and  O_15
REMARK    8  A    between atoms: C_8  and  C_9
REMARK    9  A    between atoms: C_16  and  C_17
REMARK   10  A    between atoms: C_27  and  C_29
REMARK   11  A    between atoms: C_29  and  O_30
REMARK   12  A    between atoms: O_30  and  C_31
REMARK                            x       y       z     vdW  Elec       q    Type
REMARK                         _______ _______ _______ _____ _____    ______ ____
ROOT
ATOM      1  C   UNL     1      -3.700  -1.070  -1.621  0.00  0.00    +0.200 C 
ATOM      2  O   UNL     1      -3.327   0.084  -1.605  0.00  0.00    -0.278 OA
ATOM      3  N   UNL     1      -4.999  -1.355  -1.837  0.00  0.00    -0.292 N 
ATOM      4  C   UNL     1      -5.464  -2.750  -1.854  0.00  0.00    +0.113 C 
ATOM      5  C   UNL     1      -6.425  -2.953  -0.672  0.00  0.00    +0.061 C 
ATOM      6  C   UNL     1      -7.340  -1.774  -0.592  0.00  0.00    -0.004 A 
ATOM      7  C   UNL     1      -7.189  -0.557  -1.181  0.00  0.00    -0.014 A 
ATOM      8  C   UNL     1      -8.190   0.383  -0.941  0.00  0.00    +0.013 A 
ATOM      9  C   UNL     1      -9.246   0.062  -0.159  0.00  0.00    +0.046 A 
ATOM     10  S   UNL     1      -8.873  -1.627   0.288  0.00  0.00    -0.101 S 
ATOM     11  C   UNL     1      -5.973  -0.276  -2.054  0.00  0.00    +0.144 C 
ENDROOT
BRANCH   1  12
ATOM     12  C   UNL     1      -2.711  -2.185  -1.401  0.00  0.00    +0.019 C 
BRANCH  12  13
ATOM     13  N   UNL     1      -1.372  -1.618  -1.190  0.00  0.00    +0.389 N 
ATOM     14  H   UNL     1      -1.135  -1.018  -1.965  0.00  0.00    -0.081 HD
BRANCH  13  15
ATOM     15  C   UNL     1      -1.362  -0.837   0.055  0.00  0.00    -0.051 C 
BRANCH  15  17
ATOM     16  C   UNL     1       0.007   1.163   0.352  0.00  0.00    +0.002 C 
ATOM     17  C   UNL     1      -0.035  -0.137   0.197  0.00  0.00    -0.053 C 
ENDBRANCH  15  17
ENDBRANCH  13  15
BRANCH  13  18
ATOM     18  C   UNL     1      -0.389  -2.705  -1.094  0.00  0.00    -0.046 C 
BRANCH  18  19
ATOM     19  C   UNL     1      -0.294  -3.427  -2.439  0.00  0.00    +0.102 C 
BRANCH  19  20
ATOM     20  O   UNL     1       0.122  -2.503  -3.447  0.00  0.00    -0.393 OA
ATOM     21  H   UNL     1       1.015  -2.155  -3.318  0.00  0.00    +0.210 HD
ENDBRANCH  19  20
BRANCH  19  22
ATOM     22  C   UNL     1       0.726  -4.563  -2.338  0.00  0.00    +0.064 C 
BRANCH  22  23
ATOM     23  C   UNL     1       0.731  -5.350  -3.623  0.00  0.00    -0.045 A 
ATOM     24  C   UNL     1      -0.119  -6.429  -3.775  0.00  0.00    +0.004 A 
ATOM     25  C   UNL     1      -0.115  -7.151  -4.954  0.00  0.00    +0.000 A 
ATOM     26  C   UNL     1       0.739  -6.794  -5.980  0.00  0.00    +0.000 A 
ATOM     27  C   UNL     1       1.589  -5.714  -5.828  0.00  0.00    +0.000 A 
ATOM     28  C   UNL     1       1.581  -4.989  -4.651  0.00  0.00    +0.004 A 
ENDBRANCH  22  23
ENDBRANCH  19  22
ENDBRANCH  18  19
ENDBRANCH  13  18
ENDBRANCH  12  13
ENDBRANCH   1  12
BRANCH  11  29
ATOM     29  C   UNL     1      -6.392  -0.244  -3.525  0.00  0.00    +0.256 C 
BRANCH  29  30
ATOM     30  O   UNL     1      -7.090  -1.448  -3.848  0.00  0.00    -0.490 OA
BRANCH  30  31
ATOM     31  C   UNL     1      -7.534  -1.580  -5.125  0.00  0.00    +0.123 A 
ATOM     32  C   UNL     1      -7.298  -0.574  -6.051  0.00  0.00    +0.046 A 
ATOM     33  C   UNL     1      -7.749  -0.709  -7.349  0.00  0.00    +0.006 A 
ATOM     34  C   UNL     1      -8.437  -1.847  -7.728  0.00  0.00    +0.038 A 
ATOM     35  C   UNL     1      -8.675  -2.853  -6.808  0.00  0.00    +0.127 A 
ATOM     36  C   UNL     1      -8.219  -2.724  -5.508  0.00  0.00    +0.084 A 
ATOM     37  F   UNL     1      -9.348  -3.964  -7.180  0.00  0.00    -0.205 F 
ENDBRANCH  30  31
ENDBRANCH  29  30
ENDBRANCH  11  29
TORSDOF 12
