REMARK  Name = ZINC01201199
REMARK  8 active torsions:
REMARK  status: ('A' for Active; 'I' for Inactive)
REMARK    1  A    between atoms: C_1  and  C_2
REMARK    2  A    between atoms: C_3  and  C_31
REMARK    3  A    between atoms: C_4  and  C_21
REMARK    4  A    between atoms: C_10  and  C_15
REMARK    5  A    between atoms: C_31  and  O_33
REMARK    6  A    between atoms: O_33  and  C_34
REMARK    7  A    between atoms: C_34  and  C_35
REMARK    8  A    between atoms: C_34  and  C_36
REMARK                            x       y       z     vdW  Elec       q    Type
REMARK                         _______ _______ _______ _____ _____    ______ ____
ROOT
ATOM      1  C   UNL     1       3.365   2.508  -0.761  0.00  0.00    +0.061 C 
ATOM      2  C   UNL     1       2.266   1.555  -0.371  0.00  0.00    +0.016 C 
ATOM      3  C   UNL     1       2.472   0.229  -0.451  0.00  0.00    +0.065 C 
ATOM      4  C   UNL     1       1.403  -0.750  -0.064  0.00  0.00    +0.094 C 
ATOM      5  C   UNL     1       0.050  -0.086  -0.022  0.00  0.00    +0.024 C 
ATOM      6  C   UNL     1      -0.056   1.258   0.045  0.00  0.00    +0.016 C 
ATOM      7  N   UNL     1       1.065   2.044   0.063  0.00  0.00    -0.321 N 
ATOM      8  C   UNL     1      -1.406   1.929   0.108  0.00  0.00    +0.059 C 
ATOM      9  C   UNL     1      -2.432   1.088  -0.657  0.00  0.00    +0.032 C 
ATOM     10  C   UNL     1      -2.476  -0.310  -0.032  0.00  0.00    +0.088 C 
ATOM     11  C   UNL     1      -1.093  -0.903  -0.058  0.00  0.00    +0.162 C 
ATOM     12  O   UNL     1      -0.963  -2.110  -0.110  0.00  0.00    -0.292 OA
ATOM     13  H   UNL     1       0.993   3.078   0.430  0.00  0.00    +0.152 HD
ENDROOT
BRANCH   4  14
ATOM     14  C   UNL     1       1.719  -1.315   1.297  0.00  0.00    -0.013 A 
ATOM     15  C   UNL     1       1.792  -0.475   2.393  0.00  0.00    +0.055 A 
ATOM     16  C   UNL     1       2.078  -0.993   3.645  0.00  0.00    +0.167 A 
ATOM     17  C   UNL     1       2.301  -2.360   3.796  0.00  0.00    +0.168 A 
ATOM     18  C   UNL     1       2.231  -3.195   2.694  0.00  0.00    +0.069 A 
ATOM     19  C   UNL     1       1.940  -2.672   1.446  0.00  0.00    +0.049 A 
ATOM     20 CL   UNL     1       1.854  -3.722   0.066  0.00  0.00    -0.083 Cl
ATOM     21  O   UNL     1       2.566  -2.616   5.111  0.00  0.00    -0.453 OA
ATOM     22  C   UNL     1       2.101  -1.458   5.829  0.00  0.00    +0.466 C 
ATOM     23  O   UNL     1       2.203  -0.393   4.865  0.00  0.00    -0.453 OA
ENDBRANCH   4  14
BRANCH   9  24
ATOM     24  C   UNL     1      -3.791   1.731  -0.555  0.00  0.00    -0.044 A 
ATOM     25  C   UNL     1      -4.367   1.936   0.685  0.00  0.00    +0.004 A 
ATOM     26  C   UNL     1      -5.612   2.530   0.779  0.00  0.00    +0.000 A 
ATOM     27  C   UNL     1      -6.284   2.911  -0.367  0.00  0.00    +0.000 A 
ATOM     28  C   UNL     1      -5.710   2.702  -1.607  0.00  0.00    +0.000 A 
ATOM     29  C   UNL     1      -4.463   2.112  -1.701  0.00  0.00    +0.004 A 
ENDBRANCH   9  24
BRANCH   3  30
ATOM     30  C   UNL     1       3.721  -0.252  -0.909  0.00  0.00    +0.338 C 
ATOM     31  O   UNL     1       4.558   0.527  -1.324  0.00  0.00    -0.245 OA
BRANCH  30  32
ATOM     32  O   UNL     1       3.984  -1.576  -0.884  0.00  0.00    -0.459 OA
BRANCH  32  33
ATOM     33  C   UNL     1       5.265  -1.991  -1.362  0.00  0.00    +0.171 C 
ATOM     34  C   UNL     1       5.695  -3.264  -0.629  0.00  0.00    +0.052 C 
ATOM     35  C   UNL     1       5.184  -2.271  -2.864  0.00  0.00    +0.052 C 
ENDBRANCH  32  33
ENDBRANCH  30  32
ENDBRANCH   3  30
TORSDOF 5
