REMARK  Name = ZINC32655178
REMARK  10 active torsions:
REMARK  status: ('A' for Active; 'I' for Inactive)
REMARK    1  A    between atoms: C_1  and  C_2
REMARK    2  A    between atoms: C_2  and  C_38
REMARK    3  A    between atoms: C_6  and  C_25
REMARK    4  A    between atoms: C_13  and  S_17
REMARK    5  A    between atoms: S_17  and  C_18
REMARK    6  A    between atoms: C_18  and  C_19
REMARK    7  A    between atoms: C_29  and  O_33
REMARK    8  A    between atoms: C_30  and  O_31
REMARK    9  A    between atoms: O_31  and  C_32
REMARK   10  A    between atoms: O_33  and  C_34
REMARK                            x       y       z     vdW  Elec       q    Type
REMARK                         _______ _______ _______ _____ _____    ______ ____
ROOT
ATOM      1  C   UNL     1       8.796  -5.838   3.418  0.00  0.00    +0.011 C 
ATOM      2  C   UNL     1       9.459  -4.521   3.830  0.00  0.00    -0.023 C 
ATOM      3  C   UNL     1       8.638  -3.344   3.300  0.00  0.00    +0.058 C 
ATOM      4  C   UNL     1       8.590  -3.397   1.792  0.00  0.00    +0.017 C 
ATOM      5  C   UNL     1       9.614  -3.917   1.083  0.00  0.00    +0.024 C 
ATOM      6  C   UNL     1       9.575  -3.970  -0.424  0.00  0.00    +0.096 C 
ATOM      7  C   UNL     1       8.537  -3.038  -0.976  0.00  0.00    +0.069 A 
ATOM      8  C   UNL     1       8.572  -2.659  -2.323  0.00  0.00    +0.258 A 
ATOM      9  O   UNL     1       9.448  -3.076  -3.064  0.00  0.00    -0.267 OA
ATOM     10  N   UNL     1       7.620  -1.822  -2.787  0.00  0.00    -0.302 N 
ATOM     11  H   UNL     1       7.630  -1.508  -3.841  0.00  0.00    +0.171 HD
ATOM     12  C   UNL     1       6.645  -1.366  -1.952  0.00  0.00    +0.171 A 
ATOM     13  N   UNL     1       6.610  -1.717  -0.682  0.00  0.00    -0.208 NA
ATOM     14  C   UNL     1       7.528  -2.542  -0.169  0.00  0.00    +0.135 A 
ATOM     15  N   UNL     1       7.481  -2.899   1.164  0.00  0.00    -0.302 N 
ATOM     16  C   UNL     1      10.754  -4.431   1.727  0.00  0.00    +0.162 C 
ATOM     17  O   UNL     1      11.666  -4.875   1.059  0.00  0.00    -0.292 OA
ATOM     18  C   UNL     1      10.865  -4.441   3.227  0.00  0.00    +0.086 C 
ATOM     19  C   UNL     1       9.547  -4.444   5.355  0.00  0.00    +0.011 C 
ATOM     20  H   UNL     1       6.540  -2.781   1.722  0.00  0.00    +0.153 HD
ENDROOT
BRANCH   6  21
ATOM     21  C   UNL     1       9.256  -5.377  -0.859  0.00  0.00    +0.010 A 
ATOM     22  C   UNL     1      10.136  -6.064  -1.675  0.00  0.00    +0.008 A 
ATOM     23  C   UNL     1       9.850  -7.357  -2.072  0.00  0.00    +0.004 A 
ATOM     24  C   UNL     1       8.677  -7.965  -1.664  0.00  0.00    +0.049 A 
ATOM     25  C   UNL     1       7.788  -7.280  -0.852  0.00  0.00    +0.162 A 
ATOM     26  C   UNL     1       8.079  -5.980  -0.447  0.00  0.00    +0.166 A 
BRANCH  26  27
ATOM     27  O   UNL     1       7.210  -5.304   0.351  0.00  0.00    -0.491 OA
ATOM     28  C   UNL     1       6.023  -4.800  -0.264  0.00  0.00    +0.277 C 
ENDBRANCH  26  27
BRANCH  25  29
ATOM     29  O   UNL     1       6.634  -7.876  -0.449  0.00  0.00    -0.491 OA
ATOM     30  C   UNL     1       6.401  -9.211  -0.903  0.00  0.00    +0.277 C 
ENDBRANCH  25  29
ENDBRANCH   6  21
BRANCH  12  31
ATOM     31  S   UNL     1       5.409  -0.280  -2.582  0.00  0.00    -0.083 S 
BRANCH  31  32
ATOM     32  C   UNL     1       4.427  -0.019  -1.083  0.00  0.00    +0.112 C 
BRANCH  32  33
ATOM     33  C   UNL     1       3.279   0.907  -1.390  0.00  0.00    -0.037 A 
ATOM     34  C   UNL     1       2.069   0.390  -1.815  0.00  0.00    +0.004 A 
ATOM     35  C   UNL     1       1.015   1.240  -2.096  0.00  0.00    +0.000 A 
ATOM     36  C   UNL     1       1.171   2.606  -1.953  0.00  0.00    +0.000 A 
ATOM     37  C   UNL     1       2.381   3.122  -1.529  0.00  0.00    +0.000 A 
ATOM     38  C   UNL     1       3.434   2.273  -1.247  0.00  0.00    +0.004 A 
ENDBRANCH  32  33
ENDBRANCH  31  32
ENDBRANCH  12  31
TORSDOF 6
