REMARK  Name = ZINC35836861
REMARK  6 active torsions:
REMARK  status: ('A' for Active; 'I' for Inactive)
REMARK    1  A    between atoms: C_1  and  C_2
REMARK    2  A    between atoms: C_2  and  N_3
REMARK    3  A    between atoms: N_3  and  C_4
REMARK    4  A    between atoms: N_14  and  C_17
REMARK    5  A    between atoms: N_30  and  C_31
REMARK    6  A    between atoms: C_31  and  C_32
REMARK                            x       y       z     vdW  Elec       q    Type
REMARK                         _______ _______ _______ _____ _____    ______ ____
ROOT
ATOM      1  N   UNL     1      -1.542  -0.463   0.124  0.00  0.00    -0.318 N 
ATOM      2  C   UNL     1      -1.668   0.801  -0.604  0.00  0.00    +0.130 C 
ATOM      3  C   UNL     1      -2.225  -0.647   1.316  0.00  0.00    +0.131 A 
ATOM      4  C   UNL     1      -3.475  -1.279   1.326  0.00  0.00    +0.029 A 
ATOM      5  C   UNL     1      -4.118  -1.448   2.527  0.00  0.00    +0.028 A 
ATOM      6  N   UNL     1      -3.538  -0.994   3.637  0.00  0.00    -0.331 N 
ATOM      7  C   UNL     1      -2.358  -0.398   3.600  0.00  0.00    +0.198 A 
ATOM      8  N   UNL     1      -1.700  -0.231   2.462  0.00  0.00    -0.201 NA
ATOM      9  N   UNL     1      -1.794   0.056   4.779  0.00  0.00    -0.298 N 
ATOM     10  C   UNL     1      -2.431  -0.231   6.072  0.00  0.00    +0.127 C 
ATOM     11  C   UNL     1      -1.408  -0.925   6.979  0.00  0.00    +0.124 C 
ATOM     12  N   UNL     1      -0.161  -0.148   6.962  0.00  0.00    -0.325 N 
ATOM     13  C   UNL     1       0.477   0.138   5.669  0.00  0.00    +0.124 C 
ATOM     14  C   UNL     1      -0.543   0.828   4.761  0.00  0.00    +0.127 C 
ATOM     15  C   UNL     1      -5.448  -2.140   2.652  0.00  0.00    +0.072 C 
ATOM     16  C   UNL     1      -6.176  -2.160   1.308  0.00  0.00    +0.116 C 
ATOM     17  N   UNL     1      -5.221  -2.601   0.278  0.00  0.00    -0.281 N 
ATOM     18  C   UNL     1      -4.062  -1.739   0.019  0.00  0.00    +0.149 C 
ATOM     19  C   UNL     1      -5.404  -3.752  -0.400  0.00  0.00    +0.303 C 
ATOM     20  O   UNL     1      -6.316  -4.497  -0.099  0.00  0.00    -0.253 OA
ATOM     21  N   UNL     1      -4.574  -4.077  -1.410  0.00  0.00    -0.296 N 
ATOM     22  H   UNL     1      -3.804  -3.521  -1.604  0.00  0.00    +0.151 HD
ATOM     23  H   UNL     1      -3.990  -1.102   4.488  0.00  0.00    +0.168 HD
ENDROOT
BRANCH  12  24
ATOM     24  C   UNL     1       0.409   0.310   8.153  0.00  0.00    +0.065 A 
ATOM     25  C   UNL     1       1.331  -0.476   8.831  0.00  0.00    +0.026 A 
ATOM     26  C   UNL     1       1.893  -0.020  10.008  0.00  0.00    +0.002 A 
ATOM     27  C   UNL     1       1.538   1.218  10.512  0.00  0.00    +0.003 A 
ATOM     28  C   UNL     1       0.620   2.005   9.841  0.00  0.00    +0.040 A 
ATOM     29  C   UNL     1       0.058   1.557   8.659  0.00  0.00    +0.144 A 
ATOM     30  F   UNL     1      -0.835   2.328   8.000  0.00  0.00    -0.204 F 
ENDBRANCH  12  24
BRANCH   1  32
ATOM     31  C   UNL     1       0.727  -1.375   0.136  0.00  0.00    +0.024 C 
ATOM     32  C   UNL     1      -0.695  -1.534  -0.407  0.00  0.00    +0.103 C 
ENDBRANCH   1  32
BRANCH  21  33
ATOM     33  C   UNL     1      -4.835  -5.272  -2.217  0.00  0.00    +0.132 C 
BRANCH  33  34
ATOM     34  C   UNL     1      -3.768  -5.409  -3.272  0.00  0.00    -0.016 C 
ATOM     35  C   UNL     1      -3.076  -6.518  -3.365  0.00  0.00    +0.005 C 
ENDBRANCH  33  34
ENDBRANCH  21  33
TORSDOF 4
