REMARK  Name = ZINC43553382
REMARK  12 active torsions:
REMARK  status: ('A' for Active; 'I' for Inactive)
REMARK    1  A    between atoms: C_1  and  C_2
REMARK    2  A    between atoms: C_5  and  O_34
REMARK    3  A    between atoms: C_7  and  C_31
REMARK    4  A    between atoms: C_7  and  C_32
REMARK    5  A    between atoms: N_16  and  S_17
REMARK    6  A    between atoms: S_17  and  C_20
REMARK    7  A    between atoms: C_21  and  C_23
REMARK    8  A    between atoms: C_23  and  C_24
REMARK    9  A    between atoms: N_26  and  C_27
REMARK   10  A    between atoms: N_26  and  C_28
REMARK   11  A    between atoms: C_28  and  C_29
REMARK   12  A    between atoms: C_32  and  O_33
REMARK                            x       y       z     vdW  Elec       q    Type
REMARK                         _______ _______ _______ _____ _____    ______ ____
ROOT
ATOM      1  C   UNL     1       0.557   1.405  -0.185  0.00  0.00    +0.012 C 
ATOM      2  C   UNL     1       0.207  -0.077   0.013  0.00  0.00    -0.020 C 
ATOM      3  C   UNL     1      -1.293  -0.197   0.257  0.00  0.00    +0.010 C 
ATOM      4  C   UNL     1      -1.667   0.626   1.490  0.00  0.00    +0.032 C 
ATOM      5  C   UNL     1      -0.915   0.169   2.726  0.00  0.00    +0.123 C 
ATOM      6  C   UNL     1       0.581  -0.016   2.534  0.00  0.00    +0.021 C 
ATOM      7  C   UNL     1       0.953  -0.670   1.204  0.00  0.00    +0.011 C 
ATOM      8  C   UNL     1       0.630  -2.170   1.333  0.00  0.00    +0.049 C 
ATOM      9  C   UNL     1       0.474  -2.827   0.004  0.00  0.00    +0.013 A 
ATOM     10  C   UNL     1       0.447  -2.254  -1.204  0.00  0.00    +0.032 A 
ATOM     11  N   UNL     1       0.277  -3.074  -2.296  0.00  0.00    -0.336 N 
ATOM     12  C   UNL     1       0.145  -4.432  -2.114  0.00  0.00    +0.191 A 
ATOM     13  S   UNL     1       0.280  -4.559  -0.338  0.00  0.00    -0.053 S 
ATOM     14  N   UNL     1      -0.033  -5.375  -3.006  0.00  0.00    -0.108 NA
ATOM     15  C   UNL     1       0.631  -0.749  -1.294  0.00  0.00    +0.051 C 
ATOM     16  C   UNL     1       1.312   1.316   2.744  0.00  0.00    +0.016 C 
ATOM     17  H   UNL     1       0.260  -2.716  -3.197  0.00  0.00    +0.168 HD
ENDROOT
BRANCH  14  18
ATOM     18  S   UNL     1      -0.165  -6.954  -2.525  0.00  0.00    +0.069 S 
ATOM     19  O   UNL     1       1.096  -7.264  -1.948  0.00  0.00    -0.152 OA
ATOM     20  O   UNL     1      -1.350  -6.997  -1.743  0.00  0.00    -0.152 OA
ATOM     21  C   UNL     1      -0.395  -7.891  -4.061  0.00  0.00    +0.223 C 
ENDBRANCH  14  18
BRANCH   5  22
ATOM     22  O   UNL     1      -1.499  -1.037   3.230  0.00  0.00    -0.391 OA
ATOM     23  H   UNL     1      -2.429  -0.949   3.482  0.00  0.00    +0.210 HD
ENDBRANCH   5  22
BRANCH  15  24
ATOM     24  C   UNL     1      -0.157  -0.170  -2.466  0.00  0.00    +0.106 C 
BRANCH  24  25
ATOM     25  C   UNL     1       0.436  -0.663  -3.761  0.00  0.00    +0.216 C 
ATOM     26  O   UNL     1       1.478  -1.284  -3.755  0.00  0.00    -0.276 OA
ATOM     27  N   UNL     1      -0.193  -0.414  -4.928  0.00  0.00    -0.301 N 
ATOM     28  C   UNL     1      -1.451   0.336  -4.936  0.00  0.00    +0.132 C 
BRANCH  27  29
ATOM     29  C   UNL     1       0.383  -0.893  -6.187  0.00  0.00    +0.134 C 
BRANCH  29  30
ATOM     30  C   UNL     1      -0.144  -2.272  -6.487  0.00  0.00    -0.016 C 
ATOM     31  C   UNL     1      -0.733  -2.513  -7.633  0.00  0.00    +0.005 C 
ENDBRANCH  29  30
ENDBRANCH  27  29
ENDBRANCH  24  25
ENDBRANCH  15  24
BRANCH   6  32
ATOM     32  C   UNL     1       1.074  -0.936   3.681  0.00  0.00    +0.165 C 
BRANCH  32  33
ATOM     33  O   UNL     1       0.799  -0.318   4.940  0.00  0.00    -0.394 OA
ATOM     34  H   UNL     1       1.082  -0.838   5.704  0.00  0.00    +0.209 HD
ENDBRANCH  32  33
ENDBRANCH   6  32
TORSDOF 8
