REMARK  Name = ZINC06576173
REMARK  4 active torsions:
REMARK  status: ('A' for Active; 'I' for Inactive)
REMARK    1  A    between atoms: C_7  and  C_11
REMARK    2  A    between atoms: C_7  and  O_24
REMARK    3  A    between atoms: C_11  and  C_12
REMARK    4  A    between atoms: C_12  and  C_14
REMARK                            x       y       z     vdW  Elec       q    Type
REMARK                         _______ _______ _______ _____ _____    ______ ____
ROOT
ATOM      1  C   UNL     1      -1.246   3.131   0.032  0.00  0.00    +0.000 A 
ATOM      2  C   UNL     1      -1.217   1.748   0.017  0.00  0.00    +0.002 A 
ATOM      3  C   UNL     1      -0.013   1.076   0.008  0.00  0.00    +0.024 A 
ATOM      4  C   UNL     1       1.186   1.788   0.000  0.00  0.00    +0.040 A 
ATOM      5  C   UNL     1       1.143   3.176   0.008  0.00  0.00    +0.014 A 
ATOM      6  C   UNL     1      -0.061   3.844   0.024  0.00  0.00    +0.009 A 
ATOM      7  C   UNL     1       2.579   3.646  -0.003  0.00  0.00    +0.175 C 
ATOM      8  C   UNL     1       3.385   2.364  -0.018  0.00  0.00    +0.254 C 
ATOM      9  O   UNL     1       4.595   2.274  -0.029  0.00  0.00    -0.272 OA
ATOM     10  N   UNL     1       2.509   1.346  -0.015  0.00  0.00    -0.282 N 
ATOM     11  H   UNL     1       2.767   0.411  -0.022  0.00  0.00    +0.155 HD
ENDROOT
BRANCH   7  12
ATOM     12  O   UNL     1       2.867   4.405   1.173  0.00  0.00    -0.374 OA
ATOM     13  H   UNL     1       2.733   3.918   1.998  0.00  0.00    +0.211 HD
ENDBRANCH   7  12
BRANCH   7  14
ATOM     14  C   UNL     1       2.862   4.475  -1.257  0.00  0.00    +0.124 C 
BRANCH  14  15
ATOM     15  C   UNL     1       4.327   4.827  -1.307  0.00  0.00    +0.143 C 
ATOM     16  O   UNL     1       5.068   4.454  -0.429  0.00  0.00    -0.297 OA
BRANCH  15  17
ATOM     17  C   UNL     1       4.867   5.646  -2.451  0.00  0.00    +0.030 C 
ATOM     18  C   UNL     1       4.620   4.907  -3.768  0.00  0.00    +0.018 C 
ATOM     19  C   UNL     1       5.168   5.737  -4.930  0.00  0.00    -0.010 C 
ATOM     20  C   UNL     1       6.671   5.951  -4.739  0.00  0.00    +0.007 C 
ATOM     21  C   UNL     1       6.918   6.690  -3.422  0.00  0.00    -0.010 C 
ATOM     22  C   UNL     1       6.370   5.859  -2.261  0.00  0.00    +0.018 C 
ATOM     23  C   UNL     1       6.210   8.046  -3.458  0.00  0.00    +0.007 C 
ATOM     24  C   UNL     1       4.707   7.832  -3.649  0.00  0.00    -0.010 C 
ATOM     25  C   UNL     1       4.460   7.093  -4.965  0.00  0.00    +0.007 C 
ATOM     26  C   UNL     1       4.159   7.002  -2.487  0.00  0.00    +0.018 C 
ENDBRANCH  15  17
ENDBRANCH  14  15
ENDBRANCH   7  14
TORSDOF 4
