REMARK  Name = ZINC47594715
REMARK  4 active torsions:
REMARK  status: ('A' for Active; 'I' for Inactive)
REMARK    1  A    between atoms: C_1  and  C_2
REMARK    2  A    between atoms: C_2  and  C_4
REMARK    3  A    between atoms: C_2  and  N_10
REMARK    4  A    between atoms: N_13  and  C_14
REMARK                            x       y       z     vdW  Elec       q    Type
REMARK                         _______ _______ _______ _____ _____    ______ ____
ROOT
ATOM      1  N   UNL     1       0.688  -0.476  -1.203  0.00  0.00    -0.292 N 
ATOM      2  C   UNL     1       0.006  -0.608  -2.358  0.00  0.00    +0.300 C 
ATOM      3  O   UNL     1      -1.178  -0.335  -2.400  0.00  0.00    -0.253 OA
ATOM      4  N   UNL     1       0.637  -1.043  -3.467  0.00  0.00    -0.295 N 
ATOM      5  H   UNL     1       1.632  -0.695  -1.170  0.00  0.00    +0.151 HD
ATOM      6  H   UNL     1       1.582  -1.261  -3.434  0.00  0.00    +0.151 HD
ENDROOT
BRANCH   4   7
ATOM      7  C   UNL     1      -0.104  -1.186  -4.723  0.00  0.00    +0.097 C 
ATOM      8  C   UNL     1      -0.770  -2.571  -4.778  0.00  0.00    +0.046 C 
ATOM      9  C   UNL     1      -1.278  -2.855  -6.212  0.00  0.00    +0.168 C 
ATOM     10  S   UNL     1      -0.126  -1.869  -7.252  0.00  0.00    -0.029 S 
ATOM     11  O   UNL     1      -0.864  -0.868  -7.939  0.00  0.00    -0.174 OA
ATOM     12  O   UNL     1       0.705  -2.755  -7.990  0.00  0.00    -0.174 OA
ATOM     13  C   UNL     1       0.875  -1.071  -5.927  0.00  0.00    +0.188 C 
ENDBRANCH   4   7
BRANCH   1  15
ATOM     14  C   UNL     1      -0.019   1.526   0.010  0.00  0.00    +0.033 C 
ATOM     15  C   UNL     1       0.002  -0.004   0.002  0.00  0.00    +0.108 C 
BRANCH  15  16
ATOM     16  C   UNL     1       0.731  -0.503   1.223  0.00  0.00    +0.011 A 
ATOM     17  C   UNL     1       0.222  -0.979   2.385  0.00  0.00    +0.014 A 
ATOM     18  C   UNL     1       1.091  -1.386   3.381  0.00  0.00    +0.028 A 
ATOM     19  C   UNL     1       2.427  -1.297   3.164  0.00  0.00    +0.078 A 
ATOM     20  S   UNL     1       2.489  -0.629   1.510  0.00  0.00    -0.080 S 
ATOM     21 CL   UNL     1       3.737  -1.728   4.219  0.00  0.00    -0.076 Cl
ENDBRANCH  15  16
ENDBRANCH   1  15
TORSDOF 3
