REMARK  Name = ZINC40111290
REMARK  12 active torsions:
REMARK  status: ('A' for Active; 'I' for Inactive)
REMARK    1  A    between atoms: C_1  and  C_2
REMARK    2  A    between atoms: C_2  and  C_3
REMARK    3  A    between atoms: C_3  and  C_4
REMARK    4  A    between atoms: C_4  and  N_5
REMARK    5  A    between atoms: C_6  and  C_30
REMARK    6  A    between atoms: C_8  and  C_13
REMARK    7  A    between atoms: C_13  and  C_15
REMARK    8  A    between atoms: C_18  and  S_21
REMARK    9  A    between atoms: S_21  and  N_24
REMARK   10  A    between atoms: C_33  and  N_36
REMARK   11  A    between atoms: N_36  and  C_37
REMARK   12  A    between atoms: N_36  and  C_38
REMARK                            x       y       z     vdW  Elec       q    Type
REMARK                         _______ _______ _______ _____ _____    ______ ____
ROOT
ATOM      1  N   UNL     1       1.232  -2.616  -2.410  0.00  0.00    -0.284 N 
ATOM      2  C   UNL     1       0.723  -2.797  -3.775  0.00  0.00    +0.145 C 
ATOM      3  C   UNL     1       1.905  -3.224  -4.613  0.00  0.00    +0.076 C 
ATOM      4  C   UNL     1       2.974  -3.275  -3.784  0.00  0.00    +0.249 C 
ATOM      5  C   UNL     1       2.549  -2.891  -2.421  0.00  0.00    +0.288 C 
ATOM      6  O   UNL     1       3.281  -2.834  -1.452  0.00  0.00    -0.266 OA
ATOM      7  O   UNL     1       4.232  -3.618  -4.145  0.00  0.00    -0.282 OA
ENDROOT
BRANCH   2   8
ATOM      8  C   UNL     1      -0.340  -3.865  -3.794  0.00  0.00    -0.022 A 
ATOM      9  C   UNL     1      -0.141  -5.049  -3.109  0.00  0.00    +0.007 A 
ATOM     10  C   UNL     1      -1.113  -6.030  -3.124  0.00  0.00    +0.023 A 
ATOM     11  C   UNL     1      -2.292  -5.825  -3.829  0.00  0.00    +0.029 A 
ATOM     12  C   UNL     1      -2.489  -4.634  -4.516  0.00  0.00    +0.023 A 
ATOM     13  C   UNL     1      -1.515  -3.656  -4.492  0.00  0.00    +0.007 A 
BRANCH  11  14
ATOM     14  N   UNL     1      -3.277  -6.815  -3.847  0.00  0.00    -0.336 N 
ATOM     15  C   UNL     1      -3.018  -8.119  -3.230  0.00  0.00    +0.129 C 
ATOM     16  C   UNL     1      -4.571  -6.550  -4.482  0.00  0.00    +0.129 C 
ENDBRANCH  11  14
ENDBRANCH   2   8
BRANCH   3  17
ATOM     17  C   UNL     1       1.897  -3.526  -6.047  0.00  0.00    +0.195 C 
ATOM     18  O   UNL     1       2.129  -4.656  -6.433  0.00  0.00    -0.287 OA
BRANCH  17  19
ATOM     19  C   UNL     1       1.607  -2.456  -7.026  0.00  0.00    +0.022 A 
ATOM     20  C   UNL     1       1.456  -1.135  -6.598  0.00  0.00    +0.013 A 
ATOM     21  C   UNL     1       1.186  -0.142  -7.516  0.00  0.00    +0.029 A 
ATOM     22  C   UNL     1       1.064  -0.452  -8.859  0.00  0.00    +0.106 A 
ATOM     23  C   UNL     1       1.212  -1.759  -9.291  0.00  0.00    +0.029 A 
ATOM     24  C   UNL     1       1.488  -2.761  -8.384  0.00  0.00    +0.013 A 
BRANCH  22  25
ATOM     25  S   UNL     1       0.719   0.823 -10.025  0.00  0.00    +0.061 S 
ATOM     26  O   UNL     1       0.112   0.194 -11.146  0.00  0.00    -0.153 OA
ATOM     27  O   UNL     1       0.085   1.871  -9.305  0.00  0.00    -0.153 OA
BRANCH  25  28
ATOM     28  N   UNL     1       2.174   1.417 -10.546  0.00  0.00    -0.177 NA
ATOM     29  C   UNL     1       2.821   2.534  -9.843  0.00  0.00    +0.109 C 
ATOM     30  C   UNL     1       4.250   2.122  -9.474  0.00  0.00    +0.017 C 
ATOM     31  C   UNL     1       4.985   1.663 -10.735  0.00  0.00    +0.003 C 
ATOM     32  C   UNL     1       4.271   0.447 -11.330  0.00  0.00    +0.017 C 
ATOM     33  C   UNL     1       2.845   0.835 -11.716  0.00  0.00    +0.109 C 
ENDBRANCH  25  28
ENDBRANCH  22  25
ENDBRANCH  17  19
ENDBRANCH   3  17
BRANCH   1  34
ATOM     34  C   UNL     1       0.447  -2.203  -1.245  0.00  0.00    +0.109 C 
BRANCH  34  35
ATOM     35  C   UNL     1       0.460  -0.677  -1.135  0.00  0.00    +0.019 C 
BRANCH  35  37
ATOM     36  C   UNL     1      -0.347   1.280   0.192  0.00  0.00    +0.004 C 
ATOM     37  C   UNL     1      -0.360  -0.246   0.082  0.00  0.00    -0.002 C 
ENDBRANCH  35  37
ENDBRANCH  34  35
ENDBRANCH   1  34
TORSDOF 9
