REMARK  Name = ZINC47139188
REMARK  7 active torsions:
REMARK  status: ('A' for Active; 'I' for Inactive)
REMARK    1  A    between atoms: C_4  and  C_7
REMARK    2  A    between atoms: C_8  and  C_9
REMARK    3  A    between atoms: N_13  and  C_27
REMARK    4  A    between atoms: N_15  and  N_16
REMARK    5  A    between atoms: C_17  and  C_18
REMARK    6  A    between atoms: C_23  and  O_24
REMARK    7  A    between atoms: C_27  and  C_28
REMARK                            x       y       z     vdW  Elec       q    Type
REMARK                         _______ _______ _______ _____ _____    ______ ____
ROOT
ATOM      1  C   UNL     1       5.079  -2.893   1.553  0.00  0.00    +0.020 C 
ATOM      2  C   UNL     1       5.076  -4.222   1.241  0.00  0.00    +0.078 C 
ATOM      3  C   UNL     1       6.184  -5.078   0.784  0.00  0.00    +0.259 C 
ATOM      4  O   UNL     1       7.308  -4.635   0.628  0.00  0.00    -0.269 OA
ATOM      5  N   UNL     1       5.905  -6.349   0.550  0.00  0.00    -0.237 N 
ATOM      6  C   UNL     1       4.628  -6.832   0.732  0.00  0.00    +0.190 C 
ATOM      7  N   UNL     1       4.181  -8.059   0.548  0.00  0.00    -0.126 NA
ATOM      8  S   UNL     1       3.727  -5.394   1.286  0.00  0.00    -0.047 S 
ENDROOT
BRANCH   1  10
ATOM      9  C   UNL     1       3.896  -0.949   2.291  0.00  0.00    +0.008 C 
ATOM     10  C   UNL     1       3.892  -2.267   1.982  0.00  0.00    +0.002 C 
BRANCH   9  14
ATOM     11  C   UNL     1       0.323   0.936   3.579  0.00  0.00    +0.000 A 
ATOM     12  C   UNL     1       1.491   1.672   3.477  0.00  0.00    +0.001 A 
ATOM     13  C   UNL     1       2.657   1.067   3.059  0.00  0.00    +0.008 A 
ATOM     14  C   UNL     1       2.657  -0.295   2.738  0.00  0.00    -0.025 A 
ATOM     15  C   UNL     1       1.472  -1.032   2.845  0.00  0.00    +0.008 A 
ATOM     16  C   UNL     1       0.315  -0.411   3.264  0.00  0.00    +0.001 A 
ENDBRANCH   9  14
ENDBRANCH   1  10
BRANCH   7  17
ATOM     17  N   UNL     1       4.984  -8.984   0.144  0.00  0.00    -0.155 NA
ATOM     18  C   UNL     1       4.542 -10.200  -0.038  0.00  0.00    +0.146 C 
BRANCH  18  19
ATOM     19  C   UNL     1       3.101 -10.478   0.049  0.00  0.00    +0.037 A 
ATOM     20  C   UNL     1       2.180  -9.425   0.059  0.00  0.00    +0.028 A 
ATOM     21  C   UNL     1       0.830  -9.694   0.140  0.00  0.00    +0.019 A 
ATOM     22  C   UNL     1       0.381 -11.003   0.212  0.00  0.00    +0.019 A 
ATOM     23  C   UNL     1       1.281 -12.053   0.203  0.00  0.00    +0.047 A 
ATOM     24  C   UNL     1       2.640 -11.802   0.116  0.00  0.00    +0.126 A 
ATOM     25 BR   UNL     1      -0.415  -8.271   0.154  0.00  0.00    -0.050 Br
BRANCH  24  26
ATOM     26  O   UNL     1       3.524 -12.833   0.101  0.00  0.00    -0.506 OA
ATOM     27  H   UNL     1       3.785 -13.140   0.980  0.00  0.00    +0.292 HD
ENDBRANCH  24  26
ENDBRANCH  18  19
ENDBRANCH   7  17
BRANCH   5  28
ATOM     28  C   UNL     1       6.964  -7.253   0.093  0.00  0.00    +0.190 C 
BRANCH  28  29
ATOM     29  C   UNL     1       7.640  -7.879   1.285  0.00  0.00    +0.123 A 
ATOM     30  C   UNL     1       7.281  -9.033   1.876  0.00  0.00    +0.046 A 
ATOM     31  C   UNL     1       8.180  -9.241   2.947  0.00  0.00    +0.041 A 
ATOM     32  C   UNL     1       9.034  -8.202   2.947  0.00  0.00    +0.195 A 
ATOM     33  O   UNL     1       8.706  -7.383   1.934  0.00  0.00    -0.466 OA
ENDBRANCH  28  29
ENDBRANCH   5  28
TORSDOF 7
