REMARK  Name = ZINC23989576
REMARK  10 active torsions:
REMARK  status: ('A' for Active; 'I' for Inactive)
REMARK    1  A    between atoms: C_1  and  C_2
REMARK    2  A    between atoms: C_2  and  C_4
REMARK    3  A    between atoms: C_2  and  N_31
REMARK    4  A    between atoms: C_7  and  S_16
REMARK    5  A    between atoms: N_8  and  C_9
REMARK    6  A    between atoms: C_9  and  C_10
REMARK    7  A    between atoms: S_16  and  C_17
REMARK    8  A    between atoms: C_17  and  C_18
REMARK    9  A    between atoms: N_31  and  C_32
REMARK   10  A    between atoms: N_31  and  C_33
REMARK                            x       y       z     vdW  Elec       q    Type
REMARK                         _______ _______ _______ _____ _____    ______ ____
ROOT
ATOM      1  C   UNL     1      -2.606  -0.362   2.170  0.00  0.00    +0.120 A 
ATOM      2  N   UNL     1      -3.173  -0.195   3.332  0.00  0.00    -0.135 NA
ATOM      3  N   UNL     1      -3.833   0.908   3.346  0.00  0.00    -0.123 NA
ATOM      4  C   UNL     1      -3.716   1.512   2.186  0.00  0.00    +0.192 A 
ATOM      5  N   UNL     1      -2.927   0.722   1.401  0.00  0.00    -0.303 N 
ENDROOT
BRANCH   1   7
ATOM      6  C   UNL     1      -0.376  -1.419   2.411  0.00  0.00    -0.005 C 
ATOM      7  C   UNL     1      -1.753  -1.532   1.753  0.00  0.00    -0.003 C 
BRANCH   7   8
ATOM      8  N   UNL     1      -2.396  -2.783   2.176  0.00  0.00    +0.382 N 
ATOM      9  C   UNL     1      -1.652  -3.950   1.684  0.00  0.00    -0.096 C 
ATOM     10  C   UNL     1      -2.544  -2.831   3.637  0.00  0.00    -0.096 C 
ATOM     11  H   UNL     1      -3.403  -2.812   1.734  0.00  0.00    -0.082 HD
ENDBRANCH   7   8
ENDBRANCH   1   7
BRANCH   5  12
ATOM     12  C   UNL     1      -2.514   0.980   0.019  0.00  0.00    +0.160 C 
BRANCH  12  13
ATOM     13  C   UNL     1      -1.219   1.751   0.017  0.00  0.00    -0.028 A 
ATOM     14  C   UNL     1      -0.013   1.076   0.008  0.00  0.00    +0.005 A 
ATOM     15  C   UNL     1       1.175   1.783   0.000  0.00  0.00    +0.000 A 
ATOM     16  C   UNL     1       1.156   3.165   0.008  0.00  0.00    +0.000 A 
ATOM     17  C   UNL     1      -0.050   3.840   0.022  0.00  0.00    +0.000 A 
ATOM     18  C   UNL     1      -1.238   3.133   0.030  0.00  0.00    +0.005 A 
ENDBRANCH  12  13
ENDBRANCH   5  12
BRANCH   4  19
ATOM     19  S   UNL     1      -4.442   3.051   1.729  0.00  0.00    -0.078 S 
BRANCH  19  20
ATOM     20  C   UNL     1      -5.311   3.457   3.265  0.00  0.00    +0.151 C 
BRANCH  20  21
ATOM     21  C   UNL     1      -6.026   4.774   3.104  0.00  0.00    +0.121 A 
ATOM     22  N   UNL     1      -6.740   5.252   4.156  0.00  0.00    -0.310 N 
ATOM     23  H   UNL     1      -6.786   4.681   5.095  0.00  0.00    +0.170 HD
ATOM     24  C   UNL     1      -7.400   6.430   4.063  0.00  0.00    +0.259 A 
ATOM     25  O   UNL     1      -8.043   6.870   4.999  0.00  0.00    -0.267 OA
ATOM     26  C   UNL     1      -7.310   7.157   2.789  0.00  0.00    +0.065 A 
ATOM     27  C   UNL     1      -7.952   8.378   2.590  0.00  0.00    +0.017 A 
ATOM     28  C   UNL     1      -7.836   9.014   1.385  0.00  0.00    +0.021 A 
ATOM     29  C   UNL     1      -7.085   8.457   0.358  0.00  0.00    +0.043 A 
ATOM     30  C   UNL     1      -6.440   7.250   0.529  0.00  0.00    +0.048 A 
ATOM     31  C   UNL     1      -6.544   6.582   1.750  0.00  0.00    +0.080 A 
ATOM     32  N   UNL     1      -5.925   5.396   1.969  0.00  0.00    -0.233 NA
ATOM     33 CL   UNL     1      -6.957   9.290  -1.160  0.00  0.00    -0.083 Cl
ENDBRANCH  20  21
ENDBRANCH  19  20
ENDBRANCH   4  19
TORSDOF 7
