REMARK  Name = ZINC66200168
REMARK  14 active torsions:
REMARK  status: ('A' for Active; 'I' for Inactive)
REMARK    1  A    between atoms: C_1  and  C_2
REMARK    2  A    between atoms: C_2  and  C_4
REMARK    3  A    between atoms: C_2  and  C_14
REMARK    4  A    between atoms: C_7  and  C_10
REMARK    5  A    between atoms: C_10  and  C_11
REMARK    6  A    between atoms: C_11  and  C_12
REMARK    7  A    between atoms: C_11  and  C_13
REMARK    8  A    between atoms: N_16  and  C_17
REMARK    9  A    between atoms: C_17  and  N_19
REMARK   10  A    between atoms: N_19  and  C_20
REMARK   11  A    between atoms: C_23  and  C_26
REMARK   12  A    between atoms: C_26  and  C_27
REMARK   13  A    between atoms: C_27  and  C_28
REMARK   14  A    between atoms: N_30  and  C_31
REMARK                            x       y       z     vdW  Elec       q    Type
REMARK                         _______ _______ _______ _____ _____    ______ ____
ROOT
ATOM      1  C   UNL     1       2.558  -0.243  -2.775  0.00  0.00    +0.141 C 
ATOM      2  S   UNL     1       1.686  -0.807  -4.136  0.00  0.00    -0.018 S 
ENDROOT
BRANCH   1   5
ATOM      3  C   UNL     1       0.549   0.186  -1.666  0.00  0.00    +0.226 C 
ATOM      4  O   UNL     1      -0.068  -0.213  -2.630  0.00  0.00    -0.275 OA
ATOM      5  N   UNL     1       1.897   0.193  -1.685  0.00  0.00    -0.267 N 
ATOM      6  H   UNL     1       2.391   0.512  -0.914  0.00  0.00    +0.157 HD
BRANCH   3   8
ATOM      7  C   UNL     1       0.176   2.136  -0.180  0.00  0.00    +0.022 C 
ATOM      8  C   UNL     1      -0.190   0.674  -0.447  0.00  0.00    +0.102 C 
BRANCH   8   9
ATOM      9  C   UNL     1      -1.674   0.562  -0.681  0.00  0.00    -0.036 A 
ATOM     10  C   UNL     1      -2.262   1.246  -1.729  0.00  0.00    +0.004 A 
ATOM     11  C   UNL     1      -3.623   1.143  -1.944  0.00  0.00    +0.004 A 
ATOM     12  C   UNL     1      -4.397   0.357  -1.111  0.00  0.00    -0.047 A 
ATOM     13  C   UNL     1      -3.809  -0.327  -0.063  0.00  0.00    +0.004 A 
ATOM     14  C   UNL     1      -2.447  -0.228   0.149  0.00  0.00    +0.004 A 
BRANCH  12  15
ATOM     15  C   UNL     1      -5.882   0.246  -1.344  0.00  0.00    +0.038 C 
BRANCH  15  16
ATOM     16  C   UNL     1      -6.164  -0.925  -2.288  0.00  0.00    -0.013 C 
ATOM     17  C   UNL     1      -5.762  -2.235  -1.608  0.00  0.00    +0.007 C 
ATOM     18  C   UNL     1      -7.656  -0.961  -2.624  0.00  0.00    +0.007 C 
ENDBRANCH  15  16
ENDBRANCH  12  15
ENDBRANCH   8   9
ENDBRANCH   3   8
ENDBRANCH   1   5
BRANCH   1  19
ATOM     19  N   UNL     1       3.906  -0.236  -2.794  0.00  0.00    -0.297 N 
ATOM     20  H   UNL     1       4.399   0.140  -2.049  0.00  0.00    +0.154 HD
BRANCH  19  21
ATOM     21  C   UNL     1       4.593  -0.771  -3.889  0.00  0.00    +0.033 A 
ATOM     22  C   UNL     1       4.192  -0.459  -5.182  0.00  0.00    +0.023 A 
ATOM     23  C   UNL     1       4.872  -0.989  -6.261  0.00  0.00    +0.005 A 
ATOM     24  C   UNL     1       5.951  -1.829  -6.055  0.00  0.00    -0.047 A 
ATOM     25  C   UNL     1       6.353  -2.141  -4.769  0.00  0.00    +0.005 A 
ATOM     26  C   UNL     1       5.680  -1.610  -3.686  0.00  0.00    +0.023 A 
BRANCH  24  27
ATOM     27  C   UNL     1       6.691  -2.405  -7.234  0.00  0.00    +0.044 C 
BRANCH  27  28
ATOM     28  C   UNL     1       7.827  -1.462  -7.634  0.00  0.00    +0.100 C 
BRANCH  28  29
ATOM     29  C   UNL     1       8.567  -2.039  -8.814  0.00  0.00    +0.213 C 
ATOM     30  O   UNL     1       8.220  -3.100  -9.288  0.00  0.00    -0.276 OA
ATOM     31  N   UNL     1       9.615  -1.376  -9.342  0.00  0.00    -0.318 N 
ATOM     32  C   UNL     1      10.334  -1.936 -10.489  0.00  0.00    +0.128 C 
ATOM     33  H   UNL     1       9.893  -0.527  -8.963  0.00  0.00    +0.148 HD
ENDBRANCH  28  29
ENDBRANCH  27  28
ENDBRANCH  24  27
ENDBRANCH  19  21
ENDBRANCH   1  19
TORSDOF 10
