REMARK  Name = ZINC13145358
REMARK  9 active torsions:
REMARK  status: ('A' for Active; 'I' for Inactive)
REMARK    1  A    between atoms: C_6  and  N_7
REMARK    2  A    between atoms: C_8  and  C_10
REMARK    3  A    between atoms: C_10  and  O_11
REMARK    4  A    between atoms: O_11  and  C_12
REMARK    5  A    between atoms: C_12  and  C_14
REMARK    6  A    between atoms: C_14  and  N_15
REMARK    7  A    between atoms: C_16  and  C_18
REMARK    8  A    between atoms: C_18  and  N_19
REMARK    9  A    between atoms: C_20  and  C_22
REMARK                            x       y       z     vdW  Elec       q    Type
REMARK                         _______ _______ _______ _____ _____    ______ ____
ROOT
ATOM      1  C   UNL     1       4.838   0.680  -0.034  0.00  0.00    +0.225 C 
ENDROOT
BRANCH   1   2
ATOM      2  N   UNL     1       6.055   1.495  -0.032  0.00  0.00    -0.304 N 
ATOM      3  C   UNL     1       7.264   0.900  -0.048  0.00  0.00    +0.231 C 
ATOM      4  O   UNL     1       7.344  -0.310  -0.063  0.00  0.00    -0.274 OA
ATOM      5  H   UNL     1       5.991   2.463  -0.020  0.00  0.00    +0.149 HD
BRANCH   3   6
ATOM      6  C   UNL     1       8.517   1.738  -0.047  0.00  0.00    +0.200 C 
BRANCH   6   7
ATOM      7  N   UNL     1       9.691   0.861  -0.066  0.00  0.00    -0.303 N 
ATOM      8  C   UNL     1      10.929   1.393  -0.068  0.00  0.00    +0.246 C 
ATOM      9  O   UNL     1      11.072   2.601  -0.054  0.00  0.00    -0.270 OA
ATOM     10  H   UNL     1       9.577  -0.102  -0.077  0.00  0.00    +0.150 HD
BRANCH   8  11
ATOM     11  C   UNL     1      12.112   0.510  -0.087  0.00  0.00    +0.055 A 
ATOM     12  C   UNL     1      11.952  -0.877  -0.103  0.00  0.00    +0.016 A 
ATOM     13  C   UNL     1      13.060  -1.697  -0.121  0.00  0.00    +0.021 A 
ATOM     14  C   UNL     1      14.332  -1.148  -0.124  0.00  0.00    +0.042 A 
ATOM     15  C   UNL     1      14.499   0.226  -0.108  0.00  0.00    +0.040 A 
ATOM     16  C   UNL     1      13.397   1.058  -0.095  0.00  0.00    +0.054 A 
ATOM     17 CL   UNL     1      13.608   2.782  -0.083  0.00  0.00    -0.083 Cl
ATOM     18 CL   UNL     1      15.722  -2.187  -0.146  0.00  0.00    -0.083 Cl
ENDBRANCH   8  11
ENDBRANCH   6   7
ENDBRANCH   3   6
ENDBRANCH   1   2
BRANCH   1  19
ATOM     19  C   UNL     1       3.630   1.582  -0.014  0.00  0.00    +0.325 C 
ATOM     20  O   UNL     1       3.772   2.782  -0.001  0.00  0.00    -0.249 OA
BRANCH  19  21
ATOM     21  O   UNL     1       2.397   1.052  -0.012  0.00  0.00    -0.454 OA
BRANCH  21  22
ATOM     22  C   UNL     1       1.280   1.980   0.007  0.00  0.00    +0.328 C 
BRANCH  22  24
ATOM     23  N   UNL     1      -1.191   1.867   0.018  0.00  0.00    -0.283 N 
ATOM     24  C   UNL     1      -0.014   1.209   0.007  0.00  0.00    +0.255 C 
ATOM     25  O   UNL     1       0.002  -0.004  -0.008  0.00  0.00    -0.272 OA
ATOM     26  H   UNL     1      -1.205   2.833   0.098  0.00  0.00    +0.155 HD
BRANCH  23  32
ATOM     27  C   UNL     1      -2.510  -0.099   0.499  0.00  0.00    +0.023 A 
ATOM     28  C   UNL     1      -3.697  -0.796   0.393  0.00  0.00    +0.006 A 
ATOM     29  C   UNL     1      -4.769  -0.251  -0.294  0.00  0.00    -0.044 A 
ATOM     30  C   UNL     1      -4.653   0.998  -0.877  0.00  0.00    -0.042 A 
ATOM     31  C   UNL     1      -3.468   1.703  -0.769  0.00  0.00    +0.027 A 
ATOM     32  C   UNL     1      -2.391   1.155  -0.086  0.00  0.00    +0.034 A 
ATOM     33  C   UNL     1      -5.953   1.365  -1.562  0.00  0.00    +0.036 C 
ATOM     34  C   UNL     1      -7.008   0.410  -0.965  0.00  0.00    +0.009 C 
ATOM     35  C   UNL     1      -6.155  -0.807  -0.547  0.00  0.00    +0.036 C 
ENDBRANCH  23  32
ENDBRANCH  22  24
ENDBRANCH  21  22
ENDBRANCH  19  21
ENDBRANCH   1  19
TORSDOF 9
