REMARK  Name = ZINC00800670
REMARK  6 active torsions:
REMARK  status: ('A' for Active; 'I' for Inactive)
REMARK    1  A    between atoms: C_1  and  C_2
REMARK    2  A    between atoms: C_2  and  O_3
REMARK    3  A    between atoms: O_3  and  C_4
REMARK    4  A    between atoms: C_7  and  C_11
REMARK    5  A    between atoms: C_13  and  C_24
REMARK    6  A    between atoms: C_14  and  N_23
REMARK                            x       y       z     vdW  Elec       q    Type
REMARK                         _______ _______ _______ _____ _____    ______ ____
ROOT
ATOM      1  C   UNL     1      -0.013   1.086   0.008  0.00  0.00    +0.101 C 
ATOM      2  C   UNL     1      -0.754   1.581  -1.202  0.00  0.00    +0.098 C 
ATOM      3  C   UNL     1      -0.290   2.645  -1.903  0.00  0.00    +0.198 C 
ATOM      4  O   UNL     1       0.832   3.285  -1.539  0.00  0.00    -0.445 OA
ATOM      5  C   UNL     1       1.742   2.657  -0.771  0.00  0.00    +0.115 C 
ATOM      6  C   UNL     1       1.405   1.606  -0.003  0.00  0.00    +0.046 C 
ATOM      7  C   UNL     1       2.354   0.961   0.813  0.00  0.00    +0.163 C 
ATOM      8  O   UNL     1       2.014   0.005   1.482  0.00  0.00    -0.292 OA
ATOM      9  C   UNL     1       3.781   1.434   0.872  0.00  0.00    +0.080 C 
ATOM     10  C   UNL     1       3.817   2.936   0.568  0.00  0.00    +0.016 C 
ATOM     11  C   UNL     1       3.163   3.170  -0.795  0.00  0.00    +0.075 C 
ENDROOT
BRANCH   1  15
ATOM     12  C   UNL     1      -1.999   2.457   3.536  0.00  0.00    +0.157 A 
ATOM     13  C   UNL     1      -1.855   1.097   3.304  0.00  0.00    +0.084 A 
ATOM     14  C   UNL     1      -1.212   0.656   2.162  0.00  0.00    +0.028 A 
ATOM     15  C   UNL     1      -0.713   1.569   1.252  0.00  0.00    -0.032 A 
ATOM     16  C   UNL     1      -0.850   2.925   1.483  0.00  0.00    +0.028 A 
ATOM     17  C   UNL     1      -1.497   3.372   2.621  0.00  0.00    +0.084 A 
ATOM     18 CL   UNL     1      -1.675   5.075   2.908  0.00  0.00    -0.080 Cl
ATOM     19 CL   UNL     1      -2.480  -0.051   4.447  0.00  0.00    -0.080 Cl
BRANCH  12  20
ATOM     20  O   UNL     1      -2.630   2.893   4.659  0.00  0.00    -0.489 OA
BRANCH  20  22
ATOM     21  C   UNL     1      -2.698   3.598   6.970  0.00  0.00    +0.048 C 
ATOM     22  C   UNL     1      -1.819   3.113   5.815  0.00  0.00    +0.226 C 
ENDBRANCH  20  22
ENDBRANCH  12  20
ENDBRANCH   1  15
BRANCH   3  23
ATOM     23  N   UNL     1      -0.983   3.076  -3.007  0.00  0.00    -0.328 N 
ATOM     24  H   UNL     1      -0.660   3.837  -3.515  0.00  0.00    +0.145 HD
ATOM     25  H   UNL     1      -1.795   2.620  -3.279  0.00  0.00    +0.145 HD
ENDBRANCH   3  23
BRANCH   2  26
ATOM     26  C   UNL     1      -1.956   0.925  -1.619  0.00  0.00    +0.101 C 
ATOM     27  N   UNL     1      -2.911   0.404  -1.948  0.00  0.00    -0.191 NA
ENDBRANCH   2  26
TORSDOF 5
