REMARK  Name = ZINC39505524
REMARK  1 active torsions:
REMARK  status: ('A' for Active; 'I' for Inactive)
REMARK    1  A    between atoms: C_9  and  O_14
REMARK                            x       y       z     vdW  Elec       q    Type
REMARK                         _______ _______ _______ _____ _____    ______ ____
ROOT
ATOM      1  C   UNL     1      -0.019   1.545   0.011  0.00  0.00    +0.039 C 
ATOM      2  C   UNL     1       1.488   1.910  -0.002  0.00  0.00    +0.028 C 
ATOM      3  C   UNL     1       2.138   0.842   0.893  0.00  0.00    +0.057 C 
ATOM      4  C   UNL     1       1.201  -0.372   0.903  0.00  0.00    +0.062 C 
ATOM      5  C   UNL     1       0.002  -0.004   0.002  0.00  0.00    +0.168 C 
ATOM      6  F   UNL     1      -1.186  -0.513   0.537  0.00  0.00    -0.245 F 
ATOM      7  C   UNL     1       3.515   0.450   0.333  0.00  0.00    +0.057 C 
ATOM      8  C   UNL     1       4.492   1.289   1.200  0.00  0.00    +0.133 C 
ATOM      9  C   UNL     1       3.778   1.282   2.575  0.00  0.00    +0.152 C 
ATOM     10  N   UNL     1       2.336   1.360   2.253  0.00  0.00    -0.137 NA
ATOM     11  F   UNL     1       1.629   0.690   3.115  0.00  0.00    -0.132 F 
ENDROOT
BRANCH   8  12
ATOM     12  O   UNL     1       5.772   0.659   1.284  0.00  0.00    -0.390 OA
ATOM     13  H   UNL     1       6.417   1.146   1.815  0.00  0.00    +0.210 HD
ENDBRANCH   8  12
TORSDOF 1
