REMARK  Name = ZINC36611969
REMARK  8 active torsions:
REMARK  status: ('A' for Active; 'I' for Inactive)
REMARK    1  A    between atoms: C_1  and  C_2
REMARK    2  A    between atoms: C_5  and  C_29
REMARK    3  A    between atoms: C_5  and  O_33
REMARK    4  A    between atoms: C_17  and  C_28
REMARK    5  A    between atoms: C_22  and  C_23
REMARK    6  A    between atoms: C_22  and  O_27
REMARK    7  A    between atoms: C_23  and  N_24
REMARK    8  A    between atoms: C_29  and  N_30
REMARK                            x       y       z     vdW  Elec       q    Type
REMARK                         _______ _______ _______ _____ _____    ______ ____
ROOT
ATOM      1  C   UNL     1      -0.025   1.759   0.308  0.00  0.00    +0.012 C 
ATOM      2  C   UNL     1       0.139   0.244   0.241  0.00  0.00    -0.026 C 
ATOM      3  C   UNL     1      -1.257  -0.402   0.264  0.00  0.00    +0.010 C 
ATOM      4  C   UNL     1      -2.012   0.001   1.525  0.00  0.00    +0.033 C 
ATOM      5  C   UNL     1      -1.247  -0.377   2.789  0.00  0.00    +0.052 C 
ATOM      6  C   UNL     1       0.180   0.166   2.752  0.00  0.00    +0.037 C 
ATOM      7  C   UNL     1       0.894  -0.259   1.476  0.00  0.00    -0.002 C 
ATOM      8  C   UNL     1       2.327   0.271   1.460  0.00  0.00    +0.004 C 
ATOM      9  C   UNL     1       3.049  -0.297   0.237  0.00  0.00    +0.004 C 
ATOM     10  C   UNL     1       2.347   0.136  -1.050  0.00  0.00    -0.004 C 
ATOM     11  C   UNL     1       0.871  -0.201  -1.013  0.00  0.00    -0.001 C 
ATOM     12  C   UNL     1       0.179   0.215  -2.301  0.00  0.00    +0.005 C 
ATOM     13  C   UNL     1       0.484   1.632  -2.735  0.00  0.00    +0.010 C 
ATOM     14  C   UNL     1       1.917   2.077  -2.623  0.00  0.00    -0.002 C 
ATOM     15  C   UNL     1       2.636   1.598  -1.354  0.00  0.00    +0.001 C 
ATOM     16  C   UNL     1       4.141   1.711  -1.728  0.00  0.00    +0.007 C 
ATOM     17  C   UNL     1       4.205   1.410  -3.236  0.00  0.00    +0.034 C 
ATOM     18  C   UNL     1       2.809   1.723  -3.812  0.00  0.00    +0.057 C 
ATOM     19  C   UNL     1       1.884   3.626  -2.549  0.00  0.00    +0.014 C 
ENDROOT
BRANCH  18  20
ATOM     20  O   UNL     1       2.908   2.861  -4.686  0.00  0.00    -0.390 OA
ATOM     21  H   UNL     1       3.460   2.711  -5.466  0.00  0.00    +0.210 HD
ENDBRANCH  18  20
BRANCH   5  22
ATOM     22  O   UNL     1      -1.922   0.198   3.920  0.00  0.00    -0.390 OA
ATOM     23  H   UNL     1      -2.835  -0.102   4.028  0.00  0.00    +0.210 HD
ENDBRANCH   5  22
BRANCH  18  24
ATOM     24  C   UNL     1       2.299   0.525  -4.608  0.00  0.00    -0.043 C 
BRANCH  24  25
ATOM     25  N   UNL     1       3.273   0.182  -5.654  0.00  0.00    +0.379 N 
ATOM     26  C   UNL     1       2.855   0.378  -7.048  0.00  0.00    -0.098 C 
ATOM     27  C   UNL     1       3.003  -1.022  -6.450  0.00  0.00    -0.098 C 
ATOM     28  H   UNL     1       4.237   0.380  -5.431  0.00  0.00    -0.082 HD
ENDBRANCH  24  25
ENDBRANCH  18  24
BRANCH   5  29
ATOM     29  C   UNL     1      -1.229  -1.897   2.961  0.00  0.00    -0.044 C 
BRANCH  29  30
ATOM     30  N   UNL     1      -0.484  -2.243   4.179  0.00  0.00    +0.379 N 
ATOM     31  C   UNL     1       0.778  -2.974   4.006  0.00  0.00    -0.098 C 
ATOM     32  C   UNL     1      -0.467  -3.658   4.573  0.00  0.00    -0.098 C 
ATOM     33  H   UNL     1      -0.521  -1.560   4.920  0.00  0.00    -0.082 HD
ENDBRANCH  29  30
ENDBRANCH   5  29
TORSDOF 6
