REMARK  Name = ZINC24918300
REMARK  8 active torsions:
REMARK  status: ('A' for Active; 'I' for Inactive)
REMARK    1  A    between atoms: C_1  and  C_2
REMARK    2  A    between atoms: C_3  and  C_31
REMARK    3  A    between atoms: N_9  and  C_30
REMARK    4  A    between atoms: C_10  and  S_12
REMARK    5  A    between atoms: S_12  and  C_13
REMARK    6  A    between atoms: C_13  and  C_15
REMARK    7  A    between atoms: C_13  and  C_16
REMARK    8  A    between atoms: C_21  and  C_24
REMARK                            x       y       z     vdW  Elec       q    Type
REMARK                         _______ _______ _______ _____ _____    ______ ____
ROOT
ATOM      1  C   UNL     1       1.121   3.582   0.011  0.00  0.00    +0.137 C 
ATOM      2  C   UNL     1       0.850   4.096  -1.405  0.00  0.00    +0.029 C 
ENDROOT
BRANCH   1   3
ATOM      3  C   UNL     1       1.141   2.075   0.002  0.00  0.00    +0.232 C 
ATOM      4  O   UNL     1       2.200   1.483  -0.011  0.00  0.00    -0.274 OA
ATOM      5  N   UNL     1      -0.017   1.385   0.010  0.00  0.00    -0.264 N 
ATOM      6  C   UNL     1       0.002  -0.004   0.002  0.00  0.00    +0.165 A 
ATOM      7  N   UNL     1      -1.008  -0.853   0.007  0.00  0.00    -0.225 NA
ATOM      8  C   UNL     1      -0.807  -2.162  -0.003  0.00  0.00    +0.080 A 
ATOM      9  C   UNL     1       0.472  -2.644  -0.018  0.00  0.00    +0.076 A 
ATOM     10  S   UNL     1       1.401  -1.116  -0.025  0.00  0.00    -0.060 S 
ATOM     11  H   UNL     1      -0.977   1.922   0.022  0.00  0.00    +0.157 HD
BRANCH   8  12
ATOM     12  C   UNL     1      -1.959  -3.097   0.004  0.00  0.00    +0.001 A 
ATOM     13  C   UNL     1      -1.742  -4.474  -0.011  0.00  0.00    +0.010 A 
ATOM     14  C   UNL     1      -2.818  -5.339   0.000  0.00  0.00    +0.001 A 
ATOM     15  C   UNL     1      -4.109  -4.841   0.016  0.00  0.00    +0.000 A 
ATOM     16  C   UNL     1      -4.329  -3.476   0.026  0.00  0.00    +0.001 A 
ATOM     17  C   UNL     1      -3.262  -2.602   0.020  0.00  0.00    +0.010 A 
ENDBRANCH   8  12
ENDBRANCH   1   3
BRANCH   1  18
ATOM     18  S   UNL     1       2.721   4.204   0.582  0.00  0.00    -0.075 S 
BRANCH  18  28
ATOM     19  C   UNL     1       2.265  11.131   1.105  0.00  0.00    +0.045 C 
ATOM     20  C   UNL     1       1.356   9.998   0.705  0.00  0.00    -0.026 A 
ATOM     21  C   UNL     1       0.093  10.244   0.325  0.00  0.00    -0.008 A 
ATOM     22  S   UNL     1      -0.553   8.623  -0.038  0.00  0.00    -0.073 S 
ATOM     23  C   UNL     1       0.891   7.661   0.331  0.00  0.00    +0.117 A 
ATOM     24  C   UNL     1       1.836   8.627   0.726  0.00  0.00    +0.075 A 
ATOM     25  C   UNL     1       3.125   8.125   1.089  0.00  0.00    +0.263 A 
ATOM     26  O   UNL     1       4.007   8.888   1.445  0.00  0.00    -0.267 OA
ATOM     27  N   UNL     1       3.350   6.799   1.040  0.00  0.00    -0.290 N 
ATOM     28  C   UNL     1       2.376   5.931   0.639  0.00  0.00    +0.173 A 
ATOM     29  N   UNL     1       1.180   6.366   0.298  0.00  0.00    -0.216 NA
ATOM     30  C   UNL     1       4.666   6.279   1.417  0.00  0.00    +0.154 C 
ATOM     31  C   UNL     1      -0.610  11.573   0.228  0.00  0.00    +0.052 C 
ENDBRANCH  18  28
ENDBRANCH   1  18
TORSDOF 4
