REMARK  Name = ZINC15918429
REMARK  5 active torsions:
REMARK  status: ('A' for Active; 'I' for Inactive)
REMARK    1  A    between atoms: C_4  and  C_7
REMARK    2  A    between atoms: C_7  and  C_8
REMARK    3  A    between atoms: N_10  and  N_11
REMARK    4  A    between atoms: C_12  and  C_14
REMARK    5  A    between atoms: C_19  and  N_20
REMARK                            x       y       z     vdW  Elec       q    Type
REMARK                         _______ _______ _______ _____ _____    ______ ____
ROOT
ATOM      1  N   UNL     1      -0.255  -2.311   3.003  0.00  0.00    -0.230 N 
ATOM      2  C   UNL     1      -0.113  -3.632   3.229  0.00  0.00    +0.262 C 
ATOM      3  O   UNL     1      -0.085  -4.409   2.294  0.00  0.00    -0.269 OA
ATOM      4  H   UNL     1      -0.278  -1.691   3.749  0.00  0.00    +0.173 HD
ENDROOT
BRANCH   2   5
ATOM      5  C   UNL     1       0.007  -4.136   4.613  0.00  0.00    +0.068 A 
ATOM      6  C   UNL     1       0.111  -3.241   5.679  0.00  0.00    +0.017 A 
ATOM      7  C   UNL     1       0.223  -3.717   6.968  0.00  0.00    +0.021 A 
ATOM      8  C   UNL     1       0.233  -5.082   7.206  0.00  0.00    +0.043 A 
ATOM      9  C   UNL     1       0.130  -5.975   6.153  0.00  0.00    +0.053 A 
ATOM     10  C   UNL     1       0.012  -5.510   4.860  0.00  0.00    +0.140 A 
ATOM     11 CL   UNL     1       0.374  -5.674   8.832  0.00  0.00    -0.083 Cl
BRANCH  10  12
ATOM     12  N   UNL     1      -0.104  -6.466   3.736  0.00  0.00    +0.057 N 
ATOM     13  O   UNL     1      -0.998  -6.340   2.918  0.00  0.00    -0.126 OA
ATOM     14  O   UNL     1       0.695  -7.380   3.629  0.00  0.00    -0.126 OA
ENDBRANCH  10  12
ENDBRANCH   2   5
BRANCH   1  17
ATOM     15  C   UNL     1      -0.511  -0.512   1.466  0.00  0.00    +0.233 C 
ATOM     16  O   UNL     1      -0.540   0.263   2.398  0.00  0.00    -0.274 OA
ATOM     17  N   UNL     1      -0.369  -1.833   1.691  0.00  0.00    -0.234 N 
ATOM     18  H   UNL     1      -0.346  -2.453   0.946  0.00  0.00    +0.173 HD
BRANCH  15  19
ATOM     19  C   UNL     1      -0.634   0.003   0.054  0.00  0.00    +0.132 C 
BRANCH  19  23
ATOM     20  C   UNL     1      -1.050   4.254   0.119  0.00  0.00    +0.000 A 
ATOM     21  C   UNL     1       0.207   3.683   0.048  0.00  0.00    +0.000 A 
ATOM     22  C   UNL     1       0.342   2.307   0.027  0.00  0.00    +0.004 A 
ATOM     23  C   UNL     1      -0.781   1.502   0.077  0.00  0.00    -0.039 A 
ATOM     24  C   UNL     1      -2.038   2.073   0.143  0.00  0.00    +0.004 A 
ATOM     25  C   UNL     1      -2.172   3.449   0.169  0.00  0.00    +0.000 A 
ENDBRANCH  19  23
ENDBRANCH  15  19
ENDBRANCH   1  17
TORSDOF 5
