REMARK  Name = ZINC05188075
REMARK  3 active torsions:
REMARK  status: ('A' for Active; 'I' for Inactive)
REMARK    1  A    between atoms: C_3  and  C_6
REMARK    2  A    between atoms: N_7  and  N_8
REMARK    3  A    between atoms: C_19  and  C_21
REMARK                            x       y       z     vdW  Elec       q    Type
REMARK                         _______ _______ _______ _____ _____    ______ ____
ROOT
ATOM      1  N   UNL     1      -1.126   2.242   0.022  0.00  0.00    -0.131 N 
ATOM      2  C   UNL     1      -0.073   1.342   0.013  0.00  0.00    +0.189 A 
ATOM      3  N   UNL     1      -0.111   0.030   0.004  0.00  0.00    -0.223 NA
ATOM      4  C   UNL     1       1.006  -0.729  -0.010  0.00  0.00    +0.080 A 
ATOM      5  C   UNL     1       1.103  -2.140  -0.021  0.00  0.00    +0.030 A 
ATOM      6  C   UNL     1       2.326  -2.758  -0.033  0.00  0.00    +0.022 A 
ATOM      7  C   UNL     1       3.507  -2.028  -0.035  0.00  0.00    +0.042 A 
ATOM      8  C   UNL     1       3.450  -0.646  -0.025  0.00  0.00    +0.037 A 
ATOM      9  C   UNL     1       2.228  -0.019  -0.013  0.00  0.00    +0.042 A 
ATOM     10  S   UNL     1       1.684   1.672   0.004  0.00  0.00    -0.050 S 
ATOM     11 CL   UNL     1       5.041  -2.842  -0.051  0.00  0.00    -0.084 Cl
ATOM     12  C   UNL     1      -0.883   3.562   0.146  0.00  0.00    +0.279 C 
ATOM     13  O   UNL     1       0.263   3.972   0.153  0.00  0.00    -0.267 OA
ENDROOT
BRANCH  12  14
ATOM     14  C   UNL     1      -1.998   4.503   0.273  0.00  0.00    +0.076 A 
ATOM     15  C   UNL     1      -1.973   5.889   0.312  0.00  0.00    +0.021 A 
ATOM     16  C   UNL     1      -3.178   6.532   0.438  0.00  0.00    +0.008 A 
ATOM     17  C   UNL     1      -4.318   5.797   0.517  0.00  0.00    +0.046 A 
ATOM     18  S   UNL     1      -3.745   4.164   0.409  0.00  0.00    -0.092 S 
ENDBRANCH  12  14
BRANCH   1  20
ATOM     19  C   UNL     1      -2.685   0.501  -0.113  0.00  0.00    +0.177 C 
ATOM     20  N   UNL     1      -2.443   1.780  -0.099  0.00  0.00    -0.175 NA
BRANCH  19  23
ATOM     21  C   UNL     1      -5.868  -1.289  -0.131  0.00  0.00    +0.042 A 
ATOM     22  C   UNL     1      -4.462  -1.290  -0.132  0.00  0.00    +0.051 A 
ATOM     23  C   UNL     1      -4.069   0.018  -0.117  0.00  0.00    +0.147 A 
ATOM     24  O   UNL     1      -5.176   0.786  -0.102  0.00  0.00    -0.462 OA
ATOM     25  C   UNL     1      -6.265   0.000  -0.116  0.00  0.00    +0.196 A 
ENDBRANCH  19  23
ENDBRANCH   1  20
TORSDOF 3
