REMARK  Name = ZINC03765586
REMARK  8 active torsions:
REMARK  status: ('A' for Active; 'I' for Inactive)
REMARK    1  A    between atoms: C_1  and  C_2
REMARK    2  A    between atoms: C_2  and  C_4
REMARK    3  A    between atoms: C_2  and  N_22
REMARK    4  A    between atoms: C_4  and  C_5
REMARK    5  A    between atoms: C_5  and  C_6
REMARK    6  A    between atoms: N_8  and  C_15
REMARK    7  A    between atoms: C_15  and  C_16
REMARK    8  A    between atoms: C_23  and  C_25
REMARK                            x       y       z     vdW  Elec       q    Type
REMARK                         _______ _______ _______ _____ _____    ______ ____
ROOT
ATOM      1  C   UNL     1      -2.777   2.035   3.348  0.00  0.00    -0.022 A 
ATOM      2  C   UNL     1      -2.606   1.543   2.111  0.00  0.00    +0.090 A 
ATOM      3  N   UNL     1      -1.752   2.345   1.404  0.00  0.00    -0.342 N 
ATOM      4  C   UNL     1      -1.349   3.404   2.187  0.00  0.00    +0.050 A 
ATOM      5  C   UNL     1      -1.974   3.256   3.439  0.00  0.00    +0.003 A 
ATOM      6  C   UNL     1      -1.748   4.197   4.445  0.00  0.00    +0.010 A 
ATOM      7  C   UNL     1      -0.919   5.257   4.209  0.00  0.00    +0.001 A 
ATOM      8  C   UNL     1      -0.300   5.407   2.976  0.00  0.00    +0.002 A 
ATOM      9  C   UNL     1      -0.509   4.491   1.968  0.00  0.00    +0.026 A 
ENDROOT
BRANCH   1  10
ATOM     10  C   UNL     1      -3.638   1.445   4.436  0.00  0.00    +0.039 C 
BRANCH  10  11
ATOM     11  C   UNL     1      -5.015   2.110   4.414  0.00  0.00    +0.027 C 
BRANCH  11  13
ATOM     12  C   UNL     1      -7.303   2.085   5.418  0.00  0.00    +0.028 C 
ATOM     13  C   UNL     1      -5.888   1.511   5.519  0.00  0.00    +0.070 C 
BRANCH  13  14
ATOM     14  N   UNL     1      -5.318   1.844   6.826  0.00  0.00    -0.308 N 
ATOM     15  C   UNL     1      -5.573   1.059   7.892  0.00  0.00    +0.251 C 
ATOM     16  O   UNL     1      -6.277   0.074   7.768  0.00  0.00    -0.270 OA
ATOM     17  H   UNL     1      -4.757   2.629   6.925  0.00  0.00    +0.149 HD
BRANCH  15  18
ATOM     18  C   UNL     1      -5.002   1.392   9.200  0.00  0.00    +0.074 A 
ATOM     19  C   UNL     1      -5.139   0.726  10.408  0.00  0.00    +0.021 A 
ATOM     20  C   UNL     1      -4.489   1.259  11.493  0.00  0.00    +0.008 A 
ATOM     21  C   UNL     1      -3.757   2.393  11.337  0.00  0.00    +0.046 A 
ATOM     22  S   UNL     1      -3.944   2.756   9.652  0.00  0.00    -0.092 S 
ENDBRANCH  15  18
ENDBRANCH  13  14
ENDBRANCH  11  13
ENDBRANCH  10  11
ENDBRANCH   1  10
BRANCH   3  23
ATOM     23  C   UNL     1      -1.332   2.114   0.020  0.00  0.00    +0.157 C 
BRANCH  23  24
ATOM     24  C   UNL     1      -0.017   1.378   0.010  0.00  0.00    -0.028 A 
ATOM     25  C   UNL     1       1.171   2.086   0.002  0.00  0.00    +0.005 A 
ATOM     26  C   UNL     1       2.377   1.411  -0.014  0.00  0.00    +0.000 A 
ATOM     27  C   UNL     1       2.396   0.029  -0.022  0.00  0.00    +0.000 A 
ATOM     28  C   UNL     1       1.208  -0.679  -0.014  0.00  0.00    +0.000 A 
ATOM     29  C   UNL     1       0.002  -0.004   0.002  0.00  0.00    +0.005 A 
ENDBRANCH  23  24
ENDBRANCH   3  23
TORSDOF 7
