REMARK  Name = ZINC59415451
REMARK  6 active torsions:
REMARK  status: ('A' for Active; 'I' for Inactive)
REMARK    1  A    between atoms: C_1  and  C_2
REMARK    2  A    between atoms: C_2  and  C_3
REMARK    3  A    between atoms: C_3  and  C_18
REMARK    4  A    between atoms: N_4  and  N_5
REMARK    5  A    between atoms: C_6  and  C_8
REMARK    6  A    between atoms: C_21  and  O_24
REMARK                            x       y       z     vdW  Elec       q    Type
REMARK                         _______ _______ _______ _____ _____    ______ ____
ROOT
ATOM      1  N   UNL     1      -1.386  -0.495  -2.325  0.00  0.00    -0.202 N 
ATOM      2  C   UNL     1      -2.029  -0.722  -3.487  0.00  0.00    +0.271 C 
ATOM      3  O   UNL     1      -3.171  -1.144  -3.479  0.00  0.00    -0.268 OA
ATOM      4  H   UNL     1      -0.476  -0.160  -2.332  0.00  0.00    +0.178 HD
ENDROOT
BRANCH   2   5
ATOM      5  C   UNL     1      -1.353  -0.462  -4.764  0.00  0.00    +0.095 A 
ATOM      6  C   UNL     1      -1.834  -0.622  -6.027  0.00  0.00    +0.068 A 
ATOM      7  C   UNL     1      -1.019  -0.312  -7.132  0.00  0.00    +0.008 A 
ATOM      8  C   UNL     1      -1.335  -0.412  -8.511  0.00  0.00    +0.010 A 
ATOM      9  C   UNL     1      -0.424  -0.071  -9.459  0.00  0.00    +0.001 A 
ATOM     10  C   UNL     1       0.844   0.386  -9.120  0.00  0.00    +0.001 A 
ATOM     11  C   UNL     1       1.193   0.498  -7.790  0.00  0.00    +0.016 A 
ATOM     12  C   UNL     1       0.279   0.156  -6.816  0.00  0.00    +0.021 A 
ATOM     13  S   UNL     1       0.300   0.151  -5.041  0.00  0.00    -0.082 S 
ATOM     14 CL   UNL     1      -3.449  -1.207  -6.274  0.00  0.00    -0.082 Cl
ENDBRANCH   2   5
BRANCH   1  16
ATOM     15  C   UNL     1      -1.412  -0.526   0.013  0.00  0.00    +0.066 C 
ATOM     16  N   UNL     1      -2.031  -0.744  -1.107  0.00  0.00    -0.184 NA
BRANCH  15  17
ATOM     17  C   UNL     1      -2.091  -0.788   1.294  0.00  0.00    -0.002 A 
ATOM     18  C   UNL     1      -1.428  -0.548   2.501  0.00  0.00    +0.013 A 
ATOM     19  C   UNL     1      -2.067  -0.794   3.697  0.00  0.00    +0.046 A 
ATOM     20  C   UNL     1      -3.368  -1.280   3.704  0.00  0.00    +0.117 A 
ATOM     21  C   UNL     1      -4.031  -1.521   2.507  0.00  0.00    +0.046 A 
ATOM     22  C   UNL     1      -3.402  -1.271   1.307  0.00  0.00    +0.013 A 
BRANCH  20  23
ATOM     23  O   UNL     1      -3.994  -1.522   4.885  0.00  0.00    -0.507 OA
ATOM     24  H   UNL     1      -4.484  -0.764   5.233  0.00  0.00    +0.292 HD
ENDBRANCH  20  23
ENDBRANCH  15  17
BRANCH  15  26
ATOM     25  C   UNL     1      -0.019   1.526   0.010  0.00  0.00    +0.010 C 
ATOM     26  C   UNL     1       0.002  -0.004   0.002  0.00  0.00    +0.054 C 
ENDBRANCH  15  26
ENDBRANCH   1  16
TORSDOF 5
