REMARK  Name = ZINC52496692
REMARK  7 active torsions:
REMARK  status: ('A' for Active; 'I' for Inactive)
REMARK    1  A    between atoms: C_1  and  N_2
REMARK    2  A    between atoms: N_2  and  C_3
REMARK    3  A    between atoms: N_2  and  C_4
REMARK    4  A    between atoms: C_4  and  C_5
REMARK    5  A    between atoms: C_10  and  C_11
REMARK    6  A    between atoms: C_11  and  N_12
REMARK    7  A    between atoms: C_19  and  C_21
REMARK                            x       y       z     vdW  Elec       q    Type
REMARK                         _______ _______ _______ _____ _____    ______ ____
ROOT
ATOM      1  N   UNL     1      -2.581  -2.052   2.574  0.00  0.00    -0.295 N 
ATOM      2  C   UNL     1      -2.708  -1.489   3.792  0.00  0.00    +0.306 C 
ATOM      3  O   UNL     1      -1.746  -1.416   4.532  0.00  0.00    -0.252 OA
ATOM      4  N   UNL     1      -3.902  -1.006   4.190  0.00  0.00    -0.247 N 
ATOM      5  C   UNL     1      -4.034  -0.425   5.447  0.00  0.00    +0.189 A 
ATOM      6  N   UNL     1      -3.129  -0.238   6.397  0.00  0.00    -0.125 NA
ATOM      7  N   UNL     1      -3.417   0.313   7.494  0.00  0.00    -0.140 NA
ATOM      8  C   UNL     1      -4.645   0.741   7.762  0.00  0.00    +0.134 A 
ATOM      9  S   UNL     1      -5.471   0.292   6.238  0.00  0.00    -0.030 S 
ATOM     10  H   UNL     1      -3.349  -2.110   1.984  0.00  0.00    +0.151 HD
ATOM     11  H   UNL     1      -4.670  -1.064   3.600  0.00  0.00    +0.158 HD
ENDROOT
BRANCH   8  12
ATOM     12  C   UNL     1      -5.178   1.403   8.972  0.00  0.00    +0.016 A 
ATOM     13  C   UNL     1      -4.351   1.675  10.059  0.00  0.00    +0.018 A 
ATOM     14  C   UNL     1      -4.875   2.282  11.147  0.00  0.00    +0.046 A 
ATOM     15  S   UNL     1      -6.582   2.499  10.675  0.00  0.00    -0.104 S 
ATOM     16  C   UNL     1      -6.495   1.769   9.048  0.00  0.00    +0.055 A 
ENDBRANCH   8  12
BRANCH   1  17
ATOM     17  C   UNL     1      -1.283  -2.577   2.142  0.00  0.00    +0.141 C 
BRANCH  17  23
ATOM     18  C   UNL     1      -1.270  -2.100  -0.315  0.00  0.00    -0.059 A 
ATOM     19  C   UNL     1      -1.349  -2.513  -1.633  0.00  0.00    +0.002 A 
ATOM     20  C   UNL     1      -1.540  -3.850  -1.928  0.00  0.00    +0.000 A 
ATOM     21  C   UNL     1      -1.652  -4.774  -0.906  0.00  0.00    +0.000 A 
ATOM     22  C   UNL     1      -1.571  -4.362   0.411  0.00  0.00    +0.005 A 
ATOM     23  C   UNL     1      -1.376  -3.025   0.706  0.00  0.00    -0.029 A 
BRANCH  18  24
ATOM     24  C   UNL     1      -1.062  -0.643   0.007  0.00  0.00    -0.043 C 
BRANCH  24  26
ATOM     25  C   UNL     1      -2.135   1.357   0.783  0.00  0.00    -0.096 C 
ATOM     26  N   UNL     1      -2.353  -0.025   0.335  0.00  0.00    +0.379 N 
ATOM     27  C   UNL     1      -3.212  -0.023  -0.856  0.00  0.00    -0.096 C 
ATOM     28  H   UNL     1      -2.800  -0.550   1.071  0.00  0.00    -0.082 HD
ENDBRANCH  24  26
ENDBRANCH  18  24
ENDBRANCH  17  23
ENDBRANCH   1  17
TORSDOF 5
