REMARK  Name = ZINC03954153
REMARK  5 active torsions:
REMARK  status: ('A' for Active; 'I' for Inactive)
REMARK    1  A    between atoms: C_1  and  C_2
REMARK    2  A    between atoms: C_5  and  O_36
REMARK    3  A    between atoms: C_18  and  C_35
REMARK    4  A    between atoms: C_23  and  C_25
REMARK    5  A    between atoms: C_27  and  C_31
REMARK                            x       y       z     vdW  Elec       q    Type
REMARK                         _______ _______ _______ _____ _____    ______ ____
ROOT
ATOM      1  C   UNL     1       0.719   3.584   1.092  0.00  0.00    +0.012 C 
ATOM      2  C   UNL     1      -0.726   3.106   1.252  0.00  0.00    -0.026 C 
ATOM      3  C   UNL     1      -0.726   1.578   1.276  0.00  0.00    +0.010 C 
ATOM      4  C   UNL     1      -0.013   1.086   0.008  0.00  0.00    +0.032 C 
ATOM      5  C   UNL     1      -0.746   1.589  -1.234  0.00  0.00    +0.115 C 
ATOM      6  C   UNL     1      -0.818   3.121  -1.230  0.00  0.00    +0.035 C 
ATOM      7  C   UNL     1      -1.536   3.569   0.039  0.00  0.00    -0.002 C 
ATOM      8  C   UNL     1      -1.706   5.082   0.108  0.00  0.00    +0.004 C 
ATOM      9  C   UNL     1      -2.676   5.399   1.248  0.00  0.00    +0.004 C 
ATOM     10  C   UNL     1      -2.709   4.258   2.265  0.00  0.00    -0.004 C 
ATOM     11  C   UNL     1      -1.305   3.706   2.526  0.00  0.00    -0.001 C 
ATOM     12  C   UNL     1      -1.300   2.645   3.624  0.00  0.00    +0.005 C 
ATOM     13  C   UNL     1      -1.972   3.146   4.911  0.00  0.00    +0.008 C 
ATOM     14  C   UNL     1      -3.384   3.563   4.542  0.00  0.00    -0.021 C 
ATOM     15  C   UNL     1      -3.258   4.777   3.583  0.00  0.00    -0.001 C 
ATOM     16  C   UNL     1      -4.699   5.296   3.546  0.00  0.00    +0.005 C 
ATOM     17  C   UNL     1      -5.146   5.187   5.029  0.00  0.00    +0.010 C 
ATOM     18  C   UNL     1      -4.249   4.102   5.677  0.00  0.00    +0.046 C 
ATOM     19  C   UNL     1      -4.102   2.407   3.844  0.00  0.00    +0.012 C 
ENDROOT
BRANCH  18  20
ATOM     20  C   UNL     1      -5.097   2.999   6.256  0.00  0.00    +0.067 A 
ATOM     21  C   UNL     1      -6.338   2.576   5.768  0.00  0.00    +0.057 A 
ATOM     22  C   UNL     1      -6.774   1.568   6.559  0.00  0.00    +0.139 A 
ATOM     23  N   UNL     1      -5.843   1.361   7.514  0.00  0.00    -0.273 N 
ATOM     24  H   UNL     1      -5.891   0.681   8.245  0.00  0.00    +0.189 HD
ATOM     25  N   UNL     1      -4.797   2.268   7.299  0.00  0.00    -0.178 NA
BRANCH  22  26
ATOM     26  C   UNL     1      -8.069   0.813   6.403  0.00  0.00    +0.434 C 
ATOM     27  F   UNL     1      -8.169  -0.154   7.409  0.00  0.00    -0.164 F 
ATOM     28  F   UNL     1      -9.143   1.704   6.503  0.00  0.00    -0.164 F 
ATOM     29  F   UNL     1      -8.096   0.189   5.151  0.00  0.00    -0.164 F 
ENDBRANCH  22  26
ENDBRANCH  18  20
BRANCH   5  30
ATOM     30  O   UNL     1      -0.051   1.152  -2.404  0.00  0.00    -0.392 OA
ATOM     31  H   UNL     1       0.021   0.191  -2.482  0.00  0.00    +0.210 HD
ENDBRANCH   5  30
TORSDOF 3
