REMARK  Name = ZINC49964438
REMARK  6 active torsions:
REMARK  status: ('A' for Active; 'I' for Inactive)
REMARK    1  A    between atoms: C_1  and  C_2
REMARK    2  A    between atoms: C_2  and  C_4
REMARK    3  A    between atoms: C_2  and  C_15
REMARK    4  A    between atoms: C_4  and  C_5
REMARK    5  A    between atoms: C_8  and  N_12
REMARK    6  A    between atoms: C_15  and  C_17
REMARK                            x       y       z     vdW  Elec       q    Type
REMARK                         _______ _______ _______ _____ _____    ______ ____
ROOT
ATOM      1  C   UNL     1      -2.100  -0.151   1.309  0.00  0.00    -0.029 A 
ATOM      2  C   UNL     1      -2.110  -1.038   2.370  0.00  0.00    +0.007 A 
ATOM      3  C   UNL     1      -2.722  -0.687   3.558  0.00  0.00    +0.033 A 
ATOM      4  C   UNL     1      -3.325   0.550   3.688  0.00  0.00    +0.128 A 
ATOM      5  C   UNL     1      -3.315   1.438   2.628  0.00  0.00    +0.053 A 
ATOM      6  C   UNL     1      -2.698   1.090   1.440  0.00  0.00    +0.046 A 
ATOM      7 CL   UNL     1      -2.679   2.207   0.111  0.00  0.00    -0.083 Cl
ENDROOT
BRANCH   4   8
ATOM      8  N   UNL     1      -3.980   0.924   4.960  0.00  0.00    +0.056 N 
ATOM      9  O   UNL     1      -3.989   0.148   5.887  0.00  0.00    -0.126 OA
ATOM     10  O   UNL     1      -4.508   2.007   5.074  0.00  0.00    -0.126 OA
ENDBRANCH   4   8
BRANCH   1  11
ATOM     11  C   UNL     1      -1.433  -0.534   0.013  0.00  0.00    +0.041 C 
BRANCH  11  13
ATOM     12  C   UNL     1      -0.019   1.526   0.010  0.00  0.00    +0.009 C 
ATOM     13  C   UNL     1       0.002  -0.004   0.002  0.00  0.00    +0.004 C 
BRANCH  13  14
ATOM     14  C   UNL     1       0.718  -0.497  -1.257  0.00  0.00    +0.057 C 
ATOM     15  C   UNL     1       0.739  -2.027  -1.265  0.00  0.00    +0.020 C 
ATOM     16 BR   UNL     1      -0.233   0.154  -2.849  0.00  0.00    -0.088 Br
ENDBRANCH  13  14
ENDBRANCH  11  13
ENDBRANCH   1  11
TORSDOF 4
