REMARK  Name = ZINC33217584
REMARK  8 active torsions:
REMARK  status: ('A' for Active; 'I' for Inactive)
REMARK    1  A    between atoms: C_1  and  C_2
REMARK    2  A    between atoms: C_8  and  C_13
REMARK    3  A    between atoms: C_9  and  C_12
REMARK    4  A    between atoms: C_13  and  C_14
REMARK    5  A    between atoms: N_16  and  C_17
REMARK    6  A    between atoms: C_24  and  C_26
REMARK    7  A    between atoms: C_26  and  C_27
REMARK    8  A    between atoms: C_26  and  C_28
REMARK                            x       y       z     vdW  Elec       q    Type
REMARK                         _______ _______ _______ _____ _____    ______ ____
ROOT
ATOM      1  C   UNL     1       2.732  -1.621   8.183  0.00  0.00    +0.222 C 
ATOM      2  O   UNL     1       3.735  -1.036   7.830  0.00  0.00    -0.275 OA
ATOM      3  N   UNL     1       1.587  -1.476   7.488  0.00  0.00    -0.285 N 
ATOM      4  H   UNL     1       0.658  -1.936   7.856  0.00  0.00    +0.155 HD
ENDROOT
BRANCH   3   5
ATOM      5  C   UNL     1       1.579  -0.740   6.296  0.00  0.00    +0.036 A 
ATOM      6  C   UNL     1       0.451  -0.002   5.944  0.00  0.00    +0.027 A 
ATOM      7  C   UNL     1       0.432   0.726   4.774  0.00  0.00    +0.050 A 
ATOM      8  C   UNL     1       1.540   0.727   3.939  0.00  0.00    +0.155 A 
ATOM      9  C   UNL     1       2.679  -0.014   4.288  0.00  0.00    +0.111 A 
ATOM     10  C   UNL     1       2.691  -0.748   5.474  0.00  0.00    +0.055 A 
ATOM     11  N   UNL     1       3.586   0.179   3.292  0.00  0.00    -0.213 NA
ATOM     12  C   UNL     1       3.066   0.968   2.399  0.00  0.00    +0.199 A 
ATOM     13  O   UNL     1       1.824   1.325   2.761  0.00  0.00    -0.439 OA
BRANCH  12  14
ATOM     14  C   UNL     1       3.761   1.421   1.141  0.00  0.00    +0.069 C 
ATOM     15  C   UNL     1       3.870   2.947   1.140  0.00  0.00    +0.017 C 
ATOM     16  C   UNL     1       2.956   0.966  -0.078  0.00  0.00    +0.017 C 
ENDBRANCH  12  14
ENDBRANCH   3   5
BRANCH   1  17
ATOM     17  C   UNL     1       2.768  -2.510   9.399  0.00  0.00    +0.133 C 
BRANCH  17  25
ATOM     18  C   UNL     1       4.259   1.328  13.383  0.00  0.00    +0.044 C 
ATOM     19  C   UNL     1       4.861   0.173  12.624  0.00  0.00    -0.050 A 
ATOM     20  C   UNL     1       6.180  -0.191  12.857  0.00  0.00    +0.005 A 
ATOM     21  C   UNL     1       6.750  -1.243  12.174  0.00  0.00    +0.026 A 
ATOM     22  C   UNL     1       5.998  -1.949  11.241  0.00  0.00    +0.047 A 
ATOM     23  C   UNL     1       4.661  -1.576  11.008  0.00  0.00    +0.004 A 
ATOM     24  C   UNL     1       4.104  -0.507  11.712  0.00  0.00    +0.013 A 
ATOM     25  C   UNL     1       4.155  -2.499   9.989  0.00  0.00    -0.011 A 
ATOM     26  C   UNL     1       5.159  -3.336   9.684  0.00  0.00    +0.018 A 
ATOM     27  N   UNL     1       6.270  -3.019  10.418  0.00  0.00    -0.358 N 
ATOM     28  H   UNL     1       7.269  -3.480  10.427  0.00  0.00    +0.166 HD
ATOM     29  C   UNL     1       5.076  -4.457   8.680  0.00  0.00    +0.063 C 
ENDBRANCH  17  25
ENDBRANCH   1  17
TORSDOF 4
