REMARK  Name = ZINC03871019
REMARK  4 active torsions:
REMARK  status: ('A' for Active; 'I' for Inactive)
REMARK    1  A    between atoms: C_1  and  C_2
REMARK    2  A    between atoms: C_10  and  O_25
REMARK    3  A    between atoms: C_11  and  O_24
REMARK    4  A    between atoms: C_21  and  O_23
REMARK                            x       y       z     vdW  Elec       q    Type
REMARK                         _______ _______ _______ _____ _____    ______ ____
ROOT
ATOM      1  C   UNL     1       6.402  -1.384  -1.355  0.00  0.00    +0.014 C 
ATOM      2  C   UNL     1       6.147  -1.835   0.089  0.00  0.00    -0.003 C 
ATOM      3  C   UNL     1       5.200  -3.010   0.108  0.00  0.00    +0.010 C 
ATOM      4  C   UNL     1       3.757  -2.544   0.384  0.00  0.00    +0.009 C 
ATOM      5  C   UNL     1       3.550  -1.172  -0.228  0.00  0.00    +0.023 C 
ATOM      6  C   UNL     1       2.127  -0.707  -0.303  0.00  0.00    -0.037 A 
ATOM      7  C   UNL     1       1.096  -1.626  -0.346  0.00  0.00    +0.008 A 
ATOM      8  C   UNL     1      -0.215  -1.201  -0.410  0.00  0.00    +0.049 A 
ATOM      9  C   UNL     1      -0.492   0.156  -0.458  0.00  0.00    +0.159 A 
ATOM     10  C   UNL     1       0.543   1.078  -0.426  0.00  0.00    +0.162 A 
ATOM     11  C   UNL     1       1.869   0.654  -0.346  0.00  0.00    +0.001 A 
ATOM     12  C   UNL     1       2.938   1.709  -0.316  0.00  0.00    +0.039 C 
ATOM     13  C   UNL     1       4.361   1.142  -0.301  0.00  0.00    +0.009 C 
ATOM     14  C   UNL     1       4.346  -0.120   0.553  0.00  0.00    +0.000 C 
ATOM     15  C   UNL     1       5.663  -0.676   0.985  0.00  0.00    +0.001 C 
ATOM     16  C   UNL     1       6.872   0.268   0.968  0.00  0.00    +0.007 C 
ATOM     17  C   UNL     1       8.081  -0.706   1.042  0.00  0.00    +0.032 C 
ATOM     18  C   UNL     1       7.537  -2.113   0.700  0.00  0.00    +0.121 C 
ENDROOT
BRANCH  18  19
ATOM     19  O   UNL     1       8.363  -2.750  -0.274  0.00  0.00    -0.391 OA
ATOM     20  H   UNL     1       9.255  -2.955   0.040  0.00  0.00    +0.210 HD
ENDBRANCH  18  19
BRANCH  10  21
ATOM     21  O   UNL     1       0.265   2.407  -0.475  0.00  0.00    -0.503 OA
ATOM     22  H   UNL     1       0.138   2.814   0.393  0.00  0.00    +0.292 HD
ENDBRANCH  10  21
BRANCH   9  23
ATOM     23  O   UNL     1      -1.780   0.584  -0.540  0.00  0.00    -0.503 OA
ATOM     24  H   UNL     1      -2.203   0.728   0.318  0.00  0.00    +0.292 HD
ENDBRANCH   9  23
TORSDOF 3
