REMARK  Name = ZINC38686726
REMARK  9 active torsions:
REMARK  status: ('A' for Active; 'I' for Inactive)
REMARK    1  A    between atoms: C_3  and  C_16
REMARK    2  A    between atoms: C_5  and  O_7
REMARK    3  A    between atoms: O_7  and  C_8
REMARK    4  A    between atoms: C_8  and  C_9
REMARK    5  A    between atoms: C_21  and  O_30
REMARK    6  A    between atoms: C_25  and  N_29
REMARK    7  A    between atoms: C_26  and  C_27
REMARK    8  A    between atoms: O_30  and  C_31
REMARK    9  A    between atoms: C_31  and  C_33
REMARK                            x       y       z     vdW  Elec       q    Type
REMARK                         _______ _______ _______ _____ _____    ______ ____
ROOT
ATOM      1  C   UNL     1       3.656   2.138   0.015  0.00  0.00    +0.098 C 
ATOM      2  C   UNL     1       3.738   3.006   1.244  0.00  0.00    +0.008 A 
ATOM      3  C   UNL     1       3.959   2.419   2.477  0.00  0.00    +0.012 A 
ATOM      4  C   UNL     1       4.038   3.199   3.614  0.00  0.00    +0.047 A 
ATOM      5  C   UNL     1       3.895   4.576   3.522  0.00  0.00    +0.136 A 
ATOM      6  C   UNL     1       3.674   5.166   2.288  0.00  0.00    +0.093 A 
ATOM      7  C   UNL     1       3.595   4.381   1.145  0.00  0.00    +0.138 A 
ATOM      8  O   UNL     1       3.377   4.973  -0.054  0.00  0.00    -0.441 OA
ATOM      9  C   UNL     1       3.677   4.319  -1.189  0.00  0.00    +0.199 C 
ATOM     10  C   UNL     1       3.821   2.976  -1.221  0.00  0.00    +0.098 C 
ENDROOT
BRANCH   1  13
ATOM     11  C   UNL     1      -0.077   1.577  -0.104  0.00  0.00    +0.004 A 
ATOM     12  C   UNL     1       1.156   2.203  -0.069  0.00  0.00    +0.005 A 
ATOM     13  C   UNL     1       2.315   1.452  -0.022  0.00  0.00    -0.031 A 
ATOM     14  C   UNL     1       2.245   0.072  -0.009  0.00  0.00    +0.050 A 
ATOM     15  C   UNL     1       1.010  -0.559  -0.044  0.00  0.00    +0.121 A 
ATOM     16  C   UNL     1      -0.152   0.198  -0.091  0.00  0.00    +0.045 A 
BRANCH  15  17
ATOM     17  O   UNL     1       0.939  -1.916  -0.031  0.00  0.00    -0.487 OA
BRANCH  17  18
ATOM     18  C   UNL     1      -0.366  -2.498  -0.069  0.00  0.00    +0.264 C 
BRANCH  18  19
ATOM     19  C   UNL     1      -0.247  -4.000  -0.048  0.00  0.00    -0.010 A 
ATOM     20  C   UNL     1      -0.147  -4.701  -1.236  0.00  0.00    +0.008 A 
ATOM     21  C   UNL     1      -0.038  -6.079  -1.218  0.00  0.00    +0.020 A 
ATOM     22  C   UNL     1      -0.030  -6.756  -0.011  0.00  0.00    +0.041 A 
ATOM     23  C   UNL     1      -0.130  -6.054   1.177  0.00  0.00    +0.020 A 
ATOM     24  C   UNL     1      -0.233  -4.676   1.158  0.00  0.00    +0.008 A 
ATOM     25 CL   UNL     1       0.106  -8.487   0.012  0.00  0.00    -0.084 Cl
ENDBRANCH  18  19
ENDBRANCH  17  18
ENDBRANCH  15  17
ENDBRANCH   1  13
BRANCH   9  26
ATOM     26  N   UNL     1       3.838   5.036  -2.348  0.00  0.00    -0.328 N 
ATOM     27  H   UNL     1       3.737   6.000  -2.340  0.00  0.00    +0.145 HD
ATOM     28  H   UNL     1       4.055   4.578  -3.175  0.00  0.00    +0.145 HD
ENDBRANCH   9  26
BRANCH  10  29
ATOM     29  C   UNL     1       4.139   2.339  -2.463  0.00  0.00    +0.101 C 
ATOM     30  N   UNL     1       4.392   1.833  -3.449  0.00  0.00    -0.191 NA
ENDBRANCH  10  29
BRANCH   5  31
ATOM     31  O   UNL     1       3.971   5.345   4.640  0.00  0.00    -0.420 OA
BRANCH  31  32
ATOM     32  C   UNL     1       5.170   5.463   5.247  0.00  0.00    +0.380 C 
ATOM     33  O   UNL     1       6.161   4.977   4.735  0.00  0.00    -0.241 OA
BRANCH  32  34
ATOM     34  C   UNL     1       5.279   6.175   6.522  0.00  0.00    +0.212 A 
ATOM     35  C   UNL     1       6.427   6.371   7.237  0.00  0.00    +0.056 A 
ATOM     36  C   UNL     1       6.069   7.097   8.383  0.00  0.00    +0.042 A 
ATOM     37  C   UNL     1       4.736   7.309   8.319  0.00  0.00    +0.196 A 
ATOM     38  O   UNL     1       4.264   6.758   7.194  0.00  0.00    -0.456 OA
ENDBRANCH  32  34
ENDBRANCH  31  32
ENDBRANCH   5  31
TORSDOF 9
