REMARK  Name = ZINC39449172
REMARK  6 active torsions:
REMARK  status: ('A' for Active; 'I' for Inactive)
REMARK    1  A    between atoms: C_1  and  C_2
REMARK    2  A    between atoms: C_2  and  C_3
REMARK    3  A    between atoms: C_2  and  S_4
REMARK    4  A    between atoms: S_4  and  C_7
REMARK    5  A    between atoms: C_20  and  C_23
REMARK    6  A    between atoms: C_23  and  C_24
REMARK                            x       y       z     vdW  Elec       q    Type
REMARK                         _______ _______ _______ _____ _____    ______ ____
ROOT
ATOM      1  C   UNL     1      -0.038   0.027   2.837  0.00  0.00    +0.107 A 
ATOM      2  C   UNL     1       0.273   1.265   3.371  0.00  0.00    +0.044 A 
ATOM      3  C   UNL     1      -0.484   1.721   4.451  0.00  0.00    +0.070 A 
ATOM      4  C   UNL     1      -1.526   0.912   4.953  0.00  0.00    +0.099 A 
ATOM      5  C   UNL     1      -2.309   1.415   6.090  0.00  0.00    +0.082 A 
ATOM      6  C   UNL     1      -2.010   2.648   6.638  0.00  0.00    +0.127 A 
ATOM      7  N   UNL     1      -0.980   3.425   6.124  0.00  0.00    -0.213 N 
ATOM      8  C   UNL     1      -0.228   3.022   5.084  0.00  0.00    +0.276 A 
ATOM      9  O   UNL     1       0.666   3.736   4.666  0.00  0.00    -0.266 OA
ATOM     10 CL   UNL     1      -0.658   4.946   6.837  0.00  0.00    +0.022 Cl
ATOM     11  C   UNL     1      -2.756   3.127   7.739  0.00  0.00    +0.184 C 
ATOM     12  O   UNL     1      -2.523   4.232   8.188  0.00  0.00    -0.290 OA
ATOM     13  C   UNL     1      -3.836   2.281   8.362  0.00  0.00    +0.103 C 
ATOM     14  C   UNL     1      -4.443   1.366   7.293  0.00  0.00    +0.082 C 
ATOM     15  N   UNL     1      -3.345   0.663   6.612  0.00  0.00    -0.337 N 
ATOM     16  N   UNL     1      -1.780  -0.268   4.401  0.00  0.00    -0.251 NA
ATOM     17  C   UNL     1      -1.081  -0.712   3.378  0.00  0.00    +0.138 A 
ATOM     18  H   UNL     1      -3.348  -0.304   6.530  0.00  0.00    +0.146 HD
ENDROOT
BRANCH   1  19
ATOM     19  S   UNL     1       0.879  -0.605   1.472  0.00  0.00    +0.001 S 
ATOM     20  O   UNL     1       0.754  -2.017   1.573  0.00  0.00    -0.169 OA
ATOM     21  O   UNL     1       2.152   0.018   1.571  0.00  0.00    -0.169 OA
BRANCH  19  23
ATOM     22  C   UNL     1      -0.019   1.526   0.010  0.00  0.00    +0.032 C 
ATOM     23  C   UNL     1       0.002  -0.004   0.002  0.00  0.00    +0.130 C 
ATOM     24  C   UNL     1       0.718  -0.497  -1.257  0.00  0.00    +0.032 C 
ENDBRANCH  19  23
ENDBRANCH   1  19
BRANCH  14  25
ATOM     25  C   UNL     1      -5.227   2.203   6.281  0.00  0.00    +0.057 C 
BRANCH  25  26
ATOM     26  C   UNL     1      -5.923   1.290   5.304  0.00  0.00    -0.046 A 
ATOM     27  C   UNL     1      -5.280   0.901   4.144  0.00  0.00    +0.004 A 
ATOM     28  C   UNL     1      -5.918   0.063   3.248  0.00  0.00    +0.000 A 
ATOM     29  C   UNL     1      -7.198  -0.386   3.513  0.00  0.00    +0.000 A 
ATOM     30  C   UNL     1      -7.840   0.002   4.674  0.00  0.00    +0.000 A 
ATOM     31  C   UNL     1      -7.201   0.837   5.572  0.00  0.00    +0.004 A 
ENDBRANCH  25  26
ENDBRANCH  14  25
TORSDOF 4
