REMARK  Name = ZINC22028670
REMARK  7 active torsions:
REMARK  status: ('A' for Active; 'I' for Inactive)
REMARK    1  A    between atoms: N_13  and  C_14
REMARK    2  A    between atoms: C_14  and  C_15
REMARK    3  A    between atoms: C_15  and  C_17
REMARK    4  A    between atoms: C_15  and  O_34
REMARK    5  A    between atoms: C_17  and  N_18
REMARK    6  A    between atoms: N_21  and  C_24
REMARK    7  A    between atoms: C_24  and  C_25
REMARK                            x       y       z     vdW  Elec       q    Type
REMARK                         _______ _______ _______ _____ _____    ______ ____
ROOT
ATOM      1  C   UNL     1       8.973  -4.631  -1.124  0.00  0.00    +0.148 C 
ENDROOT
BRANCH   1   2
ATOM      2  O   UNL     1       7.725  -4.971  -1.733  0.00  0.00    -0.389 OA
ATOM      3  H   UNL     1       6.781  -4.713  -1.232  0.00  0.00    +0.210 HD
ENDBRANCH   1   2
BRANCH   1   4
ATOM      4  C   UNL     1      10.122  -5.098  -2.020  0.00  0.00    +0.155 C 
BRANCH   4  17
ATOM      5  C   UNL     1       8.273  -9.239  -4.669  0.00  0.00    +0.001 A 
ATOM      6  C   UNL     1       8.040  -7.894  -4.912  0.00  0.00    +0.002 A 
ATOM      7  C   UNL     1       8.611  -6.928  -4.111  0.00  0.00    +0.026 A 
ATOM      8  C   UNL     1       9.427  -7.299  -3.047  0.00  0.00    +0.050 A 
ATOM      9  C   UNL     1       9.661  -8.660  -2.802  0.00  0.00    +0.008 A 
ATOM     10  C   UNL     1       9.079  -9.626  -3.620  0.00  0.00    +0.010 A 
ATOM     11  C   UNL     1      10.550  -8.728  -1.628  0.00  0.00    +0.009 A 
ATOM     12  C   UNL     1      11.123  -9.782  -0.920  0.00  0.00    +0.026 A 
ATOM     13  C   UNL     1      11.931  -9.518   0.165  0.00  0.00    +0.019 A 
ATOM     14  C   UNL     1      12.176  -8.209   0.552  0.00  0.00    +0.017 A 
ATOM     15  C   UNL     1      11.615  -7.157  -0.140  0.00  0.00    +0.027 A 
ATOM     16  C   UNL     1      10.801  -7.403  -1.241  0.00  0.00    +0.050 A 
ATOM     17  N   UNL     1      10.115  -6.561  -2.099  0.00  0.00    -0.337 N 
ATOM     18 BR   UNL     1      12.711 -10.947   1.129  0.00  0.00    -0.050 Br
ENDBRANCH   4  17
ENDBRANCH   1   4
BRANCH   1  19
ATOM     19  C   UNL     1       9.054  -3.114  -0.940  0.00  0.00    +0.117 C 
BRANCH  19  20
ATOM     20  N   UNL     1       7.992  -2.675  -0.025  0.00  0.00    -0.303 NA
ATOM     21  C   UNL     1       8.327  -3.005   1.367  0.00  0.00    +0.066 C 
ATOM     22  C   UNL     1       7.164  -2.604   2.278  0.00  0.00    -0.063 C 
ATOM     23  N   UNL     1       6.903  -1.165   2.129  0.00  0.00    +0.384 N 
ATOM     24  C   UNL     1       6.569  -0.835   0.737  0.00  0.00    -0.063 C 
ATOM     25  C   UNL     1       7.731  -1.236  -0.173  0.00  0.00    +0.066 C 
ATOM     26  H   UNL     1       7.823  -0.624   2.396  0.00  0.00    -0.081 HD
BRANCH  23  27
ATOM     27  C   UNL     1       5.841  -0.725   3.044  0.00  0.00    -0.043 C 
BRANCH  27  28
ATOM     28  C   UNL     1       5.770   0.780   3.044  0.00  0.00    -0.060 A 
ATOM     29  C   UNL     1       4.946   1.431   2.145  0.00  0.00    +0.005 A 
ATOM     30  C   UNL     1       4.877   2.812   2.140  0.00  0.00    +0.050 A 
ATOM     31  C   UNL     1       5.634   3.547   3.038  0.00  0.00    +0.166 A 
ATOM     32  C   UNL     1       6.463   2.891   3.945  0.00  0.00    +0.166 A 
ATOM     33  C   UNL     1       6.527   1.507   3.943  0.00  0.00    +0.051 A 
ATOM     34  O   UNL     1       7.096   3.825   4.713  0.00  0.00    -0.453 OA
ATOM     35  C   UNL     1       6.340   5.038   4.543  0.00  0.00    +0.466 C 
ATOM     36  O   UNL     1       5.747   4.892   3.238  0.00  0.00    -0.453 OA
ENDBRANCH  27  28
ENDBRANCH  23  27
ENDBRANCH  19  20
ENDBRANCH   1  19
TORSDOF 7
