REMARK  Name = ZINC39991970
REMARK  7 active torsions:
REMARK  status: ('A' for Active; 'I' for Inactive)
REMARK    1  A    between atoms: C_1  and  N_2
REMARK    2  A    between atoms: C_3  and  C_5
REMARK    3  A    between atoms: C_9  and  N_10
REMARK    4  A    between atoms: C_11  and  C_13
REMARK    5  A    between atoms: C_13  and  C_22
REMARK    6  A    between atoms: C_14  and  C_15
REMARK    7  A    between atoms: C_19  and  O_21
REMARK                            x       y       z     vdW  Elec       q    Type
REMARK                         _______ _______ _______ _____ _____    ______ ____
ROOT
ATOM      1  N   UNL     1       2.647  -2.321   0.444  0.00  0.00    -0.275 N 
ATOM      2  C   UNL     1       3.567  -3.166   0.951  0.00  0.00    +0.259 C 
ATOM      3  O   UNL     1       3.312  -4.351   1.054  0.00  0.00    -0.269 OA
ATOM      4  H   UNL     1       2.850  -1.376   0.362  0.00  0.00    +0.156 HD
ENDROOT
BRANCH   1   9
ATOM      5  C   UNL     1       0.353  -2.087  -0.498  0.00  0.00    +0.069 A 
ATOM      6  C   UNL     1      -0.843  -2.834  -0.847  0.00  0.00    -0.023 A 
ATOM      7  C   UNL     1      -0.763  -4.157  -0.588  0.00  0.00    -0.004 A 
ATOM      8  S   UNL     1       0.853  -4.384   0.096  0.00  0.00    -0.077 S 
ATOM      9  C   UNL     1       1.412  -2.802   0.041  0.00  0.00    +0.085 A 
ATOM     10  C   UNL     1      -1.823  -5.187  -0.831  0.00  0.00    +0.043 C 
ATOM     11  C   UNL     1      -3.155  -4.461  -1.071  0.00  0.00    +0.005 C 
ATOM     12  C   UNL     1      -2.931  -3.337  -2.087  0.00  0.00    +0.005 C 
ATOM     13  C   UNL     1      -2.096  -2.221  -1.454  0.00  0.00    +0.037 C 
BRANCH   5  16
ATOM     14  C   UNL     1       0.143   1.657   0.045  0.00  0.00    +0.128 C 
ATOM     15  N   UNL     1       0.057   0.210   0.260  0.00  0.00    -0.314 N 
ATOM     16  C   UNL     1       0.440  -0.640  -0.713  0.00  0.00    +0.246 C 
ATOM     17  O   UNL     1       0.857  -0.205  -1.771  0.00  0.00    -0.270 OA
ATOM     18  H   UNL     1      -0.275  -0.136   1.103  0.00  0.00    +0.149 HD
ENDBRANCH   5  16
ENDBRANCH   1   9
BRANCH   2  19
ATOM     19  C   UNL     1       4.879  -2.654   1.379  0.00  0.00    +0.114 C 
ATOM     20  C   UNL     1       5.811  -3.511   1.893  0.00  0.00    +0.032 C 
BRANCH  20  21
ATOM     21  C   UNL     1       7.051  -2.983   2.473  0.00  0.00    -0.020 A 
ATOM     22  C   UNL     1       7.040  -1.770   3.173  0.00  0.00    +0.008 A 
ATOM     23  C   UNL     1       8.208  -1.279   3.716  0.00  0.00    +0.004 A 
ATOM     24  C   UNL     1       9.393  -1.980   3.573  0.00  0.00    +0.045 A 
ATOM     25  C   UNL     1       9.415  -3.184   2.881  0.00  0.00    +0.117 A 
ATOM     26  C   UNL     1       8.250  -3.692   2.335  0.00  0.00    +0.053 A 
BRANCH  25  27
ATOM     27  O   UNL     1      10.583  -3.867   2.744  0.00  0.00    -0.507 OA
ATOM     28  H   UNL     1      10.754  -4.499   3.455  0.00  0.00    +0.292 HD
ENDBRANCH  25  27
ENDBRANCH  20  21
BRANCH  19  29
ATOM     29  C   UNL     1       5.178  -1.259   1.258  0.00  0.00    +0.104 C 
ATOM     30  N   UNL     1       5.415  -0.153   1.161  0.00  0.00    -0.191 NA
ENDBRANCH  19  29
ENDBRANCH   2  19
TORSDOF 6
