REMARK  Name = ZINC20738479
REMARK  6 active torsions:
REMARK  status: ('A' for Active; 'I' for Inactive)
REMARK    1  A    between atoms: C_1  and  O_2
REMARK    2  A    between atoms: O_2  and  C_3
REMARK    3  A    between atoms: C_3  and  C_4
REMARK    4  A    between atoms: C_4  and  N_5
REMARK    5  A    between atoms: C_14  and  C_22
REMARK    6  A    between atoms: C_22  and  N_24
REMARK                            x       y       z     vdW  Elec       q    Type
REMARK                         _______ _______ _______ _____ _____    ______ ____
ROOT
ATOM      1  N   UNL     1       1.280  -2.525  -0.235  0.00  0.00    -0.288 N 
ATOM      2  C   UNL     1       0.555  -2.537  -1.379  0.00  0.00    +0.247 C 
ATOM      3  O   UNL     1      -0.495  -1.935  -1.445  0.00  0.00    -0.270 OA
ATOM      4  C   UNL     1       1.042  -3.333  -2.525  0.00  0.00    +0.041 A 
ATOM      5  C   UNL     1       0.424  -3.247  -3.771  0.00  0.00    +0.013 A 
ATOM      6  C   UNL     1       0.905  -3.997  -4.825  0.00  0.00    +0.001 A 
ATOM      7  C   UNL     1       1.998  -4.826  -4.647  0.00  0.00    +0.000 A 
ATOM      8  C   UNL     1       2.615  -4.916  -3.411  0.00  0.00    +0.005 A 
ATOM      9  C   UNL     1       2.139  -4.178  -2.348  0.00  0.00    -0.021 A 
ATOM     10  C   UNL     1       2.782  -4.282  -0.990  0.00  0.00    +0.131 C 
ATOM     11  C   UNL     1       2.686  -2.919  -0.277  0.00  0.00    +0.053 C 
ATOM     12  C   UNL     1       3.460  -1.921  -1.149  0.00  0.00    +0.027 C 
ATOM     13  C   UNL     1       3.566  -0.570  -0.444  0.00  0.00    +0.002 C 
ATOM     14  C   UNL     1       4.383  -0.763   0.836  0.00  0.00    +0.000 C 
ATOM     15  C   UNL     1       3.632  -1.709   1.769  0.00  0.00    +0.002 C 
ATOM     16  C   UNL     1       3.317  -3.037   1.098  0.00  0.00    +0.027 C 
ENDROOT
BRANCH  10  17
ATOM     17  C   UNL     1       2.077  -5.337  -0.182  0.00  0.00    +0.248 C 
ATOM     18  O   UNL     1       1.542  -5.040   0.869  0.00  0.00    -0.273 OA
BRANCH  17  19
ATOM     19  N   UNL     1       2.039  -6.591  -0.617  0.00  0.00    -0.156 NA
ATOM     20  C   UNL     1       1.328  -7.503   0.043  0.00  0.00    +0.164 A 
ATOM     21  N   UNL     1       0.666  -7.351   1.218  0.00  0.00    -0.335 N 
ATOM     22  H   UNL     1       0.678  -6.497   1.676  0.00  0.00    +0.168 HD
ATOM     23  C   UNL     1      -0.026  -8.418   1.760  0.00  0.00    +0.055 A 
ATOM     24  C   UNL     1      -0.768  -8.481   2.947  0.00  0.00    +0.027 A 
ATOM     25  C   UNL     1      -1.393  -9.648   3.322  0.00  0.00    +0.002 A 
ATOM     26  C   UNL     1      -1.306 -10.789   2.543  0.00  0.00    +0.001 A 
ATOM     27  C   UNL     1      -0.580 -10.754   1.366  0.00  0.00    +0.017 A 
ATOM     28  C   UNL     1       0.044  -9.588   0.990  0.00  0.00    +0.039 A 
ATOM     29  S   UNL     1       1.042  -9.101  -0.393  0.00  0.00    -0.052 S 
ENDBRANCH  17  19
ENDBRANCH  10  17
BRANCH   1  30
ATOM     30  C   UNL     1       0.613  -2.108   0.995  0.00  0.00    +0.136 C 
BRANCH  30  31
ATOM     31  C   UNL     1       0.648  -0.583   1.104  0.00  0.00    +0.178 C 
BRANCH  31  33
ATOM     32  C   UNL     1      -0.082   1.418   0.004  0.00  0.00    +0.194 C 
ATOM     33  O   UNL     1      -0.055  -0.010  -0.001  0.00  0.00    -0.381 OA
ENDBRANCH  31  33
ENDBRANCH  30  31
ENDBRANCH   1  30
TORSDOF 5
