REMARK  Name = ZINC29579562
REMARK  11 active torsions:
REMARK  status: ('A' for Active; 'I' for Inactive)
REMARK    1  A    between atoms: C_1  and  C_2
REMARK    2  A    between atoms: C_4  and  C_27
REMARK    3  A    between atoms: C_5  and  C_24
REMARK    4  A    between atoms: C_6  and  C_23
REMARK    5  A    between atoms: C_7  and  C_8
REMARK    6  A    between atoms: C_8  and  S_9
REMARK    7  A    between atoms: S_9  and  C_10
REMARK    8  A    between atoms: C_13  and  C_15
REMARK    9  A    between atoms: C_18  and  O_21
REMARK   10  A    between atoms: O_21  and  C_22
REMARK   11  A    between atoms: C_24  and  C_26
REMARK                            x       y       z     vdW  Elec       q    Type
REMARK                         _______ _______ _______ _____ _____    ______ ____
ROOT
ATOM      1  S   UNL     1      -3.482   5.396   0.064  0.00  0.00    -0.082 S 
ENDROOT
BRANCH   1   2
ATOM      2  C   UNL     1      -2.835   3.757   0.072  0.00  0.00    +0.185 A 
ATOM      3  N   UNL     1      -3.561   2.616   0.069  0.00  0.00    -0.253 N 
ATOM      4  N   UNL     1      -2.639   1.557   0.072  0.00  0.00    -0.152 NA
ATOM      5  C   UNL     1      -1.440   2.093   0.086  0.00  0.00    +0.182 A 
ATOM      6  N   UNL     1      -1.562   3.429   0.082  0.00  0.00    -0.201 NA
ATOM      7  H   UNL     1      -4.641   2.406   0.065  0.00  0.00    +0.191 HD
BRANCH   5   8
ATOM      8  C   UNL     1      -0.160   1.344   0.102  0.00  0.00    +0.021 A 
ATOM      9  C   UNL     1       1.052   2.032   0.104  0.00  0.00    +0.015 A 
ATOM     10  C   UNL     1       2.241   1.332   0.113  0.00  0.00    +0.046 A 
ATOM     11  C   UNL     1       2.230  -0.056   0.121  0.00  0.00    +0.120 A 
ATOM     12  C   UNL     1       1.025  -0.744   0.120  0.00  0.00    +0.046 A 
ATOM     13  C   UNL     1      -0.167  -0.050   0.111  0.00  0.00    +0.015 A 
BRANCH  11  14
ATOM     14  O   UNL     1       3.403  -0.743   0.131  0.00  0.00    -0.495 OA
ATOM     15  C   UNL     1       4.606   0.028   0.131  0.00  0.00    +0.277 C 
ENDBRANCH  11  14
ENDBRANCH   5   8
ENDBRANCH   1   2
BRANCH   1  16
ATOM     16  C   UNL     1      -1.940   6.342   0.075  0.00  0.00    +0.113 C 
BRANCH  16  23
ATOM     17  C   UNL     1      -2.260   7.753   2.571  0.00  0.00    +0.044 C 
ATOM     18  C   UNL     1      -2.409   8.493   1.267  0.00  0.00    -0.046 A 
ATOM     19  C   UNL     1      -2.697   9.847   1.273  0.00  0.00    +0.007 A 
ATOM     20  C   UNL     1      -2.835  10.531   0.084  0.00  0.00    -0.039 A 
ATOM     21  C   UNL     1      -2.681   9.854  -1.131  0.00  0.00    +0.023 A 
ATOM     22  C   UNL     1      -2.384   8.488  -1.128  0.00  0.00    -0.036 A 
ATOM     23  C   UNL     1      -2.255   7.816   0.070  0.00  0.00    -0.031 A 
ATOM     24  C   UNL     1      -2.210   7.750  -2.430  0.00  0.00    +0.045 C 
ATOM     25  C   UNL     1      -3.150  12.005   0.092  0.00  0.00    +0.044 C 
BRANCH  21  26
ATOM     26  C   UNL     1      -2.826  10.577  -2.404  0.00  0.00    +0.161 C 
ATOM     27  O   UNL     1      -1.847  11.024  -2.962  0.00  0.00    -0.292 OA
ATOM     28  C   UNL     1      -4.191  10.763  -3.014  0.00  0.00    +0.091 C 
ENDBRANCH  21  26
ENDBRANCH  16  23
ENDBRANCH   1  16
TORSDOF 6
