REMARK  Name = ZINC12916919
REMARK  9 active torsions:
REMARK  status: ('A' for Active; 'I' for Inactive)
REMARK    1  A    between atoms: C_1  and  C_2
REMARK    2  A    between atoms: C_2  and  C_3
REMARK    3  A    between atoms: C_6  and  C_9
REMARK    4  A    between atoms: C_9  and  C_11
REMARK    5  A    between atoms: C_9  and  N_16
REMARK    6  A    between atoms: N_16  and  C_17
REMARK    7  A    between atoms: C_17  and  C_19
REMARK    8  A    between atoms: C_17  and  C_20
REMARK    9  A    between atoms: N_22  and  C_23
REMARK                            x       y       z     vdW  Elec       q    Type
REMARK                         _______ _______ _______ _____ _____    ______ ____
ROOT
ATOM      1  C   UNL     1       4.003  -3.776  -5.496  0.00  0.00    +0.138 C 
ATOM      2  C   UNL     1       2.987  -4.920  -5.491  0.00  0.00    +0.034 C 
ENDROOT
BRANCH   1   3
ATOM      3  C   UNL     1       5.393  -4.338  -5.347  0.00  0.00    +0.234 C 
ATOM      4  O   UNL     1       6.080  -4.012  -4.403  0.00  0.00    -0.274 OA
ATOM      5  N   UNL     1       5.872  -5.202  -6.263  0.00  0.00    -0.284 N 
ATOM      6  H   UNL     1       5.300  -5.515  -6.981  0.00  0.00    +0.155 HD
BRANCH   5   7
ATOM      7  C   UNL     1       7.197  -5.650  -6.178  0.00  0.00    +0.036 A 
ATOM      8  C   UNL     1       7.926  -5.883  -7.338  0.00  0.00    +0.025 A 
ATOM      9  C   UNL     1       9.232  -6.325  -7.261  0.00  0.00    +0.029 A 
ATOM     10  C   UNL     1       9.819  -6.537  -6.023  0.00  0.00    +0.067 A 
ATOM     11  C   UNL     1       9.089  -6.303  -4.856  0.00  0.00    +0.069 A 
ATOM     12  C   UNL     1       7.780  -5.855  -4.936  0.00  0.00    +0.051 A 
ATOM     13  N   UNL     1       9.932  -6.599  -3.787  0.00  0.00    -0.306 N 
ATOM     14  H   UNL     1       9.702  -6.532  -2.847  0.00  0.00    +0.170 HD
ATOM     15  C   UNL     1      11.120  -6.994  -4.281  0.00  0.00    +0.325 A 
ATOM     16  O   UNL     1      12.082  -7.325  -3.612  0.00  0.00    -0.247 OA
ATOM     17  N   UNL     1      11.084  -6.967  -5.627  0.00  0.00    -0.306 N 
ATOM     18  H   UNL     1      11.814  -7.207  -6.219  0.00  0.00    +0.170 HD
ENDBRANCH   5   7
ENDBRANCH   1   3
BRANCH   1  19
ATOM     19  N   UNL     1       3.720  -2.865  -4.379  0.00  0.00    -0.295 NA
ATOM     20  H   UNL     1       4.563  -2.412  -4.059  0.00  0.00    +0.124 HD
BRANCH  19  21
ATOM     21  C   UNL     1       2.699  -1.877  -4.750  0.00  0.00    +0.122 C 
BRANCH  21  25
ATOM     22  C   UNL     1       0.711  -0.493  -1.232  0.00  0.00    -0.048 A 
ATOM     23  C   UNL     1      -0.012  -0.729  -2.386  0.00  0.00    +0.004 A 
ATOM     24  C   UNL     1       0.632  -1.177  -3.525  0.00  0.00    +0.006 A 
ATOM     25  C   UNL     1       1.998  -1.387  -3.509  0.00  0.00    -0.026 A 
ATOM     26  C   UNL     1       2.721  -1.150  -2.355  0.00  0.00    +0.006 A 
ATOM     27  C   UNL     1       2.078  -0.698  -1.218  0.00  0.00    +0.004 A 
BRANCH  22  29
ATOM     28  C   UNL     1      -0.018   1.525   0.012  0.00  0.00    +0.009 C 
ATOM     29  C   UNL     1       0.010  -0.005   0.010  0.00  0.00    +0.032 C 
ENDBRANCH  22  29
ENDBRANCH  21  25
BRANCH  21  30
ATOM     30  C   UNL     1       3.357  -0.713  -5.447  0.00  0.00    +0.011 A 
ATOM     31  C   UNL     1       2.924  -0.005  -6.519  0.00  0.00    +0.013 A 
ATOM     32  C   UNL     1       3.702   1.035  -6.993  0.00  0.00    +0.008 A 
ATOM     33  C   UNL     1       4.874   1.316  -6.372  0.00  0.00    +0.045 A 
ATOM     34  S   UNL     1       4.903   0.095  -5.070  0.00  0.00    -0.100 S 
ENDBRANCH  21  30
ENDBRANCH  19  21
ENDBRANCH   1  19
TORSDOF 7
