REMARK  Name = ZINC53204825
REMARK  5 active torsions:
REMARK  status: ('A' for Active; 'I' for Inactive)
REMARK    1  A    between atoms: C_1  and  N_2
REMARK    2  A    between atoms: N_2  and  C_3
REMARK    3  A    between atoms: N_8  and  C_10
REMARK    4  A    between atoms: C_15  and  S_16
REMARK    5  A    between atoms: S_16  and  C_19
REMARK                            x       y       z     vdW  Elec       q    Type
REMARK                         _______ _______ _______ _____ _____    ______ ____
ROOT
ATOM      1  C   UNL     1      -3.344  -3.343  -0.855  0.00  0.00    +0.055 A 
ATOM      2  C   UNL     1      -4.109  -2.767  -1.861  0.00  0.00    +0.025 A 
ATOM      3  C   UNL     1      -4.585  -3.547  -2.897  0.00  0.00    +0.002 A 
ATOM      4  C   UNL     1      -4.301  -4.900  -2.933  0.00  0.00    +0.002 A 
ATOM      5  C   UNL     1      -3.540  -5.476  -1.933  0.00  0.00    +0.029 A 
ATOM      6  C   UNL     1      -3.056  -4.701  -0.897  0.00  0.00    +0.118 A 
ENDROOT
BRANCH   1  11
ATOM      7  C   UNL     1      -1.595  -0.479   0.372  0.00  0.00    -0.055 C 
ATOM      8  C   UNL     1      -2.340  -0.208   1.681  0.00  0.00    -0.013 C 
ATOM      9  C   UNL     1      -3.762  -0.766   1.585  0.00  0.00    +0.017 C 
ATOM     10  C   UNL     1      -3.698  -2.282   1.370  0.00  0.00    +0.105 C 
ATOM     11  N   UNL     1      -2.861  -2.557   0.194  0.00  0.00    -0.330 N 
ATOM     12  C   UNL     1      -1.506  -1.991   0.142  0.00  0.00    +0.089 C 
BRANCH   7  14
ATOM     13  C   UNL     1      -0.325   1.548   0.555  0.00  0.00    -0.100 C 
ATOM     14  N   UNL     1      -0.241   0.085   0.453  0.00  0.00    +0.380 N 
ATOM     15  H   UNL     1       0.278  -0.165  -0.375  0.00  0.00    -0.086 HD
ATOM     16  H   UNL     1       0.228  -0.282   1.267  0.00  0.00    -0.086 HD
ENDBRANCH   7  14
ENDBRANCH   1  11
BRANCH   6  17
ATOM     17  S   UNL     1      -2.080  -5.436   0.373  0.00  0.00    +0.093 S 
ATOM     18  O   UNL     1      -1.990  -4.440   1.383  0.00  0.00    -0.161 OA
ATOM     19  O   UNL     1      -2.708  -6.682   0.639  0.00  0.00    -0.161 OA
BRANCH  17  20
ATOM     20  C   UNL     1      -0.454  -5.705  -0.385  0.00  0.00    +0.526 C 
ATOM     21  F   UNL     1       0.111  -4.472  -0.729  0.00  0.00    -0.150 F 
ATOM     22  F   UNL     1       0.381  -6.364   0.523  0.00  0.00    -0.150 F 
ATOM     23  F   UNL     1      -0.600  -6.487  -1.536  0.00  0.00    -0.150 F 
ENDBRANCH  17  20
ENDBRANCH   6  17
TORSDOF 4
