REMARK  Name = ZINC24091838
REMARK  7 active torsions:
REMARK  status: ('A' for Active; 'I' for Inactive)
REMARK    1  A    between atoms: C_1  and  C_2
REMARK    2  A    between atoms: C_7  and  N_8
REMARK    3  A    between atoms: C_9  and  C_11
REMARK    4  A    between atoms: C_11  and  O_12
REMARK    5  A    between atoms: O_12  and  C_13
REMARK    6  A    between atoms: C_13  and  C_15
REMARK    7  A    between atoms: C_15  and  C_16
REMARK                            x       y       z     vdW  Elec       q    Type
REMARK                         _______ _______ _______ _____ _____    ______ ____
ROOT
ATOM      1  C   UNL     1       7.163   3.624   0.375  0.00  0.00    +0.312 C 
ATOM      2  O   UNL     1       7.299   4.825   0.394  0.00  0.00    -0.251 OA
ENDROOT
BRANCH   1   3
ATOM      3  O   UNL     1       5.936   3.089   0.276  0.00  0.00    -0.455 OA
BRANCH   3   4
ATOM      4  C   UNL     1       4.819   4.013   0.194  0.00  0.00    +0.328 C 
BRANCH   4   6
ATOM      5  N   UNL     1       2.356   3.889   0.000  0.00  0.00    -0.282 N 
ATOM      6  C   UNL     1       3.532   3.236   0.088  0.00  0.00    +0.255 C 
ATOM      7  O   UNL     1       3.554   2.023   0.082  0.00  0.00    -0.272 OA
ATOM      8  H   UNL     1       2.340   4.986  -0.069  0.00  0.00    +0.155 HD
BRANCH   5  15
ATOM      9  C   UNL     1       0.090   5.051   1.270  0.00  0.00    +0.046 C 
ATOM     10  C   UNL     1       0.025   3.700   0.605  0.00  0.00    -0.028 A 
ATOM     11  C   UNL     1      -1.159   2.989   0.601  0.00  0.00    +0.020 A 
ATOM     12  C   UNL     1      -1.220   1.750  -0.014  0.00  0.00    +0.018 A 
ATOM     13  C   UNL     1      -0.095   1.217  -0.616  0.00  0.00    +0.017 A 
ATOM     14  C   UNL     1       1.091   1.924  -0.614  0.00  0.00    +0.024 A 
ATOM     15  C   UNL     1       1.155   3.170  -0.003  0.00  0.00    +0.036 A 
ATOM     16 BR   UNL     1      -2.845   0.782  -0.024  0.00  0.00    -0.050 Br
ENDBRANCH   5  15
ENDBRANCH   4   6
ENDBRANCH   3   4
ENDBRANCH   1   3
BRANCH   1  17
ATOM     17  C   UNL     1       8.371   2.728   0.464  0.00  0.00    +0.174 C 
BRANCH  17  18
ATOM     18  C   UNL     1       9.635   3.584   0.569  0.00  0.00    +0.269 C 
ATOM     19  C   UNL     1      10.831   2.691   0.781  0.00  0.00    +0.259 C 
ATOM     20  O   UNL     1      11.212   2.440   1.905  0.00  0.00    -0.271 OA
ATOM     21  N   UNL     1      11.475   2.171  -0.285  0.00  0.00    -0.280 N 
ATOM     22  C   UNL     1      11.094   2.566  -1.574  0.00  0.00    +0.076 A 
ATOM     23  C   UNL     1      11.580   1.902  -2.689  0.00  0.00    +0.027 A 
ATOM     24  C   UNL     1      11.187   2.300  -3.953  0.00  0.00    +0.002 A 
ATOM     25  C   UNL     1      10.317   3.363  -4.108  0.00  0.00    +0.004 A 
ATOM     26  C   UNL     1       9.841   4.041  -3.001  0.00  0.00    +0.047 A 
ATOM     27  C   UNL     1      10.235   3.652  -1.732  0.00  0.00    +0.143 A 
ATOM     28  O   UNL     1       9.803   4.334  -0.637  0.00  0.00    -0.477 OA
ATOM     29  H   UNL     1      12.289   1.446  -0.136  0.00  0.00    +0.155 HD
ENDBRANCH  17  18
ENDBRANCH   1  17
TORSDOF 6
