REMARK  Name = ZINC02408019
REMARK  5 active torsions:
REMARK  status: ('A' for Active; 'I' for Inactive)
REMARK    1  A    between atoms: C_9  and  S_25
REMARK    2  A    between atoms: C_10  and  N_24
REMARK    3  A    between atoms: N_11  and  C_14
REMARK    4  A    between atoms: C_14  and  C_15
REMARK    5  A    between atoms: S_25  and  C_28
REMARK                            x       y       z     vdW  Elec       q    Type
REMARK                         _______ _______ _______ _____ _____    ______ ____
ROOT
ATOM      1  C   UNL     1      -0.016   1.356   0.009  0.00  0.00    +0.002 A 
ATOM      2  C   UNL     1       1.170   2.088   0.002  0.00  0.00    +0.002 A 
ATOM      3  C   UNL     1       2.378   1.463  -0.013  0.00  0.00    +0.030 A 
ATOM      4  C   UNL     1       2.439   0.058  -0.021  0.00  0.00    +0.089 A 
ATOM      5  C   UNL     1       1.233  -0.688  -0.013  0.00  0.00    +0.066 A 
ATOM      6  C   UNL     1       0.002  -0.004   0.002  0.00  0.00    +0.028 A 
ATOM      7  N   UNL     1       1.262  -2.025  -0.021  0.00  0.00    -0.349 N 
ATOM      8  C   UNL     1       2.427  -2.653  -0.036  0.00  0.00    +0.112 A 
ATOM      9  C   UNL     1       2.816  -4.013  -0.047  0.00  0.00    +0.159 A 
ATOM     10  C   UNL     1       4.169  -4.064  -0.061  0.00  0.00    +0.126 A 
ATOM     11  N   UNL     1       4.700  -2.799  -0.059  0.00  0.00    -0.307 N 
ATOM     12  C   UNL     1       3.674  -1.878  -0.043  0.00  0.00    +0.161 A 
ATOM     13  N   UNL     1       3.625  -0.565  -0.036  0.00  0.00    -0.226 NA
ATOM     14  H   UNL     1       0.435  -2.531  -0.015  0.00  0.00    +0.166 HD
ENDROOT
BRANCH  10  15
ATOM     15  N   UNL     1       4.912  -5.230  -0.075  0.00  0.00    -0.343 N 
ATOM     16  H   UNL     1       4.465  -6.090  -0.075  0.00  0.00    +0.144 HD
ATOM     17  H   UNL     1       5.881  -5.187  -0.084  0.00  0.00    +0.144 HD
ENDBRANCH  10  15
BRANCH   9  18
ATOM     18  S   UNL     1       1.729  -5.400  -0.044  0.00  0.00    +0.036 S 
ATOM     19  O   UNL     1       2.464  -6.491   0.493  0.00  0.00    -0.164 OA
ATOM     20  O   UNL     1       0.504  -4.955   0.522  0.00  0.00    -0.164 OA
BRANCH  18  21
ATOM     21  C   UNL     1       1.390  -5.801  -1.726  0.00  0.00    +0.131 A 
ATOM     22  C   UNL     1       2.051  -6.649  -2.551  0.00  0.00    +0.035 A 
ATOM     23  C   UNL     1       1.600  -6.809  -3.848  0.00  0.00    +0.009 A 
ATOM     24  C   UNL     1       0.510  -6.114  -4.256  0.00  0.00    +0.047 A 
ATOM     25  S   UNL     1       0.082  -5.202  -2.783  0.00  0.00    -0.078 S 
ENDBRANCH  18  21
ENDBRANCH   9  18
BRANCH  11  26
ATOM     26  C   UNL     1       6.130  -2.478  -0.070  0.00  0.00    +0.160 C 
BRANCH  26  27
ATOM     27  C   UNL     1       6.607  -2.359  -1.495  0.00  0.00    -0.024 A 
ATOM     28  C   UNL     1       7.082  -3.475  -2.158  0.00  0.00    +0.009 A 
ATOM     29  C   UNL     1       7.520  -3.372  -3.465  0.00  0.00    +0.050 A 
ATOM     30  C   UNL     1       7.484  -2.148  -4.114  0.00  0.00    +0.166 A 
ATOM     31  C   UNL     1       7.005  -1.024  -3.446  0.00  0.00    +0.167 A 
ATOM     32  C   UNL     1       6.563  -1.136  -2.138  0.00  0.00    +0.055 A 
ATOM     33  O   UNL     1       7.072   0.047  -4.290  0.00  0.00    -0.453 OA
ATOM     34  C   UNL     1       7.974  -0.348  -5.341  0.00  0.00    +0.466 C 
ATOM     35  O   UNL     1       7.850  -1.782  -5.377  0.00  0.00    -0.453 OA
ENDBRANCH  26  27
ENDBRANCH  11  26
TORSDOF 5
