REMARK  Name = ZINC12130145
REMARK  6 active torsions:
REMARK  status: ('A' for Active; 'I' for Inactive)
REMARK    1  A    between atoms: C_1  and  C_2
REMARK    2  A    between atoms: C_3  and  C_12
REMARK    3  A    between atoms: C_12  and  N_68
REMARK    4  A    between atoms: C_19  and  C_23
REMARK    5  A    between atoms: C_23  and  O_36
REMARK    6  A    between atoms: N_26  and  C_29
REMARK                            x       y       z     vdW  Elec       q    Type
REMARK                         _______ _______ _______ _____ _____    ______ ____
ROOT
ATOM      1  C   UNL     1     -10.369   4.296   0.133  0.00  0.00    -0.036 C 
ATOM      2  C   UNL     1      -9.474   5.304  -0.554  0.00  0.00    +0.210 C 
ATOM      3  O   UNL     1      -8.540   5.870   0.374  0.00  0.00    -0.494 OA
ATOM      4  C   UNL     1      -7.396   5.156   0.557  0.00  0.00    +0.122 A 
ATOM      5  C   UNL     1      -6.187   5.640   0.078  0.00  0.00    +0.046 A 
ATOM      6  C   UNL     1      -5.040   4.885   0.229  0.00  0.00    +0.010 A 
ATOM      7  C   UNL     1      -5.095   3.653   0.854  0.00  0.00    -0.016 A 
ATOM      8  C   UNL     1      -6.300   3.171   1.333  0.00  0.00    +0.011 A 
ATOM      9  C   UNL     1      -7.443   3.930   1.194  0.00  0.00    -0.022 A 
ATOM     10  C   UNL     1      -8.764   3.429   1.745  0.00  0.00    -0.039 C 
ATOM     11  N   UNL     1      -9.639   3.097   0.595  0.00  0.00    +0.388 N 
ATOM     12  H   UNL     1      -9.054   2.750  -0.174  0.00  0.00    -0.081 HD
ENDROOT
BRANCH   7  13
ATOM     13  C   UNL     1      -3.841   2.830   1.008  0.00  0.00    +0.094 C 
ATOM     14  C   UNL     1      -2.629   3.760   1.117  0.00  0.00    +0.058 C 
ATOM     15  C   UNL     1      -1.354   2.920   1.212  0.00  0.00    +0.108 C 
ATOM     16  N   UNL     1      -1.236   2.071   0.019  0.00  0.00    -0.327 N 
ATOM     17  C   UNL     1      -2.365   1.137  -0.081  0.00  0.00    +0.108 C 
ATOM     18  C   UNL     1      -3.670   1.924  -0.214  0.00  0.00    +0.058 C 
BRANCH  16  19
ATOM     19  C   UNL     1      -0.017   1.387   0.010  0.00  0.00    +0.065 A 
ATOM     20  C   UNL     1       1.178   2.094   0.002  0.00  0.00    +0.026 A 
ATOM     21  C   UNL     1       2.381   1.415  -0.013  0.00  0.00    +0.002 A 
ATOM     22  C   UNL     1       2.397   0.032  -0.021  0.00  0.00    +0.003 A 
ATOM     23  C   UNL     1       1.210  -0.677  -0.013  0.00  0.00    +0.040 A 
ATOM     24  C   UNL     1       0.002  -0.004   0.002  0.00  0.00    +0.144 A 
ATOM     25  F   UNL     1      -1.158  -0.697   0.009  0.00  0.00    -0.204 F 
ENDBRANCH  16  19
BRANCH  13  26
ATOM     26  O   UNL     1      -3.937   2.030   2.188  0.00  0.00    -0.384 OA
ATOM     27  H   UNL     1      -4.683   1.416   2.187  0.00  0.00    +0.211 HD
ENDBRANCH  13  26
ENDBRANCH   7  13
BRANCH  11  28
ATOM     28  C   UNL     1     -10.595   2.046   0.978  0.00  0.00    -0.020 C 
BRANCH  28  31
ATOM     29  C   UNL     1     -13.034   3.578   1.186  0.00  0.00    +0.067 C 
ATOM     30  C   UNL     1     -12.826   2.664   0.006  0.00  0.00    +0.058 A 
ATOM     31  C   UNL     1     -11.646   1.923  -0.095  0.00  0.00    +0.047 A 
ATOM     32  N   UNL     1     -11.446   1.116  -1.111  0.00  0.00    -0.250 NA
ATOM     33  C   UNL     1     -12.378   1.005  -2.064  0.00  0.00    +0.089 A 
ATOM     34  C   UNL     1     -12.195   0.150  -3.165  0.00  0.00    +0.030 A 
ATOM     35  C   UNL     1     -13.162   0.059  -4.117  0.00  0.00    +0.002 A 
ATOM     36  C   UNL     1     -14.337   0.803  -4.019  0.00  0.00    +0.002 A 
ATOM     37  C   UNL     1     -14.550   1.641  -2.969  0.00  0.00    +0.030 A 
ATOM     38  C   UNL     1     -13.573   1.762  -1.965  0.00  0.00    +0.089 A 
ATOM     39  N   UNL     1     -13.754   2.577  -0.920  0.00  0.00    -0.249 NA
ENDBRANCH  28  31
ENDBRANCH  11  28
TORSDOF 5
