REMARK  Name = ZINC38741135
REMARK  11 active torsions:
REMARK  status: ('A' for Active; 'I' for Inactive)
REMARK    1  A    between atoms: C_1  and  C_2
REMARK    2  A    between atoms: C_6  and  C_8
REMARK    3  A    between atoms: C_10  and  N_29
REMARK    4  A    between atoms: N_11  and  C_13
REMARK    5  A    between atoms: C_16  and  C_19
REMARK    6  A    between atoms: N_21  and  C_22
REMARK    7  A    between atoms: C_22  and  C_24
REMARK    8  A    between atoms: C_22  and  C_25
REMARK    9  A    between atoms: C_25  and  C_26
REMARK   10  A    between atoms: C_26  and  C_27
REMARK   11  A    between atoms: C_26  and  C_28
REMARK                            x       y       z     vdW  Elec       q    Type
REMARK                         _______ _______ _______ _____ _____    ______ ____
ROOT
ATOM      1  C   UNL     1      -0.060  -3.222   5.993  0.00  0.00    +0.067 A 
ATOM      2  C   UNL     1      -0.692  -4.197   6.757  0.00  0.00    +0.028 A 
ATOM      3  C   UNL     1      -0.764  -4.062   8.126  0.00  0.00    +0.015 A 
ATOM      4  C   UNL     1      -0.202  -2.943   8.746  0.00  0.00    +0.037 A 
ATOM      5  C   UNL     1       0.433  -1.966   7.975  0.00  0.00    +0.015 A 
ATOM      6  C   UNL     1       0.507  -2.110   6.607  0.00  0.00    +0.028 A 
ENDROOT
BRANCH   1  10
ATOM      7  C   UNL     1       0.053  -2.846   2.463  0.00  0.00    +0.095 A 
ATOM      8  C   UNL     1       0.177  -4.242   2.598  0.00  0.00    +0.073 A 
ATOM      9  C   UNL     1       0.149  -4.536   3.924  0.00  0.00    +0.120 A 
ATOM     10  N   UNL     1       0.012  -3.363   4.605  0.00  0.00    -0.218 N 
ATOM     11  N   UNL     1      -0.041  -2.323   3.668  0.00  0.00    -0.165 NA
BRANCH   7  17
ATOM     12  C   UNL     1      -0.018   1.503   0.010  0.00  0.00    +0.044 C 
ATOM     13  C   UNL     1       0.002  -0.004   0.002  0.00  0.00    -0.050 A 
ATOM     14  C   UNL     1       0.006  -0.688  -1.201  0.00  0.00    +0.003 A 
ATOM     15  C   UNL     1       0.025  -2.071  -1.216  0.00  0.00    +0.001 A 
ATOM     16  C   UNL     1       0.040  -2.776  -0.029  0.00  0.00    +0.010 A 
ATOM     17  C   UNL     1       0.036  -2.093   1.185  0.00  0.00    +0.002 A 
ATOM     18  C   UNL     1       0.023  -0.699   1.194  0.00  0.00    +0.013 A 
ENDBRANCH   7  17
BRANCH   9  19
ATOM     19  N   UNL     1       0.243  -5.805   4.486  0.00  0.00    -0.343 N 
ATOM     20  H   UNL     1       0.339  -6.583   3.915  0.00  0.00    +0.144 HD
ATOM     21  H   UNL     1       0.213  -5.912   5.450  0.00  0.00    +0.144 HD
ENDBRANCH   9  19
ENDBRANCH   1  10
BRANCH   4  22
ATOM     22  C   UNL     1      -0.278  -2.794  10.213  0.00  0.00    +0.244 C 
ATOM     23  O   UNL     1      -0.831  -3.645  10.882  0.00  0.00    -0.270 OA
ATOM     24  N   UNL     1       0.266  -1.715  10.810  0.00  0.00    -0.309 N 
ATOM     25  H   UNL     1       0.707  -1.036  10.275  0.00  0.00    +0.149 HD
BRANCH  24  26
ATOM     26  C   UNL     1       0.190  -1.567  12.265  0.00  0.00    +0.070 C 
ATOM     27  C   UNL     1      -1.145  -0.922  12.643  0.00  0.00    +0.028 C 
BRANCH  26  28
ATOM     28  C   UNL     1       1.340  -0.680  12.748  0.00  0.00    +0.025 C 
BRANCH  28  29
ATOM     29  C   UNL     1       2.672  -1.383  12.481  0.00  0.00    -0.015 C 
ATOM     30  C   UNL     1       3.825  -0.447  12.849  0.00  0.00    +0.007 C 
ATOM     31  C   UNL     1       2.757  -2.654  13.329  0.00  0.00    +0.007 C 
ENDBRANCH  28  29
ENDBRANCH  26  28
ENDBRANCH  24  26
ENDBRANCH   4  22
TORSDOF 7
