REMARK  Name = ZINC58385231
REMARK  9 active torsions:
REMARK  status: ('A' for Active; 'I' for Inactive)
REMARK    1  A    between atoms: C_1  and  C_2
REMARK    2  A    between atoms: C_5  and  S_9
REMARK    3  A    between atoms: C_7  and  C_8
REMARK    4  A    between atoms: S_9  and  C_10
REMARK    5  A    between atoms: C_10  and  C_11
REMARK    6  A    between atoms: C_11  and  C_12
REMARK    7  A    between atoms: N_14  and  C_15
REMARK    8  A    between atoms: C_15  and  C_16
REMARK    9  A    between atoms: C_15  and  C_17
REMARK                            x       y       z     vdW  Elec       q    Type
REMARK                         _______ _______ _______ _____ _____    ______ ____
ROOT
ATOM      1  C   UNL     1       0.077  -6.841  -3.404  0.00  0.00    +0.214 C 
ATOM      2  O   UNL     1       0.061  -5.964  -4.242  0.00  0.00    -0.276 OA
ATOM      3  N   UNL     1       0.092  -8.134  -3.783  0.00  0.00    -0.309 N 
ATOM      4  H   UNL     1       0.105  -8.835  -3.112  0.00  0.00    +0.149 HD
ENDROOT
BRANCH   3   5
ATOM      5  C   UNL     1       0.090  -8.481  -5.206  0.00  0.00    +0.100 C 
ATOM      6  C   UNL     1      -1.350  -8.498  -5.724  0.00  0.00    +0.033 C 
BRANCH   5   7
ATOM      7  C   UNL     1       0.708  -9.843  -5.392  0.00  0.00    -0.025 A 
ATOM      8  C   UNL     1       0.426 -10.856  -4.492  0.00  0.00    +0.007 A 
ATOM      9  C   UNL     1       0.987 -12.108  -4.655  0.00  0.00    +0.028 A 
ATOM     10  C   UNL     1       1.836 -12.350  -5.724  0.00  0.00    +0.067 A 
ATOM     11  C   UNL     1       2.120 -11.327  -6.631  0.00  0.00    +0.067 A 
ATOM     12  C   UNL     1       1.548 -10.076  -6.463  0.00  0.00    +0.033 A 
ATOM     13  N   UNL     1       2.988 -11.862  -7.581  0.00  0.00    -0.306 N 
ATOM     14  H   UNL     1       3.361 -11.387  -8.340  0.00  0.00    +0.170 HD
ATOM     15  C   UNL     1       3.221 -13.150  -7.266  0.00  0.00    +0.325 A 
ATOM     16  O   UNL     1       3.938 -13.907  -7.894  0.00  0.00    -0.247 OA
ATOM     17  N   UNL     1       2.540 -13.474  -6.150  0.00  0.00    -0.306 N 
ATOM     18  H   UNL     1       2.539 -14.342  -5.717  0.00  0.00    +0.170 HD
ENDBRANCH   5   7
ENDBRANCH   3   5
BRANCH   1  19
ATOM     19  C   UNL     1       0.079  -6.484  -1.940  0.00  0.00    +0.107 C 
BRANCH  19  20
ATOM     20  C   UNL     1       0.060  -4.962  -1.785  0.00  0.00    +0.083 C 
BRANCH  20  21
ATOM     21  S   UNL     1       0.063  -4.533  -0.023  0.00  0.00    -0.125 S 
BRANCH  21  26
ATOM     22  C   UNL     1      -0.018   1.503   0.010  0.00  0.00    +0.044 C 
ATOM     23  C   UNL     1       0.002  -0.004   0.002  0.00  0.00    -0.047 A 
ATOM     24  C   UNL     1       0.006  -0.687  -1.201  0.00  0.00    +0.005 A 
ATOM     25  C   UNL     1       0.024  -2.068  -1.212  0.00  0.00    +0.015 A 
ATOM     26  C   UNL     1       0.040  -2.771  -0.013  0.00  0.00    +0.008 A 
ATOM     27  C   UNL     1       0.036  -2.081   1.193  0.00  0.00    +0.018 A 
ATOM     28  C   UNL     1       0.023  -0.700   1.197  0.00  0.00    -0.046 A 
ATOM     29  C   UNL     1       0.025   0.049   2.504  0.00  0.00    +0.044 C 
ENDBRANCH  21  26
ENDBRANCH  20  21
ENDBRANCH  19  20
ENDBRANCH   1  19
TORSDOF 6
