REMARK  Name = ZINC38845270
REMARK  13 active torsions:
REMARK  status: ('A' for Active; 'I' for Inactive)
REMARK    1  A    between atoms: C_1  and  C_2
REMARK    2  A    between atoms: C_5  and  S_8
REMARK    3  A    between atoms: S_8  and  C_11
REMARK    4  A    between atoms: C_11  and  C_12
REMARK    5  A    between atoms: C_12  and  C_13
REMARK    6  A    between atoms: C_13  and  C_14
REMARK    7  A    between atoms: N_16  and  C_17
REMARK    8  A    between atoms: C_17  and  C_18
REMARK    9  A    between atoms: C_18  and  N_19
REMARK   10  A    between atoms: N_19  and  C_20
REMARK   11  A    between atoms: N_19  and  C_21
REMARK   12  A    between atoms: C_30  and  S_31
REMARK   13  A    between atoms: S_31  and  C_34
REMARK                            x       y       z     vdW  Elec       q    Type
REMARK                         _______ _______ _______ _____ _____    ______ ____
ROOT
ATOM      1  C   UNL     1       3.587  -8.372  -0.063  0.00  0.00    +0.221 C 
ATOM      2  O   UNL     1       2.597  -9.073  -0.062  0.00  0.00    -0.275 OA
ATOM      3  N   UNL     1       4.811  -8.934  -0.073  0.00  0.00    -0.252 N 
ATOM      4  C   UNL     1       4.940 -10.314  -0.081  0.00  0.00    +0.168 A 
ATOM      5  N   UNL     1       3.998 -11.228  -0.086  0.00  0.00    -0.222 NA
ATOM      6  C   UNL     1       4.271 -12.551  -0.095  0.00  0.00    +0.105 A 
ATOM      7  C   UNL     1       5.642 -12.893  -0.098  0.00  0.00    +0.043 A 
ATOM      8  S   UNL     1       6.430 -11.301  -0.096  0.00  0.00    -0.052 S 
ATOM      9  C   UNL     1       6.081 -14.194  -0.107  0.00  0.00    +0.017 A 
ATOM     10  C   UNL     1       5.160 -15.225  -0.114  0.00  0.00    +0.003 A 
ATOM     11  C   UNL     1       3.805 -14.926  -0.111  0.00  0.00    +0.029 A 
ATOM     12  C   UNL     1       3.358 -13.630  -0.102  0.00  0.00    +0.114 A 
ENDROOT
BRANCH  12  13
ATOM     13  S   UNL     1       1.626 -13.307  -0.098  0.00  0.00    -0.004 S 
ATOM     14  O   UNL     1       1.427 -12.383  -1.160  0.00  0.00    -0.170 OA
ATOM     15  O   UNL     1       1.017 -14.590  -0.131  0.00  0.00    -0.170 OA
ATOM     16  C   UNL     1       1.305 -12.504   1.496  0.00  0.00    +0.200 C 
ENDBRANCH  12  13
BRANCH   1  17
ATOM     17  C   UNL     1       3.447  -6.871  -0.054  0.00  0.00    +0.098 C 
BRANCH  17  18
ATOM     18  C   UNL     1       1.964  -6.497  -0.044  0.00  0.00    +0.032 C 
BRANCH  18  19
ATOM     19  C   UNL     1       1.822  -4.974  -0.035  0.00  0.00    +0.172 C 
BRANCH  19  20
ATOM     20  S   UNL     1       0.063  -4.530  -0.023  0.00  0.00    -0.003 S 
ATOM     21  O   UNL     1      -0.528  -4.907   1.213  0.00  0.00    -0.169 OA
ATOM     22  O   UNL     1      -0.542  -4.894  -1.256  0.00  0.00    -0.169 OA
BRANCH  20  27
ATOM     23  C   UNL     1      -0.018   1.503   0.010  0.00  0.00    +0.044 C 
ATOM     24  C   UNL     1       0.002  -0.004   0.002  0.00  0.00    -0.050 A 
ATOM     25  C   UNL     1       0.006  -0.689  -1.199  0.00  0.00    +0.005 A 
ATOM     26  C   UNL     1       0.025  -2.071  -1.206  0.00  0.00    +0.027 A 
ATOM     27  C   UNL     1       0.040  -2.768  -0.013  0.00  0.00    +0.088 A 
ATOM     28  C   UNL     1       0.037  -2.084   1.188  0.00  0.00    +0.027 A 
ATOM     29  C   UNL     1       0.023  -0.702   1.195  0.00  0.00    +0.005 A 
ENDBRANCH  20  27
ENDBRANCH  19  20
ENDBRANCH  18  19
ENDBRANCH  17  18
ENDBRANCH   1  17
BRANCH   3  30
ATOM     30  C   UNL     1       6.007  -8.087  -0.075  0.00  0.00    +0.097 C 
BRANCH  30  31
ATOM     31  C   UNL     1       6.431  -7.800   1.367  0.00  0.00    -0.060 C 
BRANCH  31  32
ATOM     32  N   UNL     1       7.629  -6.951   1.365  0.00  0.00    +0.377 N 
ATOM     33  C   UNL     1       7.967  -6.577   2.744  0.00  0.00    -0.097 C 
ATOM     34  C   UNL     1       8.751  -7.689   0.769  0.00  0.00    -0.097 C 
ATOM     35  H   UNL     1       7.450  -6.118   0.824  0.00  0.00    -0.083 HD
ENDBRANCH  31  32
ENDBRANCH  30  31
ENDBRANCH   3  30
TORSDOF 9
