REMARK  Name = ZINC13241778
REMARK  10 active torsions:
REMARK  status: ('A' for Active; 'I' for Inactive)
REMARK    1  A    between atoms: C_1  and  C_2
REMARK    2  A    between atoms: C_2  and  C_3
REMARK    3  A    between atoms: C_3  and  C_5
REMARK    4  A    between atoms: C_3  and  N_6
REMARK    5  A    between atoms: C_15  and  S_16
REMARK    6  A    between atoms: S_16  and  C_17
REMARK    7  A    between atoms: C_17  and  C_18
REMARK    8  A    between atoms: N_20  and  C_21
REMARK    9  A    between atoms: C_24  and  C_27
REMARK   10  A    between atoms: C_27  and  C_28
REMARK                            x       y       z     vdW  Elec       q    Type
REMARK                         _______ _______ _______ _____ _____    ______ ____
ROOT
ATOM      1  N   UNL     1       3.844  -3.518   3.542  0.00  0.00    -0.284 N 
ATOM      2  C   UNL     1       3.115  -2.609   2.869  0.00  0.00    +0.263 A 
ATOM      3  O   UNL     1       1.910  -2.538   3.034  0.00  0.00    -0.267 OA
ATOM      4  C   UNL     1       3.776  -1.728   1.955  0.00  0.00    +0.076 A 
ATOM      5  C   UNL     1       3.182  -0.671   1.128  0.00  0.00    -0.023 A 
ATOM      6  C   UNL     1       4.024   0.025   0.337  0.00  0.00    -0.004 A 
ATOM      7  S   UNL     1       5.629  -0.663   0.649  0.00  0.00    -0.073 S 
ATOM      8  C   UNL     1       5.165  -1.895   1.839  0.00  0.00    +0.117 A 
ATOM      9  N   UNL     1       5.827  -2.813   2.534  0.00  0.00    -0.216 NA
ATOM     10  C   UNL     1       5.195  -3.612   3.369  0.00  0.00    +0.173 A 
ATOM     11  C   UNL     1       3.686   1.129  -0.615  0.00  0.00    +0.043 C 
ATOM     12  C   UNL     1       2.799   2.159   0.096  0.00  0.00    +0.005 C 
ATOM     13  C   UNL     1       1.342   1.751  -0.096  0.00  0.00    +0.001 C 
ATOM     14  C   UNL     1       1.228   0.229  -0.146  0.00  0.00    +0.005 C 
ATOM     15  C   UNL     1       1.684  -0.384   1.173  0.00  0.00    +0.037 C 
ENDROOT
BRANCH   1  16
ATOM     16  C   UNL     1       3.175  -4.425   4.479  0.00  0.00    +0.089 C 
ATOM     17  C   UNL     1       2.169  -5.292   3.719  0.00  0.00    +0.031 C 
BRANCH  16  19
ATOM     18  C   UNL     1       3.456  -2.796   6.353  0.00  0.00    +0.006 C 
ATOM     19  C   UNL     1       2.442  -3.607   5.543  0.00  0.00    +0.021 C 
ENDBRANCH  16  19
ENDBRANCH   1  16
BRANCH  10  20
ATOM     20  S   UNL     1       6.105  -4.819   4.275  0.00  0.00    -0.078 S 
BRANCH  20  21
ATOM     21  C   UNL     1       7.773  -4.483   3.658  0.00  0.00    +0.173 C 
BRANCH  21  22
ATOM     22  C   UNL     1       8.751  -5.424   4.314  0.00  0.00    +0.227 C 
ATOM     23  O   UNL     1       8.358  -6.241   5.119  0.00  0.00    -0.275 OA
ATOM     24  N   UNL     1      10.061  -5.357   4.006  0.00  0.00    -0.285 N 
ATOM     25  H   UNL     1      10.365  -4.755   3.308  0.00  0.00    +0.155 HD
BRANCH  24  26
ATOM     26  C   UNL     1      10.983  -6.155   4.692  0.00  0.00    +0.033 A 
ATOM     27  C   UNL     1      12.256  -5.672   4.962  0.00  0.00    +0.023 A 
ATOM     28  C   UNL     1      13.162  -6.460   5.645  0.00  0.00    +0.006 A 
ATOM     29  C   UNL     1      12.805  -7.734   6.049  0.00  0.00    -0.037 A 
ATOM     30  C   UNL     1      11.540  -8.220   5.776  0.00  0.00    +0.006 A 
ATOM     31  C   UNL     1      10.628  -7.435   5.099  0.00  0.00    +0.023 A 
BRANCH  29  32
ATOM     32  C   UNL     1      13.798  -8.594   6.788  0.00  0.00    +0.160 C 
BRANCH  32  33
ATOM     33  C   UNL     1      14.596  -9.403   5.799  0.00  0.00    +0.360 C 
ATOM     34  O   UNL     1      14.381  -9.293   4.615  0.00  0.00    -0.246 OA
ATOM     35  O   UNL     1      15.546 -10.246   6.233  0.00  0.00    -0.246 OA
ENDBRANCH  32  33
ENDBRANCH  29  32
ENDBRANCH  24  26
ENDBRANCH  21  22
ENDBRANCH  20  21
ENDBRANCH  10  20
TORSDOF 8
