REMARK  Name = ZINC31808305
REMARK  6 active torsions:
REMARK  status: ('A' for Active; 'I' for Inactive)
REMARK    1  A    between atoms: C_1  and  O_2
REMARK    2  A    between atoms: O_2  and  C_3
REMARK    3  A    between atoms: C_6  and  C_17
REMARK    4  A    between atoms: C_8  and  O_9
REMARK    5  A    between atoms: O_9  and  C_10
REMARK    6  A    between atoms: C_10  and  C_11
REMARK                            x       y       z     vdW  Elec       q    Type
REMARK                         _______ _______ _______ _____ _____    ______ ____
ROOT
ATOM      1  C   UNL     1      -1.201  -0.638   0.010  0.00  0.00    +0.162 A 
ATOM      2  C   UNL     1      -2.374   0.099   0.019  0.00  0.00    +0.050 A 
ATOM      3  C   UNL     1      -3.596  -0.546   0.027  0.00  0.00    +0.008 A 
ATOM      4  C   UNL     1      -3.652  -1.928   0.026  0.00  0.00    -0.036 A 
ATOM      5  C   UNL     1      -2.485  -2.669   0.017  0.00  0.00    +0.053 A 
ATOM      6  C   UNL     1      -1.257  -2.028   0.003  0.00  0.00    +0.163 A 
ENDROOT
BRANCH   4   7
ATOM      7  C   UNL     1      -4.987  -2.627   0.035  0.00  0.00    +0.063 C 
ATOM      8  C   UNL     1      -5.793  -2.216  -1.200  0.00  0.00    +0.109 C 
ATOM      9  C   UNL     1      -6.355  -0.831  -1.066  0.00  0.00    +0.219 C 
ATOM     10  O   UNL     1      -6.385  -0.120  -2.048  0.00  0.00    -0.275 OA
ATOM     11  N   UNL     1      -6.828  -0.343   0.100  0.00  0.00    -0.269 N 
ATOM     12  C   UNL     1      -6.646  -1.117   1.257  0.00  0.00    +0.150 A 
ATOM     13  C   UNL     1      -5.763  -2.225   1.263  0.00  0.00    +0.020 A 
ATOM     14  C   UNL     1      -5.785  -2.766   2.489  0.00  0.00    +0.111 A 
ATOM     15  N   UNL     1      -6.647  -2.043   3.242  0.00  0.00    -0.283 N 
ATOM     16  H   UNL     1      -6.864  -2.207   4.173  0.00  0.00    +0.188 HD
ATOM     17  N   UNL     1      -7.173  -1.014   2.440  0.00  0.00    -0.158 NA
ATOM     18  H   UNL     1      -7.279   0.515   0.138  0.00  0.00    +0.156 HD
ENDBRANCH   4   7
BRANCH   1  20
ATOM     19  C   UNL     1      -0.017   1.425   0.010  0.00  0.00    +0.277 C 
ATOM     20  O   UNL     1       0.002  -0.004   0.002  0.00  0.00    -0.491 OA
ENDBRANCH   1  20
BRANCH   6  21
ATOM     21  O   UNL     1      -0.108  -2.756  -0.012  0.00  0.00    -0.484 OA
BRANCH  21  22
ATOM     22  C   UNL     1      -0.242  -4.179  -0.018  0.00  0.00    +0.264 C 
BRANCH  22  23
ATOM     23  C   UNL     1       1.125  -4.812  -0.034  0.00  0.00    -0.010 A 
ATOM     24  C   UNL     1       1.744  -5.091  -1.239  0.00  0.00    +0.007 A 
ATOM     25  C   UNL     1       2.998  -5.671  -1.254  0.00  0.00    +0.000 A 
ATOM     26  C   UNL     1       3.635  -5.973  -0.064  0.00  0.00    +0.000 A 
ATOM     27  C   UNL     1       3.017  -5.693   1.140  0.00  0.00    +0.000 A 
ATOM     28  C   UNL     1       1.764  -5.109   1.155  0.00  0.00    +0.007 A 
ENDBRANCH  22  23
ENDBRANCH  21  22
ENDBRANCH   6  21
TORSDOF 5
