REMARK  Name = ZINC17082580
REMARK  8 active torsions:
REMARK  status: ('A' for Active; 'I' for Inactive)
REMARK    1  A    between atoms: C_1  and  C_2
REMARK    2  A    between atoms: C_2  and  C_3
REMARK    3  A    between atoms: C_2  and  C_4
REMARK    4  A    between atoms: C_7  and  S_10
REMARK    5  A    between atoms: S_10  and  N_13
REMARK    6  A    between atoms: N_13  and  N_14
REMARK    7  A    between atoms: C_15  and  C_16
REMARK    8  A    between atoms: C_21  and  C_22
REMARK                            x       y       z     vdW  Elec       q    Type
REMARK                         _______ _______ _______ _____ _____    ______ ____
ROOT
ATOM      1  N   UNL     1       1.185   1.734   1.161  0.00  0.00    -0.174 NA
ATOM      2  C   UNL     1       0.249   1.075   0.551  0.00  0.00    +0.143 C 
ENDROOT
BRANCH   2   3
ATOM      3  C   UNL     1      -0.917   1.789  -0.002  0.00  0.00    +0.040 A 
ATOM      4  C   UNL     1      -0.969   3.105  -0.370  0.00  0.00    +0.115 A 
ATOM      5  N   UNL     1      -2.210   3.361  -0.827  0.00  0.00    -0.284 N 
ATOM      6  H   UNL     1      -2.528   4.245  -1.170  0.00  0.00    +0.188 HD
ATOM      7  N   UNL     1      -2.985   2.200  -0.748  0.00  0.00    -0.173 NA
ATOM      8  C   UNL     1      -2.246   1.229  -0.257  0.00  0.00    +0.101 A 
BRANCH   8   9
ATOM      9  C   UNL     1      -2.677  -0.167  -0.007  0.00  0.00    +0.003 A 
ATOM     10  C   UNL     1      -1.821  -1.227  -0.306  0.00  0.00    +0.011 A 
ATOM     11  C   UNL     1      -2.225  -2.525  -0.068  0.00  0.00    +0.020 A 
ATOM     12  C   UNL     1      -3.481  -2.776   0.458  0.00  0.00    +0.041 A 
ATOM     13  C   UNL     1      -4.337  -1.727   0.751  0.00  0.00    +0.020 A 
ATOM     14  C   UNL     1      -3.940  -0.426   0.521  0.00  0.00    +0.011 A 
ATOM     15 CL   UNL     1      -3.986  -4.411   0.749  0.00  0.00    -0.084 Cl
ENDBRANCH   8   9
ENDBRANCH   2   3
BRANCH   1  16
ATOM     16  N   UNL     1       1.003   3.090   1.465  0.00  0.00    -0.137 N 
ATOM     17  H   UNL     1       0.142   3.509   1.311  0.00  0.00    +0.197 HD
BRANCH  16  18
ATOM     18  S   UNL     1       2.257   3.975   2.086  0.00  0.00    +0.086 S 
ATOM     19  O   UNL     1       1.854   5.337   2.041  0.00  0.00    -0.149 OA
ATOM     20  O   UNL     1       2.646   3.335   3.294  0.00  0.00    -0.149 OA
BRANCH  18  24
ATOM     21  C   UNL     1       5.737   3.559  -0.778  0.00  0.00    -0.045 A 
ATOM     22  C   UNL     1       4.825   4.584  -0.943  0.00  0.00    +0.006 A 
ATOM     23  C   UNL     1       3.762   4.711  -0.068  0.00  0.00    +0.029 A 
ATOM     24  C   UNL     1       3.611   3.813   0.971  0.00  0.00    +0.110 A 
ATOM     25  C   UNL     1       4.527   2.791   1.140  0.00  0.00    +0.029 A 
ATOM     26  C   UNL     1       5.587   2.661   0.263  0.00  0.00    +0.006 A 
BRANCH  21  28
ATOM     27  C   UNL     1       8.210   3.529  -0.957  0.00  0.00    +0.012 C 
ATOM     28  C   UNL     1       6.896   3.420  -1.732  0.00  0.00    +0.013 C 
ATOM     29  C   UNL     1       6.824   2.058  -2.426  0.00  0.00    +0.012 C 
ENDBRANCH  21  28
ENDBRANCH  18  24
ENDBRANCH  16  18
ENDBRANCH   1  16
TORSDOF 6
