REMARK  Name = ZINC57867121
REMARK  6 active torsions:
REMARK  status: ('A' for Active; 'I' for Inactive)
REMARK    1  A    between atoms: C_1  and  C_2
REMARK    2  A    between atoms: C_5  and  C_9
REMARK    3  A    between atoms: C_7  and  N_8
REMARK    4  A    between atoms: N_17  and  C_18
REMARK    5  A    between atoms: C_18  and  C_19
REMARK    6  A    between atoms: C_22  and  N_25
REMARK                            x       y       z     vdW  Elec       q    Type
REMARK                         _______ _______ _______ _____ _____    ______ ____
ROOT
ATOM      1  C   UNL     1       0.241  -4.269  -0.003  0.00  0.00    +0.142 A 
ATOM      2  N   UNL     1       0.002  -5.030   1.037  0.00  0.00    -0.228 NA
ATOM      3  C   UNL     1      -0.143  -6.317   0.636  0.00  0.00    +0.090 A 
ATOM      4  C   UNL     1      -0.405  -7.511   1.315  0.00  0.00    +0.030 A 
ATOM      5  C   UNL     1      -0.498  -8.683   0.620  0.00  0.00    +0.002 A 
ATOM      6  C   UNL     1      -0.335  -8.704  -0.758  0.00  0.00    +0.002 A 
ATOM      7  C   UNL     1      -0.077  -7.539  -1.449  0.00  0.00    +0.028 A 
ATOM      8  C   UNL     1       0.021  -6.337  -0.760  0.00  0.00    +0.069 A 
ATOM      9  N   UNL     1       0.258  -5.031  -1.140  0.00  0.00    -0.319 N 
ENDROOT
BRANCH   1  14
ATOM     10  C   UNL     1       1.083   1.425   0.195  0.00  0.00    +0.045 C 
ATOM     11  C   UNL     1       0.861  -0.064   0.141  0.00  0.00    -0.030 A 
ATOM     12  C   UNL     1       1.351  -0.870   1.152  0.00  0.00    +0.006 A 
ATOM     13  C   UNL     1       1.152  -2.235   1.110  0.00  0.00    +0.012 A 
ATOM     14  C   UNL     1       0.455  -2.807   0.045  0.00  0.00    +0.019 A 
ATOM     15  C   UNL     1      -0.040  -1.994  -0.975  0.00  0.00    +0.034 A 
ATOM     16  C   UNL     1       0.160  -0.623  -0.921  0.00  0.00    +0.028 A 
BRANCH  16  17
ATOM     17  N   UNL     1      -0.339   0.196  -1.936  0.00  0.00    -0.358 N 
ATOM     18  H   UNL     1      -0.196   1.155  -1.901  0.00  0.00    +0.142 HD
ATOM     19  H   UNL     1      -0.828  -0.194  -2.678  0.00  0.00    +0.142 HD
ENDBRANCH  16  17
ENDBRANCH   1  14
BRANCH   9  20
ATOM     20  C   UNL     1       0.487  -4.550  -2.505  0.00  0.00    +0.159 C 
BRANCH  20  21
ATOM     21  C   UNL     1       1.968  -4.488  -2.773  0.00  0.00    -0.028 A 
ATOM     22  C   UNL     1       2.673  -3.333  -2.489  0.00  0.00    +0.007 A 
ATOM     23  C   UNL     1       4.031  -3.272  -2.733  0.00  0.00    +0.023 A 
ATOM     24  C   UNL     1       4.689  -4.374  -3.266  0.00  0.00    +0.025 A 
ATOM     25  C   UNL     1       3.978  -5.533  -3.550  0.00  0.00    +0.023 A 
ATOM     26  C   UNL     1       2.621  -5.588  -3.298  0.00  0.00    +0.007 A 
BRANCH  24  27
ATOM     27  N   UNL     1       6.062  -4.316  -3.515  0.00  0.00    -0.358 N 
ATOM     28  H   UNL     1       6.557  -3.506  -3.316  0.00  0.00    +0.142 HD
ATOM     29  H   UNL     1       6.520  -5.086  -3.886  0.00  0.00    +0.142 HD
ENDBRANCH  24  27
ENDBRANCH  20  21
ENDBRANCH   9  20
TORSDOF 5
