REMARK  Name = ZINC00988964
REMARK  10 active torsions:
REMARK  status: ('A' for Active; 'I' for Inactive)
REMARK    1  A    between atoms: C_1  and  C_2
REMARK    2  A    between atoms: C_4  and  C_36
REMARK    3  A    between atoms: C_6  and  S_10
REMARK    4  A    between atoms: C_7  and  C_8
REMARK    5  A    between atoms: S_10  and  C_11
REMARK    6  A    between atoms: C_11  and  C_12
REMARK    7  A    between atoms: C_19  and  N_35
REMARK    8  A    between atoms: C_20  and  C_33
REMARK    9  A    between atoms: C_21  and  C_23
REMARK   10  A    between atoms: C_28  and  C_29
REMARK                            x       y       z     vdW  Elec       q    Type
REMARK                         _______ _______ _______ _____ _____    ______ ____
ROOT
ATOM      1  C   UNL     1       2.834  -0.724  -0.775  0.00  0.00    +0.081 A 
ATOM      2  C   UNL     1       1.968   0.325  -0.498  0.00  0.00    +0.050 A 
ATOM      3  C   UNL     1       0.695  -0.173  -0.473  0.00  0.00    +0.223 A 
ATOM      4  N   UNL     1       0.769  -1.490  -0.725  0.00  0.00    -0.246 N 
ATOM      5  H   UNL     1      -0.002  -2.125  -0.771  0.00  0.00    +0.192 HD
ATOM      6  N   UNL     1       2.121  -1.816  -0.912  0.00  0.00    -0.175 NA
ATOM      7  O   UNL     1      -0.391   0.603  -0.229  0.00  0.00    -0.423 OA
ATOM      8  C   UNL     1      -0.226   1.940  -0.277  0.00  0.00    +0.200 C 
ATOM      9  C   UNL     1       0.981   2.550  -0.293  0.00  0.00    +0.098 C 
ATOM     10  C   UNL     1       2.277   1.779  -0.253  0.00  0.00    +0.102 C 
ENDROOT
BRANCH  10  11
ATOM     11  C   UNL     1       2.922   1.941   1.099  0.00  0.00    -0.023 A 
ATOM     12  C   UNL     1       2.311   1.419   2.224  0.00  0.00    +0.005 A 
ATOM     13  C   UNL     1       2.903   1.568   3.464  0.00  0.00    +0.000 A 
ATOM     14  C   UNL     1       4.107   2.238   3.579  0.00  0.00    +0.001 A 
ATOM     15  C   UNL     1       4.719   2.759   2.454  0.00  0.00    +0.012 A 
ATOM     16  C   UNL     1       4.128   2.607   1.213  0.00  0.00    +0.059 A 
BRANCH  16  17
ATOM     17  C   UNL     1       4.798   3.170  -0.014  0.00  0.00    +0.418 C 
ATOM     18  F   UNL     1       5.975   3.828   0.358  0.00  0.00    -0.166 F 
ATOM     19  F   UNL     1       5.104   2.129  -0.897  0.00  0.00    -0.166 F 
ATOM     20  F   UNL     1       3.935   4.075  -0.641  0.00  0.00    -0.166 F 
ENDBRANCH  16  17
ENDBRANCH  10  11
BRANCH   8  21
ATOM     21  N   UNL     1      -1.349   2.729  -0.318  0.00  0.00    -0.328 N 
ATOM     22  H   UNL     1      -2.228   2.321  -0.312  0.00  0.00    +0.145 HD
ATOM     23  H   UNL     1      -1.262   3.694  -0.353  0.00  0.00    +0.145 HD
ENDBRANCH   8  21
BRANCH   9  24
ATOM     24  C   UNL     1       1.030   3.979  -0.351  0.00  0.00    +0.101 C 
ATOM     25  N   UNL     1       1.069   5.114  -0.396  0.00  0.00    -0.191 NA
ENDBRANCH   9  24
BRANCH   1  26
ATOM     26  C   UNL     1       4.333  -0.624  -0.897  0.00  0.00    +0.133 C 
BRANCH  26  27
ATOM     27  S   UNL     1       4.777  -0.287  -2.619  0.00  0.00    -0.098 S 
BRANCH  27  33
ATOM     28  C   UNL     1       9.597   0.336  -4.665  0.00  0.00    +0.045 C 
ATOM     29  C   UNL     1       8.710   0.073  -3.475  0.00  0.00    -0.029 A 
ATOM     30  C   UNL     1       9.252  -0.128  -2.217  0.00  0.00    +0.027 A 
ATOM     31  C   UNL     1       8.414  -0.367  -1.144  0.00  0.00    +0.040 A 
ATOM     32  N   UNL     1       7.104  -0.403  -1.294  0.00  0.00    -0.244 NA
ATOM     33  C   UNL     1       6.532  -0.223  -2.475  0.00  0.00    +0.115 A 
ATOM     34  C   UNL     1       7.319   0.026  -3.614  0.00  0.00    +0.086 A 
ATOM     35  C   UNL     1       9.007  -0.586   0.224  0.00  0.00    +0.065 C 
BRANCH  34  36
ATOM     36  C   UNL     1       6.707   0.227  -4.894  0.00  0.00    +0.102 C 
ATOM     37  N   UNL     1       6.222   0.386  -5.908  0.00  0.00    -0.191 NA
ENDBRANCH  34  36
ENDBRANCH  27  33
ENDBRANCH  26  27
ENDBRANCH   1  26
TORSDOF 8
