REMARK  Name = ZINC39794217
REMARK  4 active torsions:
REMARK  status: ('A' for Active; 'I' for Inactive)
REMARK    1  A    between atoms: C_6  and  C_7
REMARK    2  A    between atoms: N_8  and  N_9
REMARK    3  A    between atoms: C_14  and  C_17
REMARK    4  A    between atoms: C_17  and  C_18
REMARK                            x       y       z     vdW  Elec       q    Type
REMARK                         _______ _______ _______ _____ _____    ______ ____
ROOT
ATOM      1  N   UNL     1      -2.345  -2.729   0.011  0.00  0.00    -0.127 NA
ATOM      2  C   UNL     1      -2.324  -4.046   0.003  0.00  0.00    +0.183 C 
ATOM      3  N   UNL     1      -3.394  -4.915   0.003  0.00  0.00    -0.263 N 
ATOM      4  C   UNL     1      -3.242  -6.228  -0.005  0.00  0.00    +0.232 C 
ATOM      5  O   UNL     1      -4.189  -6.986  -0.005  0.00  0.00    -0.274 OA
ATOM      6  C   UNL     1      -1.807  -6.728  -0.015  0.00  0.00    +0.144 C 
ATOM      7  S   UNL     1      -0.901  -5.126  -0.017  0.00  0.00    -0.075 S 
ATOM      8  H   UNL     1      -4.292  -4.548   0.010  0.00  0.00    +0.157 HD
ENDROOT
BRANCH   1  10
ATOM      9  C   UNL     1      -1.260  -0.761   0.011  0.00  0.00    +0.143 C 
ATOM     10  N   UNL     1      -1.239  -2.066   0.003  0.00  0.00    -0.155 NA
BRANCH   9  16
ATOM     11  C   UNL     1      -0.017   1.394   0.010  0.00  0.00    +0.011 A 
ATOM     12  C   UNL     1       1.169   2.096   0.002  0.00  0.00    +0.020 A 
ATOM     13  C   UNL     1       2.378   1.420  -0.013  0.00  0.00    +0.041 A 
ATOM     14  C   UNL     1       2.405   0.035  -0.021  0.00  0.00    +0.020 A 
ATOM     15  C   UNL     1       1.226  -0.680  -0.014  0.00  0.00    +0.011 A 
ATOM     16  C   UNL     1       0.002  -0.004   0.002  0.00  0.00    -0.005 A 
ATOM     17 CL   UNL     1       3.867   2.313  -0.022  0.00  0.00    -0.084 Cl
ENDBRANCH   9  16
ENDBRANCH   1  10
BRANCH   6  18
ATOM     18  C   UNL     1      -1.496  -7.546   1.241  0.00  0.00    +0.059 C 
BRANCH  18  19
ATOM     19  C   UNL     1      -0.108  -8.123   1.133  0.00  0.00    -0.044 A 
ATOM     20  C   UNL     1       0.082  -9.363   0.553  0.00  0.00    +0.005 A 
ATOM     21  C   UNL     1       1.354  -9.894   0.454  0.00  0.00    +0.022 A 
ATOM     22  C   UNL     1       2.439  -9.184   0.936  0.00  0.00    +0.059 A 
ATOM     23  C   UNL     1       2.249  -7.941   1.517  0.00  0.00    +0.060 A 
ATOM     24  C   UNL     1       0.976  -7.410   1.610  0.00  0.00    +0.025 A 
ATOM     25 CL   UNL     1       3.610  -7.049   2.123  0.00  0.00    -0.082 Cl
ATOM     26 CL   UNL     1       4.037  -9.850   0.813  0.00  0.00    -0.082 Cl
ENDBRANCH  18  19
ENDBRANCH   6  18
TORSDOF 4
