REMARK  Name = ZINC39826439
REMARK  8 active torsions:
REMARK  status: ('A' for Active; 'I' for Inactive)
REMARK    1  A    between atoms: C_1  and  C_2
REMARK    2  A    between atoms: C_7  and  C_8
REMARK    3  A    between atoms: C_14  and  C_27
REMARK    4  A    between atoms: N_16  and  C_19
REMARK    5  A    between atoms: C_19  and  C_20
REMARK    6  A    between atoms: C_30  and  O_33
REMARK    7  A    between atoms: O_33  and  C_34
REMARK    8  A    between atoms: C_34  and  C_35
REMARK                            x       y       z     vdW  Elec       q    Type
REMARK                         _______ _______ _______ _____ _____    ______ ____
ROOT
ATOM      1  C   UNL     1      -0.018   1.503   0.010  0.00  0.00    +0.044 C 
ATOM      2  C   UNL     1       0.002  -0.004   0.002  0.00  0.00    -0.047 A 
ATOM      3  C   UNL     1       0.006  -0.685  -1.195  0.00  0.00    +0.019 A 
ATOM      4  C   UNL     1       0.024  -2.080  -1.194  0.00  0.00    +0.065 A 
ATOM      5  C   UNL     1       0.033  -2.793   0.016  0.00  0.00    +0.140 A 
ATOM      6  C   UNL     1       0.033  -2.080   1.214  0.00  0.00    +0.050 A 
ATOM      7  C   UNL     1       0.023  -0.703   1.200  0.00  0.00    -0.044 A 
ATOM      8  C   UNL     1       0.029   0.053   2.503  0.00  0.00    +0.044 C 
ATOM      9  O   UNL     1       0.037  -4.145   0.057  0.00  0.00    -0.450 OA
ATOM     10  C   UNL     1       0.273  -4.846  -1.070  0.00  0.00    +0.199 A 
ATOM     11  C   UNL     1       0.280  -4.269  -2.308  0.00  0.00    +0.072 A 
ATOM     12  C   UNL     1       0.036  -2.832  -2.474  0.00  0.00    +0.199 A 
ATOM     13  O   UNL     1      -0.140  -2.306  -3.559  0.00  0.00    -0.287 OA
ATOM     14  C   UNL     1       0.566  -5.340  -3.308  0.00  0.00    +0.145 C 
ATOM     15  N   UNL     1       0.729  -6.581  -2.533  0.00  0.00    -0.279 N 
ATOM     16  C   UNL     1       0.557  -6.283  -1.228  0.00  0.00    +0.283 C 
ATOM     17  O   UNL     1       0.627  -7.083  -0.317  0.00  0.00    -0.267 OA
ENDROOT
BRANCH  14  18
ATOM     18  C   UNL     1       1.834  -5.025  -4.060  0.00  0.00    -0.022 A 
ATOM     19  C   UNL     1       3.062  -5.272  -3.474  0.00  0.00    +0.009 A 
ATOM     20  C   UNL     1       4.226  -4.983  -4.161  0.00  0.00    +0.046 A 
ATOM     21  C   UNL     1       4.162  -4.447  -5.438  0.00  0.00    +0.121 A 
ATOM     22  C   UNL     1       2.928  -4.201  -6.024  0.00  0.00    +0.046 A 
ATOM     23  C   UNL     1       1.767  -4.496  -5.335  0.00  0.00    +0.009 A 
BRANCH  21  24
ATOM     24  O   UNL     1       5.305  -4.162  -6.115  0.00  0.00    -0.483 OA
BRANCH  24  25
ATOM     25  C   UNL     1       5.163  -3.611  -7.426  0.00  0.00    +0.324 C 
BRANCH  25  26
ATOM     26  C   UNL     1       6.526  -3.362  -8.018  0.00  0.00    +0.248 C 
ATOM     27  O   UNL     1       7.522  -3.630  -7.379  0.00  0.00    -0.272 OA
ATOM     28  N   UNL     1       6.639  -2.842  -9.256  0.00  0.00    -0.327 N 
ATOM     29  H   UNL     1       5.843  -2.628  -9.766  0.00  0.00    +0.145 HD
ATOM     30  H   UNL     1       7.517  -2.682  -9.636  0.00  0.00    +0.145 HD
ENDBRANCH  25  26
ENDBRANCH  24  25
ENDBRANCH  21  24
ENDBRANCH  14  18
BRANCH  15  31
ATOM     31  C   UNL     1       1.025  -7.907  -3.081  0.00  0.00    +0.145 C 
BRANCH  31  32
ATOM     32  C   UNL     1       2.518  -8.101  -3.145  0.00  0.00    -0.012 A 
ATOM     33  C   UNL     1       3.188  -7.922  -4.341  0.00  0.00    +0.006 A 
ATOM     34  C   UNL     1       4.557  -8.101  -4.400  0.00  0.00    +0.000 A 
ATOM     35  C   UNL     1       5.258  -8.459  -3.263  0.00  0.00    +0.001 A 
ATOM     36  C   UNL     1       4.590  -8.638  -2.067  0.00  0.00    +0.020 A 
ATOM     37  C   UNL     1       3.219  -8.454  -2.006  0.00  0.00    +0.046 A 
ATOM     38 CL   UNL     1       2.380  -8.672  -0.502  0.00  0.00    -0.083 Cl
ENDBRANCH  31  32
ENDBRANCH  15  31
TORSDOF 6
