REMARK  Name = ZINC26841146
REMARK  2 active torsions:
REMARK  status: ('A' for Active; 'I' for Inactive)
REMARK    1  A    between atoms: C_4  and  C_7
REMARK    2  A    between atoms: C_10  and  C_24
REMARK                            x       y       z     vdW  Elec       q    Type
REMARK                         _______ _______ _______ _____ _____    ______ ____
ROOT
ATOM      1  C   UNL     1       3.711  -0.707  -0.038  0.00  0.00    +0.144 C 
ATOM      2  C   UNL     1       4.015  -1.215  -1.423  0.00  0.00    +0.018 C 
ATOM      3  C   UNL     1       4.549  -1.268  -2.630  0.00  0.00    +0.097 C 
ATOM      4  N   UNL     1       4.479  -2.543  -3.115  0.00  0.00    -0.153 NA
ATOM      5  N   UNL     1       3.721  -3.283  -2.469  0.00  0.00    -0.170 NA
ATOM      6  C   UNL     1       3.119  -2.474  -1.416  0.00  0.00    +0.244 C 
ATOM      7  C   UNL     1       3.318  -2.993  -0.018  0.00  0.00    +0.252 C 
ATOM      8  O   UNL     1       3.217  -4.149   0.334  0.00  0.00    -0.272 OA
ATOM      9  N   UNL     1       3.630  -1.937   0.783  0.00  0.00    -0.242 N 
ATOM     10  C   UNL     1       3.842  -2.002   2.159  0.00  0.00    +0.128 A 
ATOM     11  C   UNL     1       4.048  -0.831   2.880  0.00  0.00    +0.044 A 
ATOM     12  C   UNL     1       4.258  -0.909   4.246  0.00  0.00    +0.005 A 
ATOM     13  C   UNL     1       4.253  -2.161   4.846  0.00  0.00    +0.020 A 
ATOM     14  C   UNL     1       4.041  -3.283   4.068  0.00  0.00    +0.113 A 
ATOM     15  N   UNL     1       3.839  -3.177   2.769  0.00  0.00    -0.240 NA
ENDROOT
BRANCH   1  19
ATOM     16  C   UNL     1      -0.017   1.378   0.010  0.00  0.00    +0.000 A 
ATOM     17  C   UNL     1       1.171   2.086   0.002  0.00  0.00    +0.000 A 
ATOM     18  C   UNL     1       2.377   1.411  -0.013  0.00  0.00    +0.006 A 
ATOM     19  C   UNL     1       2.396   0.029  -0.020  0.00  0.00    -0.022 A 
ATOM     20  C   UNL     1       1.208  -0.679  -0.012  0.00  0.00    +0.006 A 
ATOM     21  C   UNL     1       0.002  -0.004   0.002  0.00  0.00    +0.000 A 
ENDBRANCH   1  19
BRANCH   3  22
ATOM     22  C   UNL     1       5.137  -0.113  -3.351  0.00  0.00    +0.002 A 
ATOM     23  C   UNL     1       5.159   1.146  -2.755  0.00  0.00    +0.010 A 
ATOM     24  C   UNL     1       5.708   2.217  -3.431  0.00  0.00    +0.001 A 
ATOM     25  C   UNL     1       6.235   2.042  -4.698  0.00  0.00    +0.000 A 
ATOM     26  C   UNL     1       6.216   0.794  -5.295  0.00  0.00    +0.001 A 
ATOM     27  C   UNL     1       5.674  -0.285  -4.626  0.00  0.00    +0.010 A 
ENDBRANCH   3  22
TORSDOF 2
