REMARK  Name = ZINC21322837
REMARK  11 active torsions:
REMARK  status: ('A' for Active; 'I' for Inactive)
REMARK    1  A    between atoms: C_1  and  C_2
REMARK    2  A    between atoms: C_2  and  C_3
REMARK    3  A    between atoms: C_3  and  C_25
REMARK    4  A    between atoms: N_4  and  N_5
REMARK    5  A    between atoms: C_9  and  S_12
REMARK    6  A    between atoms: N_10  and  N_11
REMARK    7  A    between atoms: S_12  and  C_13
REMARK    8  A    between atoms: C_13  and  C_14
REMARK    9  A    between atoms: N_16  and  C_17
REMARK   10  A    between atoms: C_22  and  S_23
REMARK   11  A    between atoms: S_23  and  C_24
REMARK                            x       y       z     vdW  Elec       q    Type
REMARK                         _______ _______ _______ _____ _____    ______ ____
ROOT
ATOM      1  N   UNL     1       3.560  -0.595   0.169  0.00  0.00    -0.204 N 
ATOM      2  C   UNL     1       3.603  -1.979   0.253  0.00  0.00    +0.254 A 
ATOM      3  N   UNL     1       2.567  -2.783   0.260  0.00  0.00    -0.109 NA
ATOM      4  N   UNL     1       3.041  -4.098   0.356  0.00  0.00    -0.119 NA
ATOM      5  C   UNL     1       4.351  -4.054   0.405  0.00  0.00    +0.210 A 
ATOM      6  N   UNL     1       4.732  -2.744   0.336  0.00  0.00    -0.211 N 
ATOM      7  H   UNL     1       4.494  -0.015   0.171  0.00  0.00    +0.178 HD
ENDROOT
BRANCH   6   8
ATOM      8  N   UNL     1       6.017  -2.280   0.351  0.00  0.00    -0.294 N 
ATOM      9  H   UNL     1       6.857  -2.988   0.421  0.00  0.00    +0.163 HD
ATOM     10  H   UNL     1       6.212  -1.200   0.293  0.00  0.00    +0.163 HD
ENDBRANCH   6   8
BRANCH   1  12
ATOM     11  C   UNL     1       2.280   1.361   0.101  0.00  0.00    +0.066 C 
ATOM     12  N   UNL     1       2.326   0.064   0.082  0.00  0.00    -0.184 NA
BRANCH  11  13
ATOM     13  C   UNL     1       0.978   2.053   0.127  0.00  0.00    -0.002 A 
ATOM     14  C   UNL     1      -0.208   1.315   0.132  0.00  0.00    +0.010 A 
ATOM     15  C   UNL     1      -1.423   1.968   0.151  0.00  0.00    +0.001 A 
ATOM     16  C   UNL     1      -1.468   3.351   0.177  0.00  0.00    +0.000 A 
ATOM     17  C   UNL     1      -0.297   4.088   0.172  0.00  0.00    +0.001 A 
ATOM     18  C   UNL     1       0.925   3.449   0.147  0.00  0.00    +0.010 A 
ENDBRANCH  11  13
BRANCH  11  20
ATOM     19  C   UNL     1       4.011   2.406   1.536  0.00  0.00    +0.010 C 
ATOM     20  C   UNL     1       3.558   2.161   0.096  0.00  0.00    +0.054 C 
ENDBRANCH  11  20
ENDBRANCH   1  12
BRANCH   5  21
ATOM     21  S   UNL     1       5.430  -5.442   0.529  0.00  0.00    -0.075 S 
BRANCH  21  22
ATOM     22  C   UNL     1       4.309  -6.867   0.571  0.00  0.00    +0.173 C 
BRANCH  22  23
ATOM     23  C   UNL     1       5.114  -8.137   0.677  0.00  0.00    +0.228 C 
ATOM     24  O   UNL     1       6.325  -8.085   0.721  0.00  0.00    -0.275 OA
ATOM     25  N   UNL     1       4.488  -9.329   0.724  0.00  0.00    -0.284 N 
ATOM     26  H   UNL     1       3.397  -9.384   0.591  0.00  0.00    +0.155 HD
BRANCH  25  27
ATOM     27  C   UNL     1       5.227 -10.500   0.942  0.00  0.00    +0.047 A 
ATOM     28  C   UNL     1       6.345 -10.474   1.762  0.00  0.00    +0.024 A 
ATOM     29  C   UNL     1       7.069 -11.631   1.980  0.00  0.00    +0.002 A 
ATOM     30  C   UNL     1       6.688 -12.815   1.375  0.00  0.00    +0.001 A 
ATOM     31  C   UNL     1       5.579 -12.850   0.552  0.00  0.00    +0.016 A 
ATOM     32  C   UNL     1       4.843 -11.694   0.331  0.00  0.00    +0.029 A 
BRANCH  32  33
ATOM     33  S   UNL     1       3.428 -11.735  -0.718  0.00  0.00    -0.127 S 
ATOM     34  C   UNL     1       3.334 -13.462  -1.263  0.00  0.00    +0.090 C 
ENDBRANCH  32  33
ENDBRANCH  25  27
ENDBRANCH  22  23
ENDBRANCH  21  22
ENDBRANCH   5  21
TORSDOF 9
