REMARK  Name = ZINC13657880
REMARK  7 active torsions:
REMARK  status: ('A' for Active; 'I' for Inactive)
REMARK    1  A    between atoms: C_1  and  C_2
REMARK    2  A    between atoms: C_5  and  S_8
REMARK    3  A    between atoms: S_8  and  N_11
REMARK    4  A    between atoms: N_11  and  N_12
REMARK    5  A    between atoms: N_12  and  C_13
REMARK    6  A    between atoms: C_13  and  N_15
REMARK    7  A    between atoms: N_15  and  C_16
REMARK                            x       y       z     vdW  Elec       q    Type
REMARK                         _______ _______ _______ _____ _____    ______ ____
ROOT
ATOM      1  N   UNL     1       2.668  -4.634   0.792  0.00  0.00    -0.243 N 
ATOM      2  H   UNL     1       2.888  -3.693   0.878  0.00  0.00    +0.170 HD
ENDROOT
BRANCH   1   3
ATOM      3  N   UNL     1       1.635  -5.036  -0.066  0.00  0.00    -0.109 NA
ATOM      4  H   UNL     1       1.808  -5.692  -0.758  0.00  0.00    +0.172 HD
BRANCH   3   5
ATOM      5  S   UNL     1       0.120  -4.390   0.104  0.00  0.00    +0.074 S 
ATOM      6  O   UNL     1      -0.259  -4.591   1.459  0.00  0.00    -0.152 OA
ATOM      7  O   UNL     1      -0.654  -4.878  -0.984  0.00  0.00    -0.152 OA
BRANCH   5  12
ATOM      8  C   UNL     1       0.621   1.572  -0.677  0.00  0.00    +0.044 C 
ATOM      9  C   UNL     1       0.496   0.083  -0.482  0.00  0.00    -0.050 A 
ATOM     10  C   UNL     1       0.249  -0.738  -1.567  0.00  0.00    +0.005 A 
ATOM     11  C   UNL     1       0.135  -2.104  -1.388  0.00  0.00    +0.029 A 
ATOM     12  C   UNL     1       0.267  -2.649  -0.124  0.00  0.00    +0.107 A 
ATOM     13  C   UNL     1       0.514  -1.828   0.960  0.00  0.00    +0.029 A 
ATOM     14  C   UNL     1       0.633  -0.463   0.780  0.00  0.00    +0.005 A 
ENDBRANCH   5  12
ENDBRANCH   3   5
ENDBRANCH   1   3
BRANCH   1  15
ATOM     15  C   UNL     1       3.356  -5.554   1.496  0.00  0.00    +0.150 C 
ATOM     16  S   UNL     1       4.618  -5.063   2.543  0.00  0.00    -0.017 S 
BRANCH  15  17
ATOM     17  N   UNL     1       3.050  -6.862   1.375  0.00  0.00    -0.296 N 
ATOM     18  H   UNL     1       2.285  -7.134   0.845  0.00  0.00    +0.154 HD
BRANCH  17  19
ATOM     19  C   UNL     1       3.837  -7.825   2.014  0.00  0.00    +0.035 A 
ATOM     20  C   UNL     1       3.236  -8.905   2.650  0.00  0.00    +0.023 A 
ATOM     21  C   UNL     1       4.014  -9.856   3.280  0.00  0.00    +0.005 A 
ATOM     22  C   UNL     1       5.392  -9.735   3.279  0.00  0.00    +0.038 A 
ATOM     23  C   UNL     1       5.995  -8.661   2.648  0.00  0.00    +0.125 A 
ATOM     24  C   UNL     1       5.221  -7.708   2.010  0.00  0.00    +0.061 A 
ATOM     25  F   UNL     1       7.341  -8.545   2.650  0.00  0.00    -0.205 F 
ENDBRANCH  17  19
ENDBRANCH  15  17
ENDBRANCH   1  15
TORSDOF 6
