REMARK  Name = ZINC27238255
REMARK  16 active torsions:
REMARK  status: ('A' for Active; 'I' for Inactive)
REMARK    1  A    between atoms: C_1  and  C_2
REMARK    2  A    between atoms: C_2  and  O_3
REMARK    3  A    between atoms: O_3  and  C_4
REMARK    4  A    between atoms: C_7  and  C_10
REMARK    5  A    between atoms: C_10  and  C_11
REMARK    6  A    between atoms: C_10  and  C_16
REMARK    7  A    between atoms: C_10  and  O_35
REMARK    8  A    between atoms: C_11  and  C_12
REMARK    9  A    between atoms: C_12  and  C_13
REMARK   10  A    between atoms: C_13  and  C_14
REMARK   11  A    between atoms: C_13  and  C_15
REMARK   12  A    between atoms: C_16  and  C_18
REMARK   13  A    between atoms: C_16  and  O_26
REMARK   14  A    between atoms: C_18  and  N_19
REMARK   15  A    between atoms: O_26  and  C_27
REMARK   16  A    between atoms: C_32  and  C_33
REMARK                            x       y       z     vdW  Elec       q    Type
REMARK                         _______ _______ _______ _____ _____    ______ ____
ROOT
ATOM      1  C   UNL     1      -1.781   4.918   2.998  0.00  0.00    +0.193 C 
ENDROOT
BRANCH   1   2
ATOM      2  C   UNL     1      -2.923   4.467   3.911  0.00  0.00    +0.126 C 
BRANCH   2   6
ATOM      3  C   UNL     1      -3.105   0.198   3.961  0.00  0.00    +0.121 A 
ATOM      4  C   UNL     1      -4.261   0.945   4.140  0.00  0.00    +0.046 A 
ATOM      5  C   UNL     1      -4.199   2.325   4.123  0.00  0.00    +0.010 A 
ATOM      6  C   UNL     1      -2.987   2.962   3.929  0.00  0.00    -0.012 A 
ATOM      7  C   UNL     1      -1.835   2.220   3.744  0.00  0.00    +0.010 A 
ATOM      8  C   UNL     1      -1.891   0.839   3.766  0.00  0.00    +0.046 A 
BRANCH   3   9
ATOM      9  O   UNL     1      -3.163  -1.160   3.978  0.00  0.00    -0.492 OA
BRANCH   9  11
ATOM     10  C   UNL     1      -2.197  -3.370   3.836  0.00  0.00    +0.048 C 
ATOM     11  C   UNL     1      -1.935  -1.864   3.787  0.00  0.00    +0.225 C 
ENDBRANCH   9  11
ENDBRANCH   3   9
ENDBRANCH   2   6
BRANCH   2  12
ATOM     12  O   UNL     1      -4.159   4.991   3.422  0.00  0.00    -0.380 OA
ATOM     13  H   UNL     1      -4.300   6.079   3.337  0.00  0.00    +0.211 HD
ENDBRANCH   2  12
BRANCH   2  14
ATOM     14  C   UNL     1      -2.676   4.984   5.330  0.00  0.00    +0.043 C 
BRANCH  14  15
ATOM     15  C   UNL     1      -3.834   4.562   6.235  0.00  0.00    +0.006 C 
BRANCH  15  16
ATOM     16  C   UNL     1      -3.587   5.079   7.654  0.00  0.00    -0.017 C 
ATOM     17  C   UNL     1      -3.612   6.609   7.651  0.00  0.00    +0.007 C 
ATOM     18  C   UNL     1      -4.681   4.553   8.586  0.00  0.00    +0.007 C 
ENDBRANCH  15  16
ENDBRANCH  14  15
ENDBRANCH   2  14
ENDBRANCH   1   2
BRANCH   1  19
ATOM     19  C   UNL     1      -2.061   4.457   1.566  0.00  0.00    -0.030 C 
BRANCH  19  20
ATOM     20  N   UNL     1      -0.970   4.901   0.687  0.00  0.00    +0.382 N 
ATOM     21  C   UNL     1       0.289   4.192   1.005  0.00  0.00    -0.079 C 
ATOM     22  C   UNL     1       0.398   2.859   0.314  0.00  0.00    -0.019 C 
ATOM     23  C   UNL     1       1.170   3.056  -1.008  0.00  0.00    -0.002 C 
ATOM     24  C   UNL     1       0.329   3.620  -2.057  0.00  0.00    -0.002 C 
ATOM     25  C   UNL     1      -0.217   5.013  -1.680  0.00  0.00    -0.019 C 
ATOM     26  C   UNL     1      -1.374   4.833  -0.735  0.00  0.00    -0.079 C 
ATOM     27  H   UNL     1      -0.766   5.964   0.883  0.00  0.00    -0.082 HD
ENDBRANCH  19  20
ENDBRANCH   1  19
BRANCH   1  28
ATOM     28  O   UNL     1      -1.681   6.343   3.029  0.00  0.00    -0.487 OA
BRANCH  28  29
ATOM     29  C   UNL     1      -0.732   6.878   3.842  0.00  0.00    +0.124 A 
ATOM     30  C   UNL     1       0.001   6.057   4.687  0.00  0.00    +0.047 A 
ATOM     31  C   UNL     1       0.967   6.602   5.510  0.00  0.00    +0.023 A 
ATOM     32  C   UNL     1       1.197   7.966   5.500  0.00  0.00    +0.041 A 
ATOM     33  C   UNL     1       0.464   8.787   4.662  0.00  0.00    +0.027 A 
ATOM     34  C   UNL     1      -0.501   8.245   3.834  0.00  0.00    -0.007 A 
ATOM     35  C   UNL     1      -1.300   9.140   2.921  0.00  0.00    +0.047 C 
ATOM     36 CL   UNL     1       2.408   8.649   6.540  0.00  0.00    -0.084 Cl
ENDBRANCH  28  29
ENDBRANCH   1  28
TORSDOF 12
