REMARK  Name = ZINC51375184
REMARK  6 active torsions:
REMARK  status: ('A' for Active; 'I' for Inactive)
REMARK    1  A    between atoms: C_3  and  C_10
REMARK    2  A    between atoms: C_5  and  N_7
REMARK    3  A    between atoms: C_12  and  C_15
REMARK    4  A    between atoms: N_17  and  C_18
REMARK    5  A    between atoms: C_18  and  C_19
REMARK    6  A    between atoms: C_22  and  O_25
REMARK                            x       y       z     vdW  Elec       q    Type
REMARK                         _______ _______ _______ _____ _____    ______ ____
ROOT
ATOM      1  C   UNL     1       3.657   2.161  -0.022  0.00  0.00    +0.109 A 
ATOM      2  N   UNL     1       3.852   3.467  -0.012  0.00  0.00    -0.234 NA
ATOM      3  C   UNL     1       5.098   3.920  -0.022  0.00  0.00    +0.133 A 
ATOM      4  C   UNL     1       6.133   3.023  -0.043  0.00  0.00    +0.080 A 
ATOM      5  S   UNL     1       5.331   1.543  -0.041  0.00  0.00    -0.075 S 
ENDROOT
BRANCH   1   8
ATOM      6  C   UNL     1      -0.017   1.379   0.010  0.00  0.00    +0.003 A 
ATOM      7  C   UNL     1       1.167   2.088   0.002  0.00  0.00    +0.011 A 
ATOM      8  C   UNL     1       2.385   1.407  -0.013  0.00  0.00    +0.009 A 
ATOM      9  C   UNL     1       2.397   0.012  -0.021  0.00  0.00    +0.043 A 
ATOM     10  C   UNL     1       1.206  -0.685  -0.013  0.00  0.00    +0.127 A 
ATOM     11  C   UNL     1       0.002  -0.004   0.002  0.00  0.00    +0.033 A 
BRANCH  10  12
ATOM     12  N   UNL     1       1.217  -2.166  -0.022  0.00  0.00    +0.056 N 
ATOM     13  O   UNL     1       2.269  -2.762  -0.035  0.00  0.00    -0.126 OA
ATOM     14  O   UNL     1       0.175  -2.778  -0.015  0.00  0.00    -0.126 OA
ENDBRANCH  10  12
ENDBRANCH   1   8
BRANCH   3  15
ATOM     15  C   UNL     1       5.365   5.369  -0.012  0.00  0.00    +0.263 C 
ATOM     16  O   UNL     1       6.511   5.776  -0.022  0.00  0.00    -0.269 OA
ATOM     17  N   UNL     1       4.340   6.244   0.009  0.00  0.00    -0.306 N 
ATOM     18  H   UNL     1       3.426   5.919   0.017  0.00  0.00    +0.149 HD
BRANCH  17  19
ATOM     19  C   UNL     1       4.606   7.684   0.019  0.00  0.00    +0.140 C 
BRANCH  19  20
ATOM     20  C   UNL     1       3.300   8.436   0.041  0.00  0.00    -0.030 A 
ATOM     21  C   UNL     1       2.685   8.786  -1.146  0.00  0.00    +0.009 A 
ATOM     22  C   UNL     1       1.488   9.476  -1.128  0.00  0.00    +0.046 A 
ATOM     23  C   UNL     1       0.903   9.817   0.083  0.00  0.00    +0.117 A 
ATOM     24  C   UNL     1       1.522   9.463   1.273  0.00  0.00    +0.046 A 
ATOM     25  C   UNL     1       2.717   8.769   1.250  0.00  0.00    +0.009 A 
BRANCH  23  26
ATOM     26  O   UNL     1      -0.274  10.495   0.104  0.00  0.00    -0.507 OA
ATOM     27  H   UNL     1      -1.056   9.927   0.112  0.00  0.00    +0.292 HD
ENDBRANCH  23  26
ENDBRANCH  19  20
ENDBRANCH  17  19
ENDBRANCH   3  15
TORSDOF 6
