REMARK  Name = ZINC36556685
REMARK  2 active torsions:
REMARK  status: ('A' for Active; 'I' for Inactive)
REMARK    1  A    between atoms: C_4  and  C_7
REMARK    2  A    between atoms: N_35  and  O_36
REMARK                            x       y       z     vdW  Elec       q    Type
REMARK                         _______ _______ _______ _____ _____    ______ ____
ROOT
ATOM      1  C   UNL     1       3.711  -0.707  -0.038  0.00  0.00    +0.088 C 
ATOM      2  C   UNL     1       3.740  -1.677  -1.230  0.00  0.00    +0.101 C 
ATOM      3  C   UNL     1       3.515  -0.898  -2.489  0.00  0.00    +0.012 A 
ATOM      4  C   UNL     1       4.234   0.291  -2.626  0.00  0.00    +0.009 A 
ATOM      5  C   UNL     1       4.096   1.070  -3.745  0.00  0.00    +0.001 A 
ATOM      6  C   UNL     1       3.232   0.685  -4.755  0.00  0.00    +0.004 A 
ATOM      7  C   UNL     1       2.515  -0.489  -4.637  0.00  0.00    +0.046 A 
ATOM      8  C   UNL     1       2.667  -1.294  -3.506  0.00  0.00    +0.125 A 
ATOM      9  O   UNL     1       1.983  -2.467  -3.450  0.00  0.00    -0.489 OA
ATOM     10  C   UNL     1       1.712  -3.103  -4.705  0.00  0.00    +0.257 C 
ATOM     11  C   UNL     1       0.203  -3.283  -4.883  0.00  0.00    +0.201 C 
ATOM     12  O   UNL     1      -0.130  -4.670  -4.793  0.00  0.00    -0.373 OA
ATOM     13  C   UNL     1      -0.355  -5.128  -3.459  0.00  0.00    +0.201 C 
ATOM     14  C   UNL     1       0.933  -5.737  -2.907  0.00  0.00    +0.257 C 
ATOM     15  O   UNL     1       1.482  -4.879  -1.899  0.00  0.00    -0.489 OA
ATOM     16  C   UNL     1       1.588  -5.418  -0.651  0.00  0.00    +0.125 A 
ATOM     17  C   UNL     1       0.892  -6.590  -0.376  0.00  0.00    +0.046 A 
ATOM     18  C   UNL     1       0.966  -7.169   0.871  0.00  0.00    +0.004 A 
ATOM     19  C   UNL     1       1.731  -6.586   1.859  0.00  0.00    +0.001 A 
ATOM     20  C   UNL     1       2.427  -5.427   1.596  0.00  0.00    +0.009 A 
ATOM     21  C   UNL     1       2.367  -4.836   0.334  0.00  0.00    +0.011 A 
ATOM     22  C   UNL     1       3.194  -3.595   0.140  0.00  0.00    +0.094 C 
ATOM     23  N   UNL     1       2.781  -2.764  -0.994  0.00  0.00    -0.301 NA
ATOM     24  C   UNL     1       3.110  -2.766   1.431  0.00  0.00    +0.078 C 
ATOM     25  C   UNL     1       3.870  -1.482   1.242  0.00  0.00    +0.068 C 
ATOM     26  N   UNL     1       4.646  -1.051   2.164  0.00  0.00    -0.096 NA
ATOM     27  H   UNL     1       1.850  -2.400  -0.856  0.00  0.00    +0.123 HD
ENDROOT
BRANCH   1  31
ATOM     28  C   UNL     1      -0.017   1.378   0.010  0.00  0.00    +0.000 A 
ATOM     29  C   UNL     1       1.151   2.056  -0.285  0.00  0.00    +0.000 A 
ATOM     30  C   UNL     1       2.357   1.382  -0.300  0.00  0.00    +0.004 A 
ATOM     31  C   UNL     1       2.396   0.029  -0.020  0.00  0.00    -0.037 A 
ATOM     32  C   UNL     1       1.228  -0.650   0.276  0.00  0.00    +0.004 A 
ATOM     33  C   UNL     1       0.022   0.024   0.289  0.00  0.00    +0.000 A 
ENDBRANCH   1  31
BRANCH  26  34
ATOM     34  O   UNL     1       4.791  -1.784   3.367  0.00  0.00    -0.409 OA
ATOM     35  H   UNL     1       5.398  -1.380   4.003  0.00  0.00    +0.328 HD
ENDBRANCH  26  34
TORSDOF 2
