REMARK  Name = ZINC39684564
REMARK  10 active torsions:
REMARK  status: ('A' for Active; 'I' for Inactive)
REMARK    1  A    between atoms: C_1  and  C_2
REMARK    2  A    between atoms: C_2  and  C_4
REMARK    3  A    between atoms: C_2  and  N_8
REMARK    4  A    between atoms: C_4  and  C_5
REMARK    5  A    between atoms: C_4  and  C_6
REMARK    6  A    between atoms: C_4  and  C_7
REMARK    7  A    between atoms: C_9  and  C_11
REMARK    8  A    between atoms: C_22  and  C_24
REMARK    9  A    between atoms: C_26  and  O_31
REMARK   10  A    between atoms: O_31  and  C_32
REMARK                            x       y       z     vdW  Elec       q    Type
REMARK                         _______ _______ _______ _____ _____    ______ ____
ROOT
ATOM      1  C   UNL     1       0.889  -2.016  -4.011  0.00  0.00    +0.100 C 
ATOM      2  C   UNL     1       1.800  -0.780  -4.186  0.00  0.00    +0.121 C 
ATOM      3  N   UNL     1       1.688  -0.432  -5.622  0.00  0.00    -0.296 N 
ATOM      4  C   UNL     1       0.258  -0.652  -5.944  0.00  0.00    +0.115 C 
ATOM      5  C   UNL     1      -0.122  -1.928  -5.166  0.00  0.00    -0.004 C 
ATOM      6  C   UNL     1      -1.541  -1.808  -4.619  0.00  0.00    -0.010 C 
ATOM      7  C   UNL     1      -2.533  -1.781  -5.785  0.00  0.00    -0.082 C 
ATOM      8  N   UNL     1      -2.394  -3.009  -6.577  0.00  0.00    +0.379 N 
ATOM      9  C   UNL     1      -1.056  -3.070  -7.176  0.00  0.00    -0.082 C 
ATOM     10  C   UNL     1      -0.002  -3.152  -6.069  0.00  0.00    -0.010 C 
ATOM     11  C   UNL     1       2.666  -0.012  -6.449  0.00  0.00    +0.248 C 
ATOM     12  O   UNL     1       2.399   0.316  -7.588  0.00  0.00    -0.270 OA
ATOM     13  H   UNL     1      -2.530  -3.811  -5.979  0.00  0.00    -0.086 HD
ATOM     14  H   UNL     1      -3.090  -3.017  -7.308  0.00  0.00    -0.086 HD
ENDROOT
BRANCH  11  15
ATOM     15  C   UNL     1       4.063   0.050  -5.970  0.00  0.00    +0.054 A 
ATOM     16  C   UNL     1       4.344   0.535  -4.691  0.00  0.00    +0.059 A 
ATOM     17  C   UNL     1       5.654   0.590  -4.249  0.00  0.00    +0.121 A 
ATOM     18  C   UNL     1       6.686   0.164  -5.076  0.00  0.00    +0.047 A 
ATOM     19  C   UNL     1       6.410  -0.317  -6.342  0.00  0.00    +0.019 A 
ATOM     20  C   UNL     1       5.106  -0.381  -6.792  0.00  0.00    +0.030 A 
ATOM     21 BR   UNL     1       4.733  -1.046  -8.523  0.00  0.00    -0.050 Br
BRANCH  17  22
ATOM     22  O   UNL     1       5.932   1.062  -3.005  0.00  0.00    -0.495 OA
ATOM     23  C   UNL     1       7.306   1.090  -2.614  0.00  0.00    +0.277 C 
ENDBRANCH  17  22
ENDBRANCH  11  15
BRANCH   1  25
ATOM     24  N   UNL     1      -0.169  -3.101  -2.056  0.00  0.00    -0.312 N 
ATOM     25  C   UNL     1       0.176  -1.960  -2.684  0.00  0.00    +0.218 C 
ATOM     26  O   UNL     1      -0.087  -0.887  -2.183  0.00  0.00    -0.275 OA
ATOM     27  H   UNL     1       0.042  -3.958  -2.457  0.00  0.00    +0.149 HD
BRANCH  24  29
ATOM     28  C   UNL     1       0.166  -2.909   0.359  0.00  0.00    +0.028 C 
ATOM     29  C   UNL     1      -0.861  -3.046  -0.766  0.00  0.00    +0.075 C 
BRANCH  29  30
ATOM     30  C   UNL     1      -1.669  -4.330  -0.566  0.00  0.00    -0.020 C 
ATOM     31  C   UNL     1      -2.393  -4.272   0.781  0.00  0.00    +0.012 C 
ATOM     32  C   UNL     1      -2.697  -4.466  -1.691  0.00  0.00    +0.012 C 
ATOM     33  C   UNL     1      -0.726  -5.534  -0.587  0.00  0.00    +0.012 C 
ENDBRANCH  29  30
ENDBRANCH  24  29
ENDBRANCH   1  25
TORSDOF 5
