REMARK  Name = ZINC40035489
REMARK  8 active torsions:
REMARK  status: ('A' for Active; 'I' for Inactive)
REMARK    1  A    between atoms: C_1  and  C_2
REMARK    2  A    between atoms: C_2  and  C_3
REMARK    3  A    between atoms: C_3  and  C_31
REMARK    4  A    between atoms: N_15  and  C_28
REMARK    5  A    between atoms: N_18  and  N_19
REMARK    6  A    between atoms: C_20  and  C_21
REMARK    7  A    between atoms: C_25  and  O_27
REMARK    8  A    between atoms: C_28  and  C_29
REMARK                            x       y       z     vdW  Elec       q    Type
REMARK                         _______ _______ _______ _____ _____    ______ ____
ROOT
ATOM      1  C   UNL     1       0.718  -0.497  -1.257  0.00  0.00    +0.004 C 
ATOM      2  C   UNL     1       0.608  -2.019  -1.211  0.00  0.00    +0.047 C 
ATOM      3  C   UNL     1       1.496  -2.582  -0.134  0.00  0.00    -0.037 A 
ATOM      4  C   UNL     1       1.101  -3.688   0.591  0.00  0.00    +0.004 A 
ATOM      5  C   UNL     1       1.925  -4.200   1.577  0.00  0.00    +0.000 A 
ATOM      6  C   UNL     1       3.147  -3.611   1.845  0.00  0.00    +0.001 A 
ATOM      7  C   UNL     1       3.554  -2.504   1.127  0.00  0.00    +0.010 A 
ATOM      8  C   UNL     1       2.727  -1.984   0.136  0.00  0.00    +0.004 A 
ATOM      9  C   UNL     1       3.131  -0.791  -0.643  0.00  0.00    +0.084 A 
ATOM     10  C   UNL     1       2.158  -0.073  -1.322  0.00  0.00    +0.049 A 
ATOM     11  C   UNL     1       2.543   1.051  -2.065  0.00  0.00    +0.260 A 
ATOM     12  O   UNL     1       1.716   1.707  -2.677  0.00  0.00    -0.267 OA
ATOM     13  N   UNL     1       3.850   1.393  -2.089  0.00  0.00    -0.276 N 
ATOM     14  C   UNL     1       4.764   0.656  -1.400  0.00  0.00    +0.219 A 
ATOM     15  N   UNL     1       4.409  -0.402  -0.699  0.00  0.00    -0.214 NA
ATOM     16  N   UNL     1       6.085   1.024  -1.435  0.00  0.00    -0.206 N 
ATOM     17  C   UNL     1      -0.018   0.024  -2.493  0.00  0.00    +0.016 C 
ATOM     18  H   UNL     1       6.358   1.801  -1.947  0.00  0.00    +0.177 HD
ENDROOT
BRANCH   1  20
ATOM     19  C   UNL     1       0.157   1.619  -0.054  0.00  0.00    +0.005 C 
ATOM     20  C   UNL     1       0.075   0.093  -0.000  0.00  0.00    +0.008 C 
ENDBRANCH   1  20
BRANCH  16  21
ATOM     21  N   UNL     1       7.039   0.277  -0.732  0.00  0.00    -0.188 NA
ATOM     22  C   UNL     1       8.289   0.625  -0.765  0.00  0.00    +0.138 C 
BRANCH  22  23
ATOM     23  C   UNL     1       9.293  -0.161  -0.025  0.00  0.00    -0.002 A 
ATOM     24  C   UNL     1       8.903  -1.285   0.709  0.00  0.00    +0.010 A 
ATOM     25  C   UNL     1       9.845  -2.017   1.400  0.00  0.00    +0.004 A 
ATOM     26  C   UNL     1      11.177  -1.644   1.369  0.00  0.00    +0.045 A 
ATOM     27  C   UNL     1      11.574  -0.529   0.644  0.00  0.00    +0.117 A 
ATOM     28  C   UNL     1      10.638   0.211  -0.059  0.00  0.00    +0.054 A 
BRANCH  27  29
ATOM     29  O   UNL     1      12.884  -0.167   0.618  0.00  0.00    -0.507 OA
ATOM     30  H   UNL     1      13.390  -0.570  -0.101  0.00  0.00    +0.292 HD
ENDBRANCH  27  29
ENDBRANCH  22  23
ENDBRANCH  16  21
BRANCH  13  31
ATOM     31  C   UNL     1       4.285   2.560  -2.860  0.00  0.00    +0.155 C 
BRANCH  31  32
ATOM     32  C   UNL     1       4.239   3.786  -1.984  0.00  0.00    -0.013 C 
ATOM     33  C   UNL     1       5.309   4.527  -1.839  0.00  0.00    +0.005 C 
ENDBRANCH  31  32
ENDBRANCH  13  31
TORSDOF 6
