REMARK  Name = ZINC34888753
REMARK  3 active torsions:
REMARK  status: ('A' for Active; 'I' for Inactive)
REMARK    1  A    between atoms: C_4  and  C_7
REMARK    2  A    between atoms: C_8  and  C_9
REMARK    3  A    between atoms: N_10  and  N_11
REMARK                            x       y       z     vdW  Elec       q    Type
REMARK                         _______ _______ _______ _____ _____    ______ ____
ROOT
ATOM      1  C   UNL     1       2.504  -2.771  -0.005  0.00  0.00    +0.131 C 
ATOM      2  N   UNL     1       2.522  -4.047   0.254  0.00  0.00    -0.180 NA
ENDROOT
BRANCH   2   3
ATOM      3  N   UNL     1       1.320  -4.756   0.367  0.00  0.00    -0.146 N 
ATOM      4  C   UNL     1       0.992  -5.248   1.550  0.00  0.00    +0.251 C 
ATOM      5  O   UNL     1       1.694  -5.106   2.529  0.00  0.00    -0.273 OA
ATOM      6  C   UNL     1      -0.328  -6.006   1.598  0.00  0.00    +0.174 C 
ATOM      7  S   UNL     1      -0.848  -5.843  -0.161  0.00  0.00    -0.091 S 
ATOM      8  C   UNL     1       0.556  -4.896  -0.732  0.00  0.00    +0.138 C 
ATOM      9  S   UNL     1       0.859  -4.306  -2.311  0.00  0.00    -0.026 S 
ENDBRANCH   2   3
BRANCH   1  11
ATOM     10  C   UNL     1       3.686  -0.693  -0.180  0.00  0.00    +0.009 C 
ATOM     11  C   UNL     1       3.714  -2.032  -0.016  0.00  0.00    +0.022 C 
BRANCH  10  15
ATOM     12  C   UNL     1      -0.022   1.367  -0.173  0.00  0.00    +0.000 A 
ATOM     13  C   UNL     1       0.141   0.240   0.614  0.00  0.00    +0.001 A 
ATOM     14  C   UNL     1       1.343  -0.435   0.617  0.00  0.00    +0.008 A 
ATOM     15  C   UNL     1       2.399   0.021  -0.178  0.00  0.00    -0.025 A 
ATOM     16  C   UNL     1       2.227   1.161  -0.970  0.00  0.00    +0.008 A 
ATOM     17  C   UNL     1       1.019   1.825  -0.962  0.00  0.00    +0.001 A 
ENDBRANCH  10  15
ENDBRANCH   1  11
TORSDOF 3
