REMARK  Name = ZINC05556733
REMARK  6 active torsions:
REMARK  status: ('A' for Active; 'I' for Inactive)
REMARK    1  A    between atoms: C_1  and  C_2
REMARK    2  A    between atoms: C_2  and  S_3
REMARK    3  A    between atoms: S_3  and  C_4
REMARK    4  A    between atoms: C_16  and  C_18
REMARK    5  A    between atoms: C_16  and  C_19
REMARK    6  A    between atoms: C_23  and  C_25
REMARK                            x       y       z     vdW  Elec       q    Type
REMARK                         _______ _______ _______ _____ _____    ______ ____
ROOT
ATOM      1  C   UNL     1      -0.016   1.308   0.009  0.00  0.00    +0.198 A 
ATOM      2  N   UNL     1       0.002  -0.004   0.002  0.00  0.00    -0.120 NA
ATOM      3  N   UNL     1       1.215  -0.429  -0.012  0.00  0.00    -0.107 NA
ATOM      4  C   UNL     1       2.046   0.584  -0.015  0.00  0.00    +0.260 A 
ATOM      5  N   UNL     1       1.287   1.728  -0.001  0.00  0.00    -0.248 N 
ATOM      6  C   UNL     1       1.883   2.965   0.003  0.00  0.00    +0.101 A 
ATOM      7  C   UNL     1       3.264   3.123  -0.009  0.00  0.00    +0.054 A 
ATOM      8  C   UNL     1       3.751   4.500  -0.002  0.00  0.00    -0.019 A 
ATOM      9  C   UNL     1       2.820   5.482   0.015  0.00  0.00    +0.021 A 
ATOM     10  S   UNL     1       1.268   4.631   0.022  0.00  0.00    -0.072 S 
ATOM     11  C   UNL     1       3.085   6.955   0.026  0.00  0.00    +0.203 C 
ATOM     12  O   UNL     1       4.474   7.149   0.337  0.00  0.00    -0.368 OA
ATOM     13  C   UNL     1       5.353   6.333  -0.442  0.00  0.00    +0.068 C 
ATOM     14  C   UNL     1       5.232   4.868  -0.014  0.00  0.00    +0.071 C 
ATOM     15  C   UNL     1       4.986   6.461  -1.922  0.00  0.00    +0.041 C 
ATOM     16  C   UNL     1       6.795   6.801  -0.236  0.00  0.00    +0.041 C 
ATOM     17  C   UNL     1       4.059   1.869  -0.028  0.00  0.00    +0.170 A 
ATOM     18  N   UNL     1       3.427   0.666  -0.030  0.00  0.00    -0.177 N 
ATOM     19  N   UNL     1       4.439  -0.306  -0.048  0.00  0.00    -0.147 NA
ATOM     20  C   UNL     1       5.583   0.331  -0.056  0.00  0.00    +0.149 A 
ATOM     21  N   UNL     1       5.359   1.643  -0.044  0.00  0.00    -0.211 NA
ATOM     22  C   UNL     1       6.942  -0.320  -0.076  0.00  0.00    +0.090 C 
ENDROOT
BRANCH   1  23
ATOM     23  S   UNL     1      -1.447   2.335   0.022  0.00  0.00    -0.086 S 
BRANCH  23  25
ATOM     24  C   UNL     1      -4.152   1.930   0.034  0.00  0.00    +0.016 C 
ATOM     25  C   UNL     1      -2.830   1.161   0.023  0.00  0.00    +0.074 C 
ENDBRANCH  23  25
ENDBRANCH   1  23
TORSDOF 2
