REMARK  Name = ZINC09950415
REMARK  7 active torsions:
REMARK  status: ('A' for Active; 'I' for Inactive)
REMARK    1  A    between atoms: C_4  and  O_32
REMARK    2  A    between atoms: C_5  and  N_7
REMARK    3  A    between atoms: C_12  and  C_13
REMARK    4  A    between atoms: C_12  and  N_60
REMARK    5  A    between atoms: N_15  and  C_16
REMARK    6  A    between atoms: N_15  and  C_22
REMARK    7  A    between atoms: C_16  and  C_17
REMARK                            x       y       z     vdW  Elec       q    Type
REMARK                         _______ _______ _______ _____ _____    ______ ____
ROOT
ATOM      1  C   UNL     1       4.778   0.020  -0.156  0.00  0.00    +0.204 C 
ATOM      2  O   UNL     1       4.769   1.233  -0.149  0.00  0.00    -0.277 OA
ATOM      3  N   UNL     1       3.621  -0.663  -0.044  0.00  0.00    -0.268 N 
ENDROOT
BRANCH   3   4
ATOM      4  C   UNL     1       2.401   0.025  -0.020  0.00  0.00    +0.040 A 
ATOM      5  C   UNL     1       1.643   0.054   1.143  0.00  0.00    +0.027 A 
ATOM      6  C   UNL     1       0.440   0.732   1.167  0.00  0.00    +0.051 A 
ATOM      7  C   UNL     1      -0.015   1.385   0.031  0.00  0.00    +0.162 A 
ATOM      8  C   UNL     1       0.743   1.360  -1.134  0.00  0.00    +0.164 A 
ATOM      9  C   UNL     1       1.950   0.679  -1.158  0.00  0.00    +0.073 A 
ATOM     10  O   UNL     1       0.318   2.003  -2.256  0.00  0.00    -0.485 OA
ATOM     11  C   UNL     1      -1.068   2.359  -2.307  0.00  0.00    +0.270 C 
ATOM     12  C   UNL     1      -1.450   2.999  -0.966  0.00  0.00    +0.270 C 
ATOM     13  O   UNL     1      -1.208   2.042   0.071  0.00  0.00    -0.485 OA
ENDBRANCH   3   4
BRANCH   1  14
ATOM     14  C   UNL     1       6.082  -0.724  -0.289  0.00  0.00    +0.019 C 
BRANCH  14  20
ATOM     15  N   UNL     1       9.516   1.377  -1.569  0.00  0.00    -0.331 N 
ATOM     16  C   UNL     1       9.606   0.607  -0.321  0.00  0.00    +0.086 C 
ATOM     17  C   UNL     1       8.487  -0.437  -0.287  0.00  0.00    -0.059 C 
ATOM     18  C   UNL     1       7.097   1.009  -1.643  0.00  0.00    -0.059 C 
ATOM     19  C   UNL     1       8.216   2.053  -1.676  0.00  0.00    +0.086 C 
ATOM     20  N   UNL     1       7.184   0.258  -0.373  0.00  0.00    +0.387 N 
ATOM     21  H   UNL     1       7.105   0.916   0.411  0.00  0.00    -0.081 HD
BRANCH  15  26
ATOM     22  C   UNL     1      11.764   4.186  -0.808  0.00  0.00    +0.002 A 
ATOM     23  C   UNL     1      12.650   4.111  -1.867  0.00  0.00    +0.004 A 
ATOM     24  C   UNL     1      12.501   3.130  -2.830  0.00  0.00    +0.047 A 
ATOM     25  C   UNL     1      11.462   2.220  -2.736  0.00  0.00    +0.138 A 
ATOM     26  C   UNL     1      10.569   2.294  -1.669  0.00  0.00    +0.072 A 
ATOM     27  C   UNL     1      10.722   3.284  -0.710  0.00  0.00    +0.027 A 
BRANCH  25  28
ATOM     28  O   UNL     1      11.313   1.255  -3.683  0.00  0.00    -0.505 OA
ATOM     29  H   UNL     1      10.754   1.517  -4.427  0.00  0.00    +0.292 HD
ENDBRANCH  25  28
ENDBRANCH  15  26
ENDBRANCH  14  20
ENDBRANCH   1  14
BRANCH   3  30
ATOM     30  C   UNL     1       3.640  -2.125   0.052  0.00  0.00    +0.156 C 
BRANCH  30  31
ATOM     31  C   UNL     1       3.565  -2.720  -1.331  0.00  0.00    +0.007 A 
ATOM     32  C   UNL     1       4.574  -3.047  -2.175  0.00  0.00    +0.013 A 
ATOM     33  C   UNL     1       4.267  -3.588  -3.409  0.00  0.00    +0.008 A 
ATOM     34  C   UNL     1       2.965  -3.774  -3.740  0.00  0.00    +0.045 A 
ATOM     35  S   UNL     1       2.126  -3.183  -2.279  0.00  0.00    -0.100 S 
ENDBRANCH  30  31
ENDBRANCH   3  30
TORSDOF 7
