REMARK  Name = ZINC38855509
REMARK  9 active torsions:
REMARK  status: ('A' for Active; 'I' for Inactive)
REMARK    1  A    between atoms: C_1  and  C_2
REMARK    2  A    between atoms: C_2  and  C_3
REMARK    3  A    between atoms: C_3  and  C_5
REMARK    4  A    between atoms: C_3  and  N_6
REMARK    5  A    between atoms: C_7  and  C_9
REMARK    6  A    between atoms: C_14  and  N_15
REMARK    7  A    between atoms: C_16  and  C_18
REMARK    8  A    between atoms: N_23  and  C_25
REMARK    9  A    between atoms: C_25  and  C_26
REMARK                            x       y       z     vdW  Elec       q    Type
REMARK                         _______ _______ _______ _____ _____    ______ ____
ROOT
ATOM      1  N   UNL     1       4.323   0.178  -4.656  0.00  0.00    -0.285 N 
ATOM      2  C   UNL     1       5.037   0.120  -5.798  0.00  0.00    +0.219 C 
ATOM      3  O   UNL     1       6.240   0.270  -5.770  0.00  0.00    -0.275 OA
ATOM      4  H   UNL     1       3.370  -0.001  -4.670  0.00  0.00    +0.155 HD
ENDROOT
BRANCH   2   5
ATOM      5  C   UNL     1       4.339  -0.131  -7.110  0.00  0.00    +0.059 C 
ATOM      6  C   UNL     1       3.620  -1.482  -7.057  0.00  0.00    +0.009 C 
ATOM      7  C   UNL     1       2.981  -1.763  -8.420  0.00  0.00    -0.018 C 
ATOM      8  C   UNL     1       4.062  -1.724  -9.502  0.00  0.00    -0.078 C 
ATOM      9  N   UNL     1       4.694  -0.399  -9.520  0.00  0.00    +0.383 N 
ATOM     10  C   UNL     1       5.370  -0.151  -8.241  0.00  0.00    -0.066 C 
ATOM     11  H   UNL     1       3.988   0.307  -9.668  0.00  0.00    -0.081 HD
BRANCH   9  12
ATOM     12  C   UNL     1       5.676  -0.341 -10.611  0.00  0.00    -0.043 C 
BRANCH  12  13
ATOM     13  C   UNL     1       4.965  -0.462 -11.934  0.00  0.00    -0.064 A 
ATOM     14  C   UNL     1       4.754  -1.709 -12.493  0.00  0.00    +0.003 A 
ATOM     15  C   UNL     1       4.101  -1.821 -13.706  0.00  0.00    +0.015 A 
ATOM     16  C   UNL     1       3.660  -0.685 -14.361  0.00  0.00    +0.018 A 
ATOM     17  C   UNL     1       3.871   0.562 -13.801  0.00  0.00    +0.015 A 
ATOM     18  C   UNL     1       4.519   0.672 -12.585  0.00  0.00    +0.003 A 
ATOM     19 BR   UNL     1       2.768  -0.837 -16.022  0.00  0.00    -0.050 Br
ENDBRANCH  12  13
ENDBRANCH   9  12
ENDBRANCH   2   5
BRANCH   1  25
ATOM     20  C   UNL     1       4.349   1.381  -2.553  0.00  0.00    +0.058 A 
ATOM     21  C   UNL     1       4.990   1.686  -1.350  0.00  0.00    +0.015 A 
ATOM     22  C   UNL     1       6.213   1.121  -1.060  0.00  0.00    +0.001 A 
ATOM     23  C   UNL     1       6.811   0.251  -1.957  0.00  0.00    +0.002 A 
ATOM     24  C   UNL     1       6.190  -0.060  -3.149  0.00  0.00    +0.024 A 
ATOM     25  C   UNL     1       4.955   0.495  -3.456  0.00  0.00    +0.046 A 
BRANCH  20  27
ATOM     26  N   UNL     1       2.405   2.737  -1.950  0.00  0.00    -0.309 N 
ATOM     27  C   UNL     1       3.039   1.982  -2.869  0.00  0.00    +0.246 C 
ATOM     28  O   UNL     1       2.531   1.795  -3.958  0.00  0.00    -0.270 OA
ATOM     29  H   UNL     1       2.809   2.885  -1.081  0.00  0.00    +0.149 HD
BRANCH  26  30
ATOM     30  C   UNL     1       1.104   3.333  -2.264  0.00  0.00    +0.070 C 
ATOM     31  C   UNL     1      -0.005   2.318  -1.980  0.00  0.00    +0.028 C 
BRANCH  30  33
ATOM     32  C   UNL     1       1.925   5.641  -1.771  0.00  0.00    +0.005 C 
ATOM     33  C   UNL     1       0.891   4.577  -1.398  0.00  0.00    +0.018 C 
ENDBRANCH  30  33
ENDBRANCH  26  30
ENDBRANCH  20  27
ENDBRANCH   1  25
TORSDOF 7
