REMARK  Name = ZINC33551529
REMARK  9 active torsions:
REMARK  status: ('A' for Active; 'I' for Inactive)
REMARK    1  A    between atoms: C_1  and  C_2
REMARK    2  A    between atoms: C_2  and  C_3
REMARK    3  A    between atoms: C_3  and  C_4
REMARK    4  A    between atoms: C_4  and  N_5
REMARK    5  A    between atoms: C_10  and  C_29
REMARK    6  A    between atoms: C_13  and  C_18
REMARK    7  A    between atoms: C_13  and  C_26
REMARK    8  A    between atoms: C_18  and  C_19
REMARK    9  A    between atoms: C_22  and  O_25
REMARK                            x       y       z     vdW  Elec       q    Type
REMARK                         _______ _______ _______ _____ _____    ______ ____
ROOT
ATOM      1  N   UNL     1       4.160   5.173  -0.431  0.00  0.00    -0.242 N 
ATOM      2  C   UNL     1       3.304   5.635  -1.401  0.00  0.00    +0.224 C 
ATOM      3  O   UNL     1       3.550   6.424  -2.287  0.00  0.00    -0.275 OA
ATOM      4  C   UNL     1       2.048   4.975  -1.135  0.00  0.00    +0.077 C 
ATOM      5  C   UNL     1       0.802   4.608  -1.834  0.00  0.00    -0.026 C 
ATOM      6  N   UNL     1       0.158   3.658  -0.862  0.00  0.00    +0.396 N 
ATOM      7  C   UNL     1       1.235   3.094   0.007  0.00  0.00    +0.052 C 
ATOM      8  C   UNL     1       2.540   3.573  -0.605  0.00  0.00    +0.086 C 
ATOM      9  C   UNL     1       3.666   4.086   0.235  0.00  0.00    +0.225 C 
ATOM     10  O   UNL     1       4.058   3.633   1.288  0.00  0.00    -0.275 OA
ATOM     11  H   UNL     1      -0.580   4.202  -0.253  0.00  0.00    -0.083 HD
ATOM     12  H   UNL     1      -0.347   2.853  -1.416  0.00  0.00    -0.083 HD
ENDROOT
BRANCH   5  13
ATOM     13  C   UNL     1      -0.066   5.819  -2.056  0.00  0.00    -0.053 A 
ATOM     14  C   UNL     1      -1.058   6.121  -1.174  0.00  0.00    +0.002 A 
ATOM     15  C   UNL     1      -1.867   7.240  -1.359  0.00  0.00    +0.001 A 
ATOM     16  C   UNL     1      -1.696   8.058  -2.433  0.00  0.00    +0.008 A 
ATOM     17  C   UNL     1      -0.686   7.776  -3.368  0.00  0.00    -0.018 A 
ATOM     18  C   UNL     1       0.141   6.641  -3.177  0.00  0.00    -0.016 A 
ATOM     19  C   UNL     1       1.151   6.358  -4.112  0.00  0.00    +0.009 A 
ATOM     20  C   UNL     1       1.321   7.176  -5.187  0.00  0.00    +0.001 A 
ATOM     21  C   UNL     1       0.508   8.292  -5.375  0.00  0.00    +0.001 A 
ATOM     22  C   UNL     1      -0.479   8.597  -4.490  0.00  0.00    +0.008 A 
ENDBRANCH   5  13
BRANCH   7  23
ATOM     23  C   UNL     1       1.177   1.588  -0.001  0.00  0.00    +0.347 C 
ATOM     24  O   UNL     1       2.199   0.944  -0.014  0.00  0.00    -0.248 OA
ATOM     25  O   UNL     1      -0.011   0.963   0.007  0.00  0.00    -0.248 OA
ENDBRANCH   7  23
BRANCH   1  26
ATOM     26  C   UNL     1       5.462   5.779  -0.142  0.00  0.00    +0.116 C 
BRANCH  26  27
ATOM     27  C   UNL     1       6.537   5.116  -1.006  0.00  0.00    +0.019 C 
BRANCH  27  29
ATOM     28  C   UNL     1       8.971   5.087  -1.568  0.00  0.00    +0.004 C 
ATOM     29  C   UNL     1       7.897   5.750  -0.704  0.00  0.00    -0.002 C 
ENDBRANCH  27  29
ENDBRANCH  26  27
ENDBRANCH   1  26
BRANCH   7  30
ATOM     30  C   UNL     1       1.096   3.622   1.436  0.00  0.00    +0.035 C 
BRANCH  30  31
ATOM     31  C   UNL     1      -0.218   3.163   2.015  0.00  0.00    -0.048 A 
ATOM     32  C   UNL     1      -1.348   3.945   1.868  0.00  0.00    +0.007 A 
ATOM     33  C   UNL     1      -2.554   3.523   2.393  0.00  0.00    +0.045 A 
ATOM     34  C   UNL     1      -2.628   2.320   3.079  0.00  0.00    +0.117 A 
ATOM     35  C   UNL     1      -1.491   1.539   3.230  0.00  0.00    +0.045 A 
ATOM     36  C   UNL     1      -0.289   1.962   2.698  0.00  0.00    +0.007 A 
BRANCH  34  37
ATOM     37  O   UNL     1      -3.812   1.906   3.602  0.00  0.00    -0.507 OA
ATOM     38  H   UNL     1      -3.870   0.951   4.145  0.00  0.00    +0.292 HD
ENDBRANCH  34  37
ENDBRANCH  30  31
ENDBRANCH   7  30
TORSDOF 8
