REMARK  Name = ZINC60379346
REMARK  11 active torsions:
REMARK  status: ('A' for Active; 'I' for Inactive)
REMARK    1  A    between atoms: C_1  and  C_2
REMARK    2  A    between atoms: C_2  and  N_3
REMARK    3  A    between atoms: N_3  and  C_4
REMARK    4  A    between atoms: N_3  and  C_28
REMARK    5  A    between atoms: C_7  and  N_10
REMARK    6  A    between atoms: C_11  and  C_13
REMARK    7  A    between atoms: C_13  and  N_14
REMARK    8  A    between atoms: C_17  and  C_21
REMARK    9  A    between atoms: C_17  and  C_22
REMARK   10  A    between atoms: C_28  and  C_29
REMARK   11  A    between atoms: C_28  and  C_30
REMARK                            x       y       z     vdW  Elec       q    Type
REMARK                         _______ _______ _______ _____ _____    ______ ____
ROOT
ATOM      1  N   UNL     1      -0.239  -5.873   1.309  0.00  0.00    -0.284 N 
ATOM      2  C   UNL     1      -0.603  -6.405   2.493  0.00  0.00    +0.235 C 
ATOM      3  O   UNL     1      -0.849  -5.679   3.433  0.00  0.00    -0.274 OA
ATOM      4  H   UNL     1      -0.114  -6.448   0.537  0.00  0.00    +0.155 HD
ENDROOT
BRANCH   1   8
ATOM      5  C   UNL     1       0.347  -1.763   0.961  0.00  0.00    +0.014 A 
ATOM      6  C   UNL     1       0.654  -2.406   2.146  0.00  0.00    +0.023 A 
ATOM      7  C   UNL     1       0.461  -3.769   2.264  0.00  0.00    +0.025 A 
ATOM      8  C   UNL     1      -0.043  -4.493   1.192  0.00  0.00    +0.034 A 
ATOM      9  C   UNL     1      -0.351  -3.844   0.003  0.00  0.00    +0.025 A 
ATOM     10  C   UNL     1      -0.160  -2.481  -0.107  0.00  0.00    +0.023 A 
BRANCH   5  11
ATOM     11  N   UNL     1       0.544  -0.384   0.844  0.00  0.00    -0.392 NA
ATOM     12  H   UNL     1       0.266  -0.082  -0.077  0.00  0.00    +0.127 HD
BRANCH  11  13
ATOM     13  C   UNL     1      -0.265   0.313   1.853  0.00  0.00    +0.049 C 
ATOM     14  C   UNL     1      -0.121   1.825   1.667  0.00  0.00    +0.026 C 
ATOM     15  C   UNL     1      -1.734  -0.083   1.692  0.00  0.00    +0.026 C 
ENDBRANCH  11  13
BRANCH  11  17
ATOM     16  C   UNL     1       2.793  -0.685  -0.076  0.00  0.00    +0.022 C 
ATOM     17  C   UNL     1       1.964  -0.072   1.054  0.00  0.00    +0.082 C 
ENDBRANCH  11  17
ENDBRANCH   5  11
ENDBRANCH   1   8
BRANCH   2  18
ATOM     18  C   UNL     1      -0.703  -7.900   2.649  0.00  0.00    +0.214 C 
BRANCH  18  19
ATOM     19  N   UNL     1      -1.112  -8.222   4.018  0.00  0.00    -0.215 N 
ATOM     20  C   UNL     1      -0.254  -8.422   5.037  0.00  0.00    +0.253 C 
ATOM     21  O   UNL     1       0.957  -8.372   4.996  0.00  0.00    -0.272 OA
ATOM     22  C   UNL     1      -1.117  -8.723   6.247  0.00  0.00    +0.152 C 
ATOM     23  N   UNL     1      -2.490  -8.650   5.719  0.00  0.00    -0.280 N 
ATOM     24  C   UNL     1      -2.384  -8.348   4.412  0.00  0.00    +0.310 C 
ATOM     25  O   UNL     1      -3.338  -8.209   3.671  0.00  0.00    -0.252 OA
ATOM     26  C   UNL     1      -0.821 -10.124   6.785  0.00  0.00    +0.048 C 
ATOM     27  H   UNL     1      -3.311  -8.790   6.216  0.00  0.00    +0.152 HD
BRANCH  22  28
ATOM     28  C   UNL     1      -0.906  -7.686   7.320  0.00  0.00    +0.073 A 
ATOM     29  C   UNL     1      -1.976  -6.927   7.756  0.00  0.00    +0.026 A 
ATOM     30  C   UNL     1      -1.771  -5.976   8.744  0.00  0.00    +0.003 A 
ATOM     31  C   UNL     1      -0.492  -5.822   9.257  0.00  0.00    +0.020 A 
ATOM     32  C   UNL     1       0.529  -6.617   8.771  0.00  0.00    +0.111 A 
ATOM     33  N   UNL     1       0.296  -7.516   7.835  0.00  0.00    -0.257 NA
ENDBRANCH  22  28
ENDBRANCH  18  19
ENDBRANCH   2  18
TORSDOF 7
