REMARK  Name = ZINC35991112
REMARK  16 active torsions:
REMARK  status: ('A' for Active; 'I' for Inactive)
REMARK    1  A    between atoms: C_1  and  C_2
REMARK    2  A    between atoms: C_2  and  N_3
REMARK    3  A    between atoms: C_4  and  C_26
REMARK    4  A    between atoms: C_5  and  C_21
REMARK    5  A    between atoms: C_6  and  C_11
REMARK    6  A    between atoms: C_14  and  C_17
REMARK    7  A    between atoms: C_17  and  C_18
REMARK    8  A    between atoms: C_17  and  C_19
REMARK    9  A    between atoms: C_17  and  C_20
REMARK   10  A    between atoms: C_21  and  O_23
REMARK   11  A    between atoms: O_23  and  C_24
REMARK   12  A    between atoms: C_24  and  C_25
REMARK   13  A    between atoms: C_26  and  N_27
REMARK   14  A    between atoms: N_27  and  C_28
REMARK   15  A    between atoms: N_27  and  C_29
REMARK   16  A    between atoms: C_29  and  C_30
REMARK                            x       y       z     vdW  Elec       q    Type
REMARK                         _______ _______ _______ _____ _____    ______ ____
ROOT
ATOM      1  N   UNL     1      -1.982  -0.407   0.042  0.00  0.00    -0.261 N 
ATOM      2  C   UNL     1      -2.350  -0.801   1.297  0.00  0.00    +0.010 C 
ATOM      3  C   UNL     1      -3.386  -1.647   1.486  0.00  0.00    +0.076 C 
ATOM      4  C   UNL     1      -4.125  -2.142   0.259  0.00  0.00    +0.143 C 
ATOM      5  N   UNL     1      -3.649  -1.658  -1.047  0.00  0.00    -0.288 N 
ATOM      6  C   UNL     1      -2.602  -0.810  -1.074  0.00  0.00    +0.307 C 
ATOM      7  O   UNL     1      -2.204  -0.401  -2.148  0.00  0.00    -0.252 OA
ATOM      8  H   UNL     1      -4.081  -1.939  -1.869  0.00  0.00    +0.151 HD
ENDROOT
BRANCH   4   9
ATOM      9  C   UNL     1      -4.052  -3.648   0.250  0.00  0.00    -0.022 A 
ATOM     10  C   UNL     1      -2.908  -4.282  -0.196  0.00  0.00    +0.006 A 
ATOM     11  C   UNL     1      -2.841  -5.662  -0.204  0.00  0.00    +0.004 A 
ATOM     12  C   UNL     1      -3.919  -6.409   0.233  0.00  0.00    -0.042 A 
ATOM     13  C   UNL     1      -5.064  -5.775   0.679  0.00  0.00    +0.004 A 
ATOM     14  C   UNL     1      -5.128  -4.394   0.692  0.00  0.00    +0.006 A 
BRANCH  12  15
ATOM     15  C   UNL     1      -3.847  -7.914   0.223  0.00  0.00    -0.013 C 
ATOM     16  C   UNL     1      -2.692  -8.376   1.114  0.00  0.00    +0.015 C 
ATOM     17  C   UNL     1      -5.162  -8.491   0.752  0.00  0.00    +0.015 C 
ATOM     18  C   UNL     1      -3.615  -8.404  -1.208  0.00  0.00    +0.015 C 
ENDBRANCH  12  15
ENDBRANCH   4   9
BRANCH   1  20
ATOM     19  C   UNL     1      -1.354   1.955  -0.037  0.00  0.00    +0.025 C 
ATOM     20  C   UNL     1      -0.849   0.512  -0.089  0.00  0.00    +0.111 C 
ENDBRANCH   1  20
BRANCH   3  21
ATOM     21  C   UNL     1      -3.768  -2.056   2.785  0.00  0.00    +0.339 C 
ATOM     22  O   UNL     1      -3.094  -1.737   3.746  0.00  0.00    -0.245 OA
BRANCH  21  23
ATOM     23  O   UNL     1      -4.880  -2.802   2.958  0.00  0.00    -0.462 OA
BRANCH  23  24
ATOM     24  C   UNL     1      -5.205  -3.180   4.297  0.00  0.00    +0.229 C 
ATOM     25  C   UNL     1      -6.488  -4.014   4.293  0.00  0.00    +0.048 C 
ENDBRANCH  23  24
ENDBRANCH  21  23
ENDBRANCH   3  21
BRANCH   2  26
ATOM     26  C   UNL     1      -1.588  -0.284   2.490  0.00  0.00    -0.026 C 
BRANCH  26  27
ATOM     27  N   UNL     1      -0.634  -1.306   2.941  0.00  0.00    +0.384 N 
ATOM     28  C   UNL     1       0.417  -1.475   1.929  0.00  0.00    -0.095 C 
ATOM     29  H   UNL     1      -1.116  -2.181   3.075  0.00  0.00    -0.081 HD
BRANCH  27  30
ATOM     30  C   UNL     1      -0.027  -0.882   4.210  0.00  0.00    -0.043 C 
BRANCH  30  31
ATOM     31  C   UNL     1       0.859  -1.982   4.735  0.00  0.00    -0.064 A 
ATOM     32  C   UNL     1       0.335  -2.952   5.570  0.00  0.00    +0.002 A 
ATOM     33  C   UNL     1       1.147  -3.962   6.051  0.00  0.00    +0.000 A 
ATOM     34  C   UNL     1       2.483  -4.001   5.699  0.00  0.00    +0.000 A 
ATOM     35  C   UNL     1       3.007  -3.032   4.864  0.00  0.00    +0.000 A 
ATOM     36  C   UNL     1       2.193  -2.025   4.378  0.00  0.00    +0.002 A 
ENDBRANCH  30  31
ENDBRANCH  27  30
ENDBRANCH  26  27
ENDBRANCH   2  26
TORSDOF 10
