REMARK  Name = ZINC55161798
REMARK  7 active torsions:
REMARK  status: ('A' for Active; 'I' for Inactive)
REMARK    1  A    between atoms: C_1  and  C_2
REMARK    2  A    between atoms: C_5  and  O_27
REMARK    3  A    between atoms: C_7  and  C_24
REMARK    4  A    between atoms: C_7  and  C_25
REMARK    5  A    between atoms: C_14  and  C_16
REMARK    6  A    between atoms: C_16  and  C_17
REMARK    7  A    between atoms: C_25  and  O_26
REMARK                            x       y       z     vdW  Elec       q    Type
REMARK                         _______ _______ _______ _____ _____    ______ ____
ROOT
ATOM      1  C   UNL     1      -0.186   1.525   0.548  0.00  0.00    +0.012 C 
ATOM      2  C   UNL     1      -0.167  -0.004   0.529  0.00  0.00    -0.022 C 
ATOM      3  C   UNL     1       0.123  -0.496  -0.891  0.00  0.00    +0.010 C 
ATOM      4  C   UNL     1       1.496   0.005  -1.342  0.00  0.00    +0.032 C 
ATOM      5  C   UNL     1       2.567  -0.538  -0.393  0.00  0.00    +0.123 C 
ATOM      6  C   UNL     1       2.287  -0.034   1.023  0.00  0.00    +0.020 C 
ATOM      7  C   UNL     1       0.915  -0.514   1.483  0.00  0.00    +0.006 C 
ATOM      8  C   UNL     1       0.659   0.021   2.894  0.00  0.00    +0.009 C 
ATOM      9  C   UNL     1      -0.672  -0.526   3.418  0.00  0.00    +0.031 C 
ATOM     10  C   UNL     1      -1.755  -0.176   2.421  0.00  0.00    -0.073 C 
ATOM     11  C   UNL     1      -2.854   0.426   2.804  0.00  0.00    +0.008 C 
ATOM     12  C   UNL     1      -1.534  -0.541   0.971  0.00  0.00    +0.024 C 
ATOM     13  C   UNL     1       3.360  -0.566   1.974  0.00  0.00    +0.016 C 
ENDROOT
BRANCH   5  14
ATOM     14  O   UNL     1       3.854  -0.085  -0.816  0.00  0.00    -0.391 OA
ATOM     15  H   UNL     1       4.096  -0.366  -1.709  0.00  0.00    +0.210 HD
ENDBRANCH   5  14
BRANCH  12  16
ATOM     16  C   UNL     1      -1.565  -2.062   0.808  0.00  0.00    +0.036 C 
BRANCH  16  17
ATOM     17  C   UNL     1      -2.946  -2.574   1.125  0.00  0.00    -0.011 C 
ATOM     18  C   UNL     1      -3.611  -3.325   0.224  0.00  0.00    +0.058 C 
ATOM     19  C   UNL     1      -4.967  -3.911   0.345  0.00  0.00    +0.053 C 
ATOM     20  C   UNL     1      -5.199  -4.568  -0.789  0.00  0.00    +0.200 C 
ATOM     21  O   UNL     1      -4.159  -4.484  -1.639  0.00  0.00    -0.430 OA
ATOM     22  C   UNL     1      -3.157  -3.751  -1.122  0.00  0.00    +0.344 C 
ATOM     23  O   UNL     1      -2.093  -3.492  -1.650  0.00  0.00    -0.245 OA
ENDBRANCH  16  17
ENDBRANCH  12  16
BRANCH   6  24
ATOM     24  C   UNL     1       2.314   1.496   1.033  0.00  0.00    +0.165 C 
BRANCH  24  25
ATOM     25  O   UNL     1       3.646   1.950   0.785  0.00  0.00    -0.394 OA
ATOM     26  H   UNL     1       3.738   2.913   0.777  0.00  0.00    +0.209 HD
ENDBRANCH  24  25
ENDBRANCH   6  24
TORSDOF 5
