REMARK  Name = ZINC13063827
REMARK  12 active torsions:
REMARK  status: ('A' for Active; 'I' for Inactive)
REMARK    1  A    between atoms: C_1  and  C_2
REMARK    2  A    between atoms: C_2  and  C_3
REMARK    3  A    between atoms: C_3  and  C_5
REMARK    4  A    between atoms: C_3  and  N_73
REMARK    5  A    between atoms: N_9  and  C_10
REMARK    6  A    between atoms: C_16  and  C_17
REMARK    7  A    between atoms: C_16  and  N_73
REMARK    8  A    between atoms: C_20  and  O_23
REMARK    9  A    between atoms: O_23  and  C_24
REMARK   10  A    between atoms: C_25  and  C_26
REMARK   11  A    between atoms: C_25  and  N_73
REMARK   12  A    between atoms: C_31  and  C_38
REMARK                            x       y       z     vdW  Elec       q    Type
REMARK                         _______ _______ _______ _____ _____    ______ ____
ROOT
ATOM      1  N   UNL     1      -0.067   1.380  -0.013  0.00  0.00    +0.392 N 
ATOM      2  H   UNL     1      -0.573   1.774   0.789  0.00  0.00    -0.080 HD
ENDROOT
BRANCH   1   3
ATOM      3  C   UNL     1       0.087  -0.076   0.183  0.00  0.00    +0.003 C 
BRANCH   3   4
ATOM      4  C   UNL     1      -1.068  -0.573   1.014  0.00  0.00    +0.138 A 
ATOM      5  N   UNL     1      -2.323  -0.212   0.903  0.00  0.00    -0.115 NA
ATOM      6  N   UNL     1      -3.002  -0.857   1.789  0.00  0.00    -0.023 NA
ATOM      7  N   UNL     1      -2.212  -1.619   2.461  0.00  0.00    -0.044 NA
ATOM      8  N   UNL     1      -1.012  -1.476   2.010  0.00  0.00    -0.228 N 
BRANCH   8   9
ATOM      9  C   UNL     1       0.187  -2.165   2.494  0.00  0.00    +0.111 C 
ATOM     10  C   UNL     1       0.010  -3.676   2.327  0.00  0.00    +0.027 C 
ATOM     11  C   UNL     1       1.262  -4.395   2.832  0.00  0.00    +0.002 C 
ATOM     12  C   UNL     1       1.477  -4.067   4.311  0.00  0.00    +0.000 C 
ATOM     13  C   UNL     1       1.655  -2.556   4.478  0.00  0.00    +0.002 C 
ATOM     14  C   UNL     1       0.403  -1.837   3.973  0.00  0.00    +0.027 C 
ENDBRANCH   8   9
ENDBRANCH   3   4
BRANCH   3  16
ATOM     15  C   UNL     1       1.298  -0.336  -1.986  0.00  0.00    +0.002 C 
ATOM     16  C   UNL     1       0.093  -0.799  -1.165  0.00  0.00    -0.011 C 
ENDBRANCH   3  16
ENDBRANCH   1   3
BRANCH   1  17
ATOM     17  C   UNL     1      -0.840   1.645  -1.245  0.00  0.00    -0.042 C 
BRANCH  17  18
ATOM     18  C   UNL     1      -2.296   1.372  -0.969  0.00  0.00    -0.064 A 
ATOM     19  C   UNL     1      -2.912   0.271  -1.536  0.00  0.00    +0.005 A 
ATOM     20  C   UNL     1      -4.245   0.016  -1.280  0.00  0.00    +0.046 A 
ATOM     21  C   UNL     1      -4.969   0.871  -0.463  0.00  0.00    +0.120 A 
ATOM     22  C   UNL     1      -4.351   1.978   0.101  0.00  0.00    +0.046 A 
ATOM     23  C   UNL     1      -3.016   2.226  -0.154  0.00  0.00    +0.005 A 
BRANCH  21  24
ATOM     24  O   UNL     1      -6.282   0.624  -0.213  0.00  0.00    -0.495 OA
ATOM     25  C   UNL     1      -6.853  -0.533  -0.827  0.00  0.00    +0.277 C 
ENDBRANCH  21  24
ENDBRANCH  17  18
ENDBRANCH   1  17
BRANCH   1  26
ATOM     26  C   UNL     1       1.262   2.021  -0.104  0.00  0.00    -0.036 C 
BRANCH  26  27
ATOM     27  C   UNL     1       1.829   2.155   1.286  0.00  0.00    +0.001 A 
ATOM     28  C   UNL     1       2.696   1.223   1.755  0.00  0.00    +0.017 A 
ATOM     29  C   UNL     1       3.228   1.383   3.109  0.00  0.00    -0.001 A 
ATOM     30  C   UNL     1       4.126   0.455   3.648  0.00  0.00    +0.010 A 
ATOM     31  C   UNL     1       4.605   0.632   4.915  0.00  0.00    +0.004 A 
ATOM     32  C   UNL     1       4.209   1.726   5.673  0.00  0.00    -0.048 A 
ATOM     33  C   UNL     1       3.326   2.653   5.163  0.00  0.00    +0.029 A 
ATOM     34  C   UNL     1       2.825   2.493   3.875  0.00  0.00    +0.049 A 
ATOM     35  N   UNL     1       1.940   3.405   3.340  0.00  0.00    -0.322 N 
ATOM     36  H   UNL     1       1.663   4.169   3.869  0.00  0.00    +0.169 HD
ATOM     37  C   UNL     1       1.461   3.253   2.093  0.00  0.00    +0.251 A 
ATOM     38  O   UNL     1       0.684   4.082   1.650  0.00  0.00    -0.268 OA
ATOM     39  C   UNL     1       4.751   1.901   7.068  0.00  0.00    +0.044 C 
ENDBRANCH  26  27
ENDBRANCH   1  26
TORSDOF 9
