REMARK  Name = ZINC06914535
REMARK  8 active torsions:
REMARK  status: ('A' for Active; 'I' for Inactive)
REMARK    1  A    between atoms: C_1  and  C_2
REMARK    2  A    between atoms: C_5  and  C_23
REMARK    3  A    between atoms: C_6  and  C_8
REMARK    4  A    between atoms: C_8  and  O_9
REMARK    5  A    between atoms: O_9  and  C_10
REMARK    6  A    between atoms: C_10  and  C_12
REMARK    7  A    between atoms: C_14  and  S_19
REMARK    8  A    between atoms: S_19  and  N_22
REMARK                            x       y       z     vdW  Elec       q    Type
REMARK                         _______ _______ _______ _____ _____    ______ ____
ROOT
ATOM      1  C   UNL     1       3.010   7.657   0.013  0.00  0.00    +0.075 A 
ATOM      2  C   UNL     1       1.714   8.176   0.022  0.00  0.00    +0.044 A 
ATOM      3  C   UNL     1       1.522   9.542   0.036  0.00  0.00    +0.106 A 
ATOM      4  C   UNL     1       2.610  10.398   0.030  0.00  0.00    +0.029 A 
ATOM      5  C   UNL     1       3.897   9.891   0.016  0.00  0.00    +0.018 A 
ATOM      6  C   UNL     1       4.104   8.526   0.007  0.00  0.00    +0.032 A 
ATOM      7 BR   UNL     1       5.864   7.834  -0.012  0.00  0.00    -0.049 Br
ENDROOT
BRANCH   3   8
ATOM      8  S   UNL     1      -0.113  10.199   0.054  0.00  0.00    +0.056 S 
ATOM      9  O   UNL     1      -0.949   9.192   0.607  0.00  0.00    -0.153 OA
ATOM     10  O   UNL     1      -0.020  11.503   0.611  0.00  0.00    -0.153 OA
BRANCH   8  11
ATOM     11  N   UNL     1      -0.581  10.390  -1.523  0.00  0.00    -0.204 NA
ATOM     12  H   UNL     1       0.024  10.148  -2.241  0.00  0.00    +0.144 HD
ATOM     13  H   UNL     1      -1.461  10.744  -1.728  0.00  0.00    +0.144 HD
ENDBRANCH   8  11
ENDBRANCH   3   8
BRANCH   1  14
ATOM     14  C   UNL     1       3.224   6.195   0.004  0.00  0.00    +0.341 C 
ATOM     15  O   UNL     1       4.352   5.746  -0.009  0.00  0.00    -0.245 OA
BRANCH  14  16
ATOM     16  O   UNL     1       2.167   5.360   0.009  0.00  0.00    -0.456 OA
BRANCH  16  17
ATOM     17  C   UNL     1       2.451   3.937  -0.001  0.00  0.00    +0.268 C 
BRANCH  17  23
ATOM     18  C   UNL     1      -2.553   3.869   0.046  0.00  0.00    +0.044 C 
ATOM     19  C   UNL     1      -1.238   3.133   0.030  0.00  0.00    -0.050 A 
ATOM     20  C   UNL     1      -1.219   1.750   0.017  0.00  0.00    +0.003 A 
ATOM     21  C   UNL     1      -0.013   1.076   0.008  0.00  0.00    +0.004 A 
ATOM     22  C   UNL     1       1.175   1.783   0.000  0.00  0.00    -0.044 A 
ATOM     23  C   UNL     1       1.157   3.165   0.008  0.00  0.00    -0.007 A 
ATOM     24  C   UNL     1      -0.050   3.840   0.023  0.00  0.00    +0.010 A 
ATOM     25  C   UNL     1       2.490   1.048  -0.016  0.00  0.00    +0.044 C 
ENDBRANCH  17  23
ENDBRANCH  16  17
ENDBRANCH  14  16
ENDBRANCH   1  14
TORSDOF 6
