REMARK  Name = ZINC02058096
REMARK  7 active torsions:
REMARK  status: ('A' for Active; 'I' for Inactive)
REMARK    1  A    between atoms: C_1  and  C_2
REMARK    2  A    between atoms: C_2  and  O_3
REMARK    3  A    between atoms: O_3  and  C_4
REMARK    4  A    between atoms: C_7  and  N_10
REMARK    5  A    between atoms: C_16  and  C_25
REMARK    6  A    between atoms: C_16  and  C_26
REMARK    7  A    between atoms: C_21  and  C_24
REMARK                            x       y       z     vdW  Elec       q    Type
REMARK                         _______ _______ _______ _____ _____    ______ ____
ROOT
ATOM      1  N   UNL     1       1.222   5.007   2.423  0.00  0.00    -0.273 N 
ATOM      2  C   UNL     1       0.023   4.726   1.868  0.00  0.00    +0.106 A 
ATOM      3  S   UNL     1      -1.328   5.744   2.131  0.00  0.00    -0.031 S 
ATOM      4  C   UNL     1      -0.083   3.586   1.076  0.00  0.00    +0.029 A 
ATOM      5  C   UNL     1       1.092   2.871   0.932  0.00  0.00    +0.040 A 
ATOM      6  S   UNL     1       2.232   3.741   1.870  0.00  0.00    -0.008 S 
ATOM      7  C   UNL     1       1.235   1.628   0.115  0.00  0.00    +0.060 C 
ATOM      8  N   UNL     1      -0.087   0.990   0.007  0.00  0.00    -0.334 N 
ATOM      9  C   UNL     1      -1.244   1.761  -0.137  0.00  0.00    +0.036 A 
ATOM     10  C   UNL     1      -1.306   3.059   0.400  0.00  0.00    +0.007 A 
ATOM     11  C   UNL     1      -2.469   3.804   0.311  0.00  0.00    +0.013 A 
ATOM     12  C   UNL     1      -3.568   3.277  -0.342  0.00  0.00    -0.050 A 
ATOM     13  C   UNL     1      -3.503   2.010  -0.896  0.00  0.00    +0.005 A 
ATOM     14  C   UNL     1      -2.352   1.252  -0.792  0.00  0.00    +0.024 A 
ATOM     15  C   UNL     1      -4.837   4.082  -0.451  0.00  0.00    +0.044 C 
ATOM     16  C   UNL     1       2.215   0.672   0.799  0.00  0.00    +0.037 C 
ATOM     17  C   UNL     1       1.752   1.984  -1.280  0.00  0.00    +0.037 C 
ATOM     18  H   UNL     1      -0.156   0.023   0.031  0.00  0.00    +0.147 HD
ENDROOT
BRANCH   1  22
ATOM     19  C   UNL     1       2.227   8.204   4.901  0.00  0.00    +0.121 A 
ATOM     20  C   UNL     1       1.087   7.457   5.161  0.00  0.00    +0.047 A 
ATOM     21  C   UNL     1       0.754   6.398   4.340  0.00  0.00    +0.030 A 
ATOM     22  C   UNL     1       1.559   6.080   3.254  0.00  0.00    +0.055 A 
ATOM     23  C   UNL     1       2.703   6.825   2.998  0.00  0.00    +0.030 A 
ATOM     24  C   UNL     1       3.033   7.887   3.817  0.00  0.00    +0.047 A 
BRANCH  19  25
ATOM     25  O   UNL     1       2.556   9.246   5.710  0.00  0.00    -0.492 OA
BRANCH  25  27
ATOM     26  C   UNL     1       3.947  11.099   6.398  0.00  0.00    +0.048 C 
ATOM     27  C   UNL     1       3.743   9.972   5.383  0.00  0.00    +0.225 C 
ENDBRANCH  25  27
ENDBRANCH  19  25
ENDBRANCH   1  22
TORSDOF 3
