REMARK  Name = ZINC19576355
REMARK  4 active torsions:
REMARK  status: ('A' for Active; 'I' for Inactive)
REMARK    1  A    between atoms: C_1  and  C_2
REMARK    2  A    between atoms: N_4  and  C_20
REMARK    3  A    between atoms: C_20  and  C_21
REMARK    4  A    between atoms: C_21  and  C_22
REMARK                            x       y       z     vdW  Elec       q    Type
REMARK                         _______ _______ _______ _____ _____    ______ ____
ROOT
ATOM      1  C   UNL     1      -0.657  -0.539   1.275  0.00  0.00    +0.030 C 
ATOM      2  C   UNL     1       0.002  -0.004   0.002  0.00  0.00    +0.027 C 
ATOM      3  C   UNL     1       1.497  -0.392  -0.017  0.00  0.00    -0.052 C 
ATOM      4  N   UNL     1       2.193   0.787   0.563  0.00  0.00    +0.382 N 
ATOM      5  C   UNL     1       1.466   1.954  -0.001  0.00  0.00    -0.064 C 
ATOM      6  C   UNL     1      -0.019   1.527   0.010  0.00  0.00    +0.080 C 
ATOM      7  C   UNL     1      -0.711   2.090  -1.190  0.00  0.00    +0.220 C 
ATOM      8  O   UNL     1      -1.860   2.463  -1.087  0.00  0.00    -0.275 OA
ATOM      9  N   UNL     1      -0.109   2.195  -2.380  0.00  0.00    -0.285 N 
ATOM     10  C   UNL     1       1.124   1.583  -2.587  0.00  0.00    +0.046 A 
ATOM     11  C   UNL     1       2.278   2.320  -2.789  0.00  0.00    +0.024 A 
ATOM     12  C   UNL     1       3.479   1.669  -2.999  0.00  0.00    +0.002 A 
ATOM     13  C   UNL     1       3.538   0.285  -3.008  0.00  0.00    +0.001 A 
ATOM     14  C   UNL     1       2.398  -0.465  -2.807  0.00  0.00    +0.015 A 
ATOM     15  C   UNL     1       1.180   0.178  -2.593  0.00  0.00    +0.058 A 
ATOM     16  C   UNL     1      -0.064  -0.581  -2.372  0.00  0.00    +0.246 C 
ATOM     17  O   UNL     1      -0.548  -1.230  -3.279  0.00  0.00    -0.270 OA
ATOM     18  N   UNL     1      -0.664  -0.555  -1.169  0.00  0.00    -0.307 N 
ATOM     19  H   UNL     1      -0.588   2.764  -3.191  0.00  0.00    +0.155 HD
ATOM     20  H   UNL     1      -1.682  -0.964  -1.082  0.00  0.00    +0.149 HD
ATOM     21  H   UNL     1       2.197   0.780   1.663  0.00  0.00    -0.082 HD
ENDROOT
BRANCH   4  22
ATOM     22  C   UNL     1       3.608   0.809   0.171  0.00  0.00    -0.074 C 
BRANCH  22  23
ATOM     23  C   UNL     1       4.344   1.881   0.977  0.00  0.00    +0.016 C 
BRANCH  23  24
ATOM     24  C   UNL     1       5.797   1.903   0.574  0.00  0.00    -0.049 A 
ATOM     25  C   UNL     1       6.711   1.109   1.242  0.00  0.00    +0.003 A 
ATOM     26  C   UNL     1       8.042   1.126   0.870  0.00  0.00    +0.000 A 
ATOM     27  C   UNL     1       8.461   1.944  -0.163  0.00  0.00    +0.000 A 
ATOM     28  C   UNL     1       7.547   2.741  -0.827  0.00  0.00    +0.000 A 
ATOM     29  C   UNL     1       6.215   2.721  -0.459  0.00  0.00    +0.003 A 
ENDBRANCH  23  24
ENDBRANCH  22  23
ENDBRANCH   4  22
TORSDOF 3
