REMARK  Name = ZINC13108516
REMARK  12 active torsions:
REMARK  status: ('A' for Active; 'I' for Inactive)
REMARK    1  A    between atoms: C_1  and  C_2
REMARK    2  A    between atoms: C_2  and  N_3
REMARK    3  A    between atoms: N_3  and  C_4
REMARK    4  A    between atoms: N_3  and  C_18
REMARK    5  A    between atoms: C_4  and  C_5
REMARK    6  A    between atoms: C_18  and  C_19
REMARK    7  A    between atoms: C_19  and  C_21
REMARK    8  A    between atoms: C_19  and  O_36
REMARK    9  A    between atoms: C_21  and  O_22
REMARK   10  A    between atoms: O_22  and  C_23
REMARK   11  A    between atoms: C_23  and  C_24
REMARK   12  A    between atoms: C_23  and  C_30
REMARK                            x       y       z     vdW  Elec       q    Type
REMARK                         _______ _______ _______ _____ _____    ______ ____
ROOT
ATOM      1  C   UNL     1       2.166   0.016  -1.033  0.00  0.00    -0.044 C 
ENDROOT
BRANCH   1   2
ATOM      2  N   UNL     1       0.779  -0.364  -1.330  0.00  0.00    +0.386 N 
ATOM      3  H   UNL     1       0.448   0.163  -2.123  0.00  0.00    -0.081 HD
BRANCH   2   5
ATOM      4  C   UNL     1       0.498  -0.792   1.065  0.00  0.00    -0.017 C 
ATOM      5  C   UNL     1      -0.068  -0.078  -0.164  0.00  0.00    -0.082 C 
ENDBRANCH   2   5
BRANCH   2   6
ATOM      6  C   UNL     1       0.720  -1.800  -1.637  0.00  0.00    -0.003 C 
BRANCH   6   7
ATOM      7  C   UNL     1      -0.679  -2.166  -2.060  0.00  0.00    +0.094 A 
ATOM      8  N   UNL     1      -0.937  -3.461  -2.382  0.00  0.00    -0.312 N 
ATOM      9  H   UNL     1      -0.226  -4.118  -2.334  0.00  0.00    +0.170 HD
ATOM     10  C   UNL     1      -2.177  -3.841  -2.769  0.00  0.00    +0.259 A 
ATOM     11  O   UNL     1      -2.422  -4.997  -3.059  0.00  0.00    -0.267 OA
ATOM     12  C   UNL     1      -3.217  -2.803  -2.823  0.00  0.00    +0.065 A 
ATOM     13  C   UNL     1      -4.525  -3.091  -3.208  0.00  0.00    +0.017 A 
ATOM     14  C   UNL     1      -5.460  -2.080  -3.242  0.00  0.00    +0.021 A 
ATOM     15  C   UNL     1      -5.109  -0.780  -2.896  0.00  0.00    +0.043 A 
ATOM     16  C   UNL     1      -3.821  -0.476  -2.512  0.00  0.00    +0.048 A 
ATOM     17  C   UNL     1      -2.856  -1.484  -2.470  0.00  0.00    +0.079 A 
ATOM     18  N   UNL     1      -1.578  -1.230  -2.094  0.00  0.00    -0.236 NA
ATOM     19 CL   UNL     1      -6.308   0.474  -2.948  0.00  0.00    -0.083 Cl
ENDBRANCH   6   7
ENDBRANCH   2   6
ENDBRANCH   1   2
BRANCH   1  20
ATOM     20  C   UNL     1       2.248   1.531  -0.833  0.00  0.00    +0.124 C 
BRANCH  20  21
ATOM     21  O   UNL     1       1.804   2.193  -2.019  0.00  0.00    -0.391 OA
ATOM     22  H   UNL     1       2.325   1.980  -2.806  0.00  0.00    +0.210 HD
ENDBRANCH  20  21
BRANCH  20  23
ATOM     23  C   UNL     1       3.695   1.929  -0.538  0.00  0.00    +0.190 C 
BRANCH  23  24
ATOM     24  O   UNL     1       3.753   3.325  -0.236  0.00  0.00    -0.365 OA
BRANCH  24  25
ATOM     25  C   UNL     1       5.067   3.802   0.056  0.00  0.00    +0.178 C 
BRANCH  25  26
ATOM     26  C   UNL     1       5.731   4.259  -1.217  0.00  0.00    -0.015 A 
ATOM     27  C   UNL     1       5.004   4.955  -2.164  0.00  0.00    +0.006 A 
ATOM     28  C   UNL     1       5.612   5.374  -3.333  0.00  0.00    +0.000 A 
ATOM     29  C   UNL     1       6.949   5.098  -3.554  0.00  0.00    +0.000 A 
ATOM     30  C   UNL     1       7.676   4.402  -2.606  0.00  0.00    +0.000 A 
ATOM     31  C   UNL     1       7.069   3.987  -1.436  0.00  0.00    +0.006 A 
ENDBRANCH  25  26
BRANCH  25  32
ATOM     32  C   UNL     1       4.979   4.958   1.019  0.00  0.00    -0.015 A 
ATOM     33  C   UNL     1       3.918   5.840   0.945  0.00  0.00    +0.006 A 
ATOM     34  C   UNL     1       3.837   6.901   1.829  0.00  0.00    +0.000 A 
ATOM     35  C   UNL     1       4.818   7.078   2.786  0.00  0.00    +0.000 A 
ATOM     36  C   UNL     1       5.879   6.196   2.861  0.00  0.00    +0.000 A 
ATOM     37  C   UNL     1       5.957   5.133   1.981  0.00  0.00    +0.006 A 
ENDBRANCH  25  32
ENDBRANCH  24  25
ENDBRANCH  23  24
ENDBRANCH  20  23
ENDBRANCH   1  20
TORSDOF 11
