REMARK  Name = ZINC05652559
REMARK  6 active torsions:
REMARK  status: ('A' for Active; 'I' for Inactive)
REMARK    1  A    between atoms: C_1  and  C_2
REMARK    2  A    between atoms: C_5  and  S_8
REMARK    3  A    between atoms: S_8  and  N_11
REMARK    4  A    between atoms: N_11  and  C_12
REMARK    5  A    between atoms: C_14  and  C_29
REMARK    6  A    between atoms: C_17  and  C_18
REMARK                            x       y       z     vdW  Elec       q    Type
REMARK                         _______ _______ _______ _____ _____    ______ ____
ROOT
ATOM      1  C   UNL     1      -2.486   5.410   0.219  0.00  0.00    +0.061 A 
ATOM      2  C   UNL     1      -3.761   5.957   0.284  0.00  0.00    +0.028 A 
ATOM      3  C   UNL     1      -4.859   5.136   0.445  0.00  0.00    -0.049 A 
ATOM      4  C   UNL     1      -4.700   3.763   0.537  0.00  0.00    +0.004 A 
ATOM      5  C   UNL     1      -3.444   3.201   0.469  0.00  0.00    +0.015 A 
ATOM      6  C   UNL     1      -2.322   4.019   0.306  0.00  0.00    +0.059 A 
ATOM      7  C   UNL     1      -6.239   5.737   0.521  0.00  0.00    +0.044 C 
ENDROOT
BRANCH   6   8
ATOM      8  C   UNL     1      -0.976   3.425   0.232  0.00  0.00    +0.234 A 
ATOM      9  N   UNL     1      -0.866   2.125   0.328  0.00  0.00    -0.212 NA
ATOM     10  C   UNL     1       0.340   1.511   0.264  0.00  0.00    +0.082 A 
ATOM     11  C   UNL     1       0.464   0.123   0.360  0.00  0.00    +0.029 A 
ATOM     12  C   UNL     1       1.712  -0.455   0.295  0.00  0.00    +0.002 A 
ATOM     13  C   UNL     1       2.850   0.325   0.133  0.00  0.00    +0.001 A 
ATOM     14  C   UNL     1       2.753   1.696   0.035  0.00  0.00    +0.017 A 
ATOM     15  C   UNL     1       1.501   2.301   0.099  0.00  0.00    +0.085 A 
ATOM     16  C   UNL     1       1.333   3.759   0.001  0.00  0.00    +0.348 A 
ATOM     17  O   UNL     1       2.290   4.496  -0.141  0.00  0.00    -0.244 OA
ATOM     18  O   UNL     1       0.075   4.248   0.075  0.00  0.00    -0.403 OA
ENDBRANCH   6   8
BRANCH   1  19
ATOM     19  N   UNL     1      -1.379   6.236   0.063  0.00  0.00    -0.216 N 
ATOM     20  H   UNL     1      -0.625   5.940  -0.472  0.00  0.00    +0.174 HD
BRANCH  19  21
ATOM     21  S   UNL     1      -1.346   7.724   0.789  0.00  0.00    +0.072 S 
ATOM     22  O   UNL     1      -0.056   8.267   0.543  0.00  0.00    -0.150 OA
ATOM     23  O   UNL     1      -2.540   8.390   0.404  0.00  0.00    -0.150 OA
BRANCH  21  28
ATOM     24  C   UNL     1      -1.725   6.812   6.741  0.00  0.00    +0.044 C 
ATOM     25  C   UNL     1      -1.631   7.040   5.255  0.00  0.00    -0.050 A 
ATOM     26  C   UNL     1      -0.393   7.084   4.640  0.00  0.00    +0.005 A 
ATOM     27  C   UNL     1      -0.306   7.293   3.276  0.00  0.00    +0.029 A 
ATOM     28  C   UNL     1      -1.457   7.457   2.527  0.00  0.00    +0.109 A 
ATOM     29  C   UNL     1      -2.694   7.417   3.143  0.00  0.00    +0.029 A 
ATOM     30  C   UNL     1      -2.781   7.204   4.506  0.00  0.00    +0.005 A 
ENDBRANCH  21  28
ENDBRANCH  19  21
ENDBRANCH   1  19
TORSDOF 4
