REMARK  Name = ZINC44019359
REMARK  2 active torsions:
REMARK  status: ('A' for Active; 'I' for Inactive)
REMARK    1  A    between atoms: C_6  and  N_7
REMARK    2  A    between atoms: C_11  and  N_16
REMARK                            x       y       z     vdW  Elec       q    Type
REMARK                         _______ _______ _______ _____ _____    ______ ____
ROOT
ATOM      1  N   UNL     1      -1.201  -0.723   0.011  0.00  0.00    -0.229 N 
ATOM      2  C   UNL     1      -2.373  -0.062   0.099  0.00  0.00    +0.263 A 
ATOM      3  O   UNL     1      -2.387   1.155   0.171  0.00  0.00    -0.267 OA
ATOM      4  C   UNL     1      -3.576  -0.784   0.105  0.00  0.00    +0.112 A 
ATOM      5  C   UNL     1      -3.533  -2.148   0.022  0.00  0.00    +0.108 A 
ATOM      6  N   UNL     1      -2.317  -2.780  -0.066  0.00  0.00    -0.295 N 
ATOM      7  H   UNL     1      -2.280  -3.748  -0.125  0.00  0.00    +0.172 HD
ATOM      8  C   UNL     1      -1.177  -2.065  -0.075  0.00  0.00    +0.335 A 
ATOM      9  O   UNL     1      -0.110  -2.641  -0.158  0.00  0.00    -0.246 OA
ENDROOT
BRANCH   1  15
ATOM     10  C   UNL     1       0.553   0.417  -1.199  0.00  0.00    +0.027 A 
ATOM     11  C   UNL     1       1.739   1.125  -1.204  0.00  0.00    +0.017 A 
ATOM     12  C   UNL     1       2.378   1.415  -0.011  0.00  0.00    +0.018 A 
ATOM     13  C   UNL     1       1.831   0.996   1.189  0.00  0.00    +0.017 A 
ATOM     14  C   UNL     1       0.645   0.287   1.199  0.00  0.00    +0.027 A 
ATOM     15  C   UNL     1       0.002  -0.004   0.003  0.00  0.00    +0.054 A 
ATOM     16 BR   UNL     1       4.002   2.384  -0.021  0.00  0.00    -0.050 Br
ENDBRANCH   1  15
BRANCH   5  17
ATOM     17  N   UNL     1      -4.694  -2.879   0.027  0.00  0.00    -0.316 N 
ATOM     18  C   UNL     1      -4.693  -4.177   0.663  0.00  0.00    +0.106 C 
ATOM     19  C   UNL     1      -4.291  -5.260  -0.368  0.00  0.00    +0.019 C 
ATOM     20  C   UNL     1      -5.373  -5.465  -1.343  0.00  0.00    +0.002 C 
ATOM     21  C   UNL     1      -5.696  -4.238  -2.190  0.00  0.00    +0.002 C 
ATOM     22  C   UNL     1      -6.663  -3.353  -1.443  0.00  0.00    +0.019 C 
ATOM     23  C   UNL     1      -5.894  -2.304  -0.612  0.00  0.00    +0.106 C 
ENDBRANCH   5  17
TORSDOF 2
