REMARK  Name = ZINC60190783
REMARK  5 active torsions:
REMARK  status: ('A' for Active; 'I' for Inactive)
REMARK    1  A    between atoms: C_3  and  N_11
REMARK    2  A    between atoms: C_6  and  N_7
REMARK    3  A    between atoms: C_12  and  C_14
REMARK    4  A    between atoms: C_14  and  O_15
REMARK    5  A    between atoms: O_15  and  C_16
REMARK                            x       y       z     vdW  Elec       q    Type
REMARK                         _______ _______ _______ _____ _____    ______ ____
ROOT
ATOM      1  N   UNL     1       3.584   2.128  -0.021  0.00  0.00    -0.280 N 
ATOM      2  C   UNL     1       3.567   3.472  -0.116  0.00  0.00    +0.255 C 
ATOM      3  O   UNL     1       2.511   4.068  -0.103  0.00  0.00    -0.272 OA
ATOM      4  H   UNL     1       4.429   1.657   0.049  0.00  0.00    +0.155 HD
ENDROOT
BRANCH   1   7
ATOM      5  C   UNL     1       0.065   1.242  -0.620  0.00  0.00    +0.035 A 
ATOM      6  C   UNL     1       1.250   1.953  -0.618  0.00  0.00    +0.028 A 
ATOM      7  C   UNL     1       2.381   1.411  -0.024  0.00  0.00    +0.069 A 
ATOM      8  C   UNL     1       2.318   0.154   0.567  0.00  0.00    +0.147 A 
ATOM      9  C   UNL     1       1.128  -0.551   0.561  0.00  0.00    +0.073 A 
ATOM     10  C   UNL     1       0.004  -0.007  -0.032  0.00  0.00    +0.129 A 
ATOM     11  F   UNL     1       3.417  -0.378   1.146  0.00  0.00    -0.203 F 
BRANCH  10  12
ATOM     12  N   UNL     1      -1.268  -0.764  -0.036  0.00  0.00    +0.057 N 
ATOM     13  O   UNL     1      -2.252  -0.289  -0.553  0.00  0.00    -0.126 OA
ATOM     14  O   UNL     1      -1.323  -1.857   0.478  0.00  0.00    -0.126 OA
ENDBRANCH  10  12
ENDBRANCH   1   7
BRANCH   2  15
ATOM     15  C   UNL     1       4.861   4.235  -0.238  0.00  0.00    +0.325 C 
BRANCH  15  16
ATOM     16  O   UNL     1       4.583   5.634  -0.323  0.00  0.00    -0.481 OA
BRANCH  16  17
ATOM     17  C   UNL     1       5.649   6.470  -0.439  0.00  0.00    +0.141 A 
ATOM     18  C   UNL     1       6.936   5.952  -0.475  0.00  0.00    +0.068 A 
ATOM     19  C   UNL     1       8.019   6.804  -0.593  0.00  0.00    +0.063 A 
ATOM     20  C   UNL     1       7.820   8.172  -0.674  0.00  0.00    +0.061 A 
ATOM     21  C   UNL     1       6.538   8.689  -0.638  0.00  0.00    +0.045 A 
ATOM     22  C   UNL     1       5.452   7.841  -0.526  0.00  0.00    +0.084 A 
ATOM     23 CL   UNL     1       3.842   8.490  -0.487  0.00  0.00    -0.080 Cl
ATOM     24 CL   UNL     1       9.182   9.239  -0.822  0.00  0.00    -0.082 Cl
ATOM     25 CL   UNL     1       9.629   6.157  -0.639  0.00  0.00    -0.082 Cl
ENDBRANCH  16  17
ENDBRANCH  15  16
ENDBRANCH   2  15
TORSDOF 5
