REMARK  Name = ZINC59713876
REMARK  7 active torsions:
REMARK  status: ('A' for Active; 'I' for Inactive)
REMARK    1  A    between atoms: C_1  and  C_2
REMARK    2  A    between atoms: C_2  and  O_3
REMARK    3  A    between atoms: O_3  and  C_4
REMARK    4  A    between atoms: N_13  and  C_14
REMARK    5  A    between atoms: C_14  and  N_16
REMARK    6  A    between atoms: C_17  and  C_19
REMARK    7  A    between atoms: C_20  and  C_21
REMARK                            x       y       z     vdW  Elec       q    Type
REMARK                         _______ _______ _______ _____ _____    ______ ____
ROOT
ATOM      1  C   UNL     1       0.820  -1.825   1.294  0.00  0.00    +0.122 A 
ATOM      2  C   UNL     1       0.280  -2.683   0.344  0.00  0.00    +0.048 A 
ATOM      3  C   UNL     1       0.379  -4.047   0.479  0.00  0.00    +0.030 A 
ATOM      4  C   UNL     1       1.030  -4.619   1.585  0.00  0.00    +0.055 A 
ATOM      5  C   UNL     1       1.564  -3.729   2.528  0.00  0.00    +0.042 A 
ATOM      6  C   UNL     1       1.473  -2.364   2.393  0.00  0.00    +0.062 A 
ATOM      7  S   UNL     1       2.287  -4.802   3.745  0.00  0.00    -0.052 S 
ATOM      8  C   UNL     1       1.866  -6.360   2.981  0.00  0.00    +0.163 A 
ATOM      9  N   UNL     1       1.206  -5.966   1.855  0.00  0.00    -0.335 N 
ATOM     10  N   UNL     1       2.130  -7.591   3.403  0.00  0.00    -0.169 NA
ATOM     11  H   UNL     1       0.859  -6.632   1.241  0.00  0.00    +0.168 HD
ENDROOT
BRANCH  10  12
ATOM     12  C   UNL     1       1.643  -8.644   2.738  0.00  0.00    +0.163 C 
ATOM     13  S   UNL     1       2.157  -8.955   1.134  0.00  0.00    -0.016 S 
BRANCH  12  14
ATOM     14  N   UNL     1       0.749  -9.461   3.329  0.00  0.00    -0.263 N 
ATOM     15  C   UNL     1       0.259 -10.522   2.659  0.00  0.00    +0.242 C 
ATOM     16  O   UNL     1       0.624 -10.743   1.519  0.00  0.00    -0.270 OA
ATOM     17  H   UNL     1       0.459  -9.285   4.238  0.00  0.00    +0.157 HD
BRANCH  15  18
ATOM     18  C   UNL     1      -0.711 -11.409   3.301  0.00  0.00    +0.068 C 
ATOM     19  C   UNL     1      -1.202 -12.471   2.630  0.00  0.00    +0.013 C 
BRANCH  19  20
ATOM     20  C   UNL     1      -2.178 -13.363   3.276  0.00  0.00    -0.025 A 
ATOM     21  C   UNL     1      -2.604 -13.109   4.584  0.00  0.00    +0.008 A 
ATOM     22  C   UNL     1      -3.519 -13.949   5.182  0.00  0.00    +0.001 A 
ATOM     23  C   UNL     1      -4.016 -15.042   4.492  0.00  0.00    +0.000 A 
ATOM     24  C   UNL     1      -3.599 -15.300   3.198  0.00  0.00    +0.001 A 
ATOM     25  C   UNL     1      -2.689 -14.465   2.583  0.00  0.00    +0.008 A 
ENDBRANCH  19  20
ENDBRANCH  15  18
ENDBRANCH  12  14
ENDBRANCH  10  12
BRANCH   1  26
ATOM     26  O   UNL     1       0.714  -0.478   1.145  0.00  0.00    -0.492 OA
BRANCH  26  28
ATOM     27  C   UNL     1       0.009   1.525  -0.009  0.00  0.00    +0.048 C 
ATOM     28  C   UNL     1       0.027  -0.005  -0.015  0.00  0.00    +0.225 C 
ENDBRANCH  26  28
ENDBRANCH   1  26
TORSDOF 6
