REMARK  Name = ZINC09913882
REMARK  8 active torsions:
REMARK  status: ('A' for Active; 'I' for Inactive)
REMARK    1  A    between atoms: C_4  and  N_17
REMARK    2  A    between atoms: C_5  and  C_7
REMARK    3  A    between atoms: N_9  and  C_10
REMARK    4  A    between atoms: C_10  and  C_11
REMARK    5  A    between atoms: N_17  and  C_18
REMARK    6  A    between atoms: C_18  and  C_19
REMARK    7  A    between atoms: N_21  and  C_22
REMARK    8  A    between atoms: C_23  and  C_30
REMARK                            x       y       z     vdW  Elec       q    Type
REMARK                         _______ _______ _______ _____ _____    ______ ____
ROOT
ATOM      1  N   UNL     1      -2.375   5.708  -4.401  0.00  0.00    -0.335 N 
ATOM      2  H   UNL     1      -2.432   4.740  -4.390  0.00  0.00    +0.147 HD
ENDROOT
BRANCH   1   6
ATOM      3  C   UNL     1      -0.877   7.745  -1.089  0.00  0.00    +0.001 A 
ATOM      4  C   UNL     1      -1.399   8.447  -2.165  0.00  0.00    +0.002 A 
ATOM      5  C   UNL     1      -1.899   7.776  -3.261  0.00  0.00    +0.024 A 
ATOM      6  C   UNL     1      -1.878   6.387  -3.296  0.00  0.00    +0.040 A 
ATOM      7  C   UNL     1      -1.355   5.673  -2.206  0.00  0.00    +0.057 A 
ATOM      8  C   UNL     1      -0.852   6.368  -1.103  0.00  0.00    +0.015 A 
BRANCH   7   9
ATOM      9  C   UNL     1      -1.331   4.199  -2.228  0.00  0.00    +0.246 C 
ATOM     10  O   UNL     1      -1.865   3.595  -3.138  0.00  0.00    -0.270 OA
ATOM     11  N   UNL     1      -0.716   3.521  -1.238  0.00  0.00    -0.309 N 
ATOM     12  H   UNL     1      -0.290   4.002  -0.512  0.00  0.00    +0.149 HD
BRANCH  11  13
ATOM     13  C   UNL     1      -0.692   2.056  -1.260  0.00  0.00    +0.136 C 
BRANCH  13  14
ATOM     14  C   UNL     1       0.062   1.540  -0.033  0.00  0.00    +0.135 C 
ATOM     15  C   UNL     1       0.093  -0.000  -0.046  0.00  0.00    +0.035 C 
ATOM     16  C   UNL     1       1.601  -0.349  -0.040  0.00  0.00    +0.031 C 
ATOM     17  C   UNL     1       2.234   0.952   0.515  0.00  0.00    +0.160 C 
ATOM     18  O   UNL     1       1.425   1.996  -0.069  0.00  0.00    -0.375 OA
ENDBRANCH  13  14
ENDBRANCH  11  13
ENDBRANCH   7   9
ENDBRANCH   1   6
BRANCH   1  19
ATOM     19  C   UNL     1      -2.814   6.455  -5.582  0.00  0.00    +0.198 C 
BRANCH  19  20
ATOM     20  C   UNL     1      -3.307   5.491  -6.631  0.00  0.00    +0.235 C 
ATOM     21  O   UNL     1      -3.292   4.298  -6.413  0.00  0.00    -0.274 OA
ATOM     22  N   UNL     1      -3.763   5.955  -7.811  0.00  0.00    -0.278 N 
ATOM     23  H   UNL     1      -3.774   6.909  -7.986  0.00  0.00    +0.155 HD
BRANCH  22  24
ATOM     24  C   UNL     1      -4.216   5.067  -8.777  0.00  0.00    +0.090 A 
ATOM     25  C   UNL     1      -4.716   5.349 -10.036  0.00  0.00    +0.084 A 
ATOM     26  C   UNL     1      -5.129   4.221 -10.869  0.00  0.00    -0.018 A 
ATOM     27  C   UNL     1      -4.975   3.008 -10.306  0.00  0.00    -0.004 A 
ATOM     28  S   UNL     1      -4.287   3.340  -8.702  0.00  0.00    -0.077 S 
ATOM     29  C   UNL     1      -5.423   1.900 -11.220  0.00  0.00    +0.043 C 
ATOM     30  C   UNL     1      -6.290   2.603 -12.288  0.00  0.00    +0.010 C 
ATOM     31  C   UNL     1      -5.712   4.033 -12.271  0.00  0.00    +0.037 C 
BRANCH  25  32
ATOM     32  C   UNL     1      -4.826   6.697 -10.506  0.00  0.00    +0.102 C 
ATOM     33  N   UNL     1      -4.913   7.766 -10.879  0.00  0.00    -0.191 NA
ENDBRANCH  25  32
ENDBRANCH  22  24
ENDBRANCH  19  20
ENDBRANCH   1  19
TORSDOF 8
