REMARK  Name = ZINC21898381
REMARK  8 active torsions:
REMARK  status: ('A' for Active; 'I' for Inactive)
REMARK    1  A    between atoms: C_7  and  C_11
REMARK    2  A    between atoms: C_11  and  C_12
REMARK    3  A    between atoms: C_12  and  C_14
REMARK    4  A    between atoms: C_12  and  N_25
REMARK    5  A    between atoms: N_16  and  C_17
REMARK    6  A    between atoms: C_17  and  C_18
REMARK    7  A    between atoms: C_18  and  C_19
REMARK    8  A    between atoms: C_26  and  C_28
REMARK                            x       y       z     vdW  Elec       q    Type
REMARK                         _______ _______ _______ _____ _____    ______ ____
ROOT
ATOM      1  C   UNL     1      -2.482   0.853   0.018  0.00  0.00    +0.163 C 
ENDROOT
BRANCH   1   2
ATOM      2  C   UNL     1      -1.187   1.624   0.017  0.00  0.00    +0.234 C 
ATOM      3  O   UNL     1      -1.204   2.837   0.023  0.00  0.00    -0.274 OA
ATOM      4  N   UNL     1      -0.011   0.966   0.007  0.00  0.00    -0.313 N 
ATOM      5  H   UNL     1       0.004  -0.134   0.006  0.00  0.00    +0.149 HD
BRANCH   4   6
ATOM      6  C   UNL     1       1.248   1.716  -0.001  0.00  0.00    +0.108 C 
BRANCH   6   7
ATOM      7  C   UNL     1       2.424   0.737  -0.017  0.00  0.00    +0.049 C 
BRANCH   7   8
ATOM      8  C   UNL     1       3.719   1.508  -0.025  0.00  0.00    -0.072 C 
ATOM      9  C   UNL     1       4.302   1.727   1.109  0.00  0.00    -0.028 C 
ATOM     10  C   UNL     1       5.587   2.486   1.261  0.00  0.00    +0.027 C 
ATOM     11  C   UNL     1       6.305   2.582  -0.087  0.00  0.00    +0.004 C 
ATOM     12  C   UNL     1       5.300   3.069  -1.138  0.00  0.00    +0.005 C 
ATOM     13  C   UNL     1       4.254   1.970  -1.349  0.00  0.00    +0.030 C 
ENDBRANCH   7   8
ENDBRANCH   6   7
ENDBRANCH   4   6
ENDBRANCH   1   2
BRANCH   1  14
ATOM     14  N   UNL     1      -3.563   1.715   0.501  0.00  0.00    -0.299 N 
ATOM     15  C   UNL     1      -3.863   2.853  -0.158  0.00  0.00    +0.251 C 
ATOM     16  O   UNL     1      -3.235   3.163  -1.153  0.00  0.00    -0.270 OA
ATOM     17  H   UNL     1      -4.131   1.435   1.400  0.00  0.00    +0.150 HD
BRANCH  15  18
ATOM     18  C   UNL     1      -4.945   3.716   0.325  0.00  0.00    +0.074 A 
ATOM     19  C   UNL     1      -5.407   4.913  -0.199  0.00  0.00    +0.021 A 
ATOM     20  C   UNL     1      -6.447   5.522   0.457  0.00  0.00    +0.008 A 
ATOM     21  C   UNL     1      -6.965   4.936   1.568  0.00  0.00    +0.046 A 
ATOM     22  S   UNL     1      -6.015   3.495   1.735  0.00  0.00    -0.092 S 
ENDBRANCH  15  18
ENDBRANCH   1  14
BRANCH   1  23
ATOM     23  C   UNL     1      -2.799   0.384  -1.403  0.00  0.00    +0.069 C 
BRANCH  23  30
ATOM     24  C   UNL     1      -7.393   1.306  -1.531  0.00  0.00    +0.001 A 
ATOM     25  C   UNL     1      -8.176   0.160  -1.489  0.00  0.00    +0.002 A 
ATOM     26  C   UNL     1      -7.594  -1.087  -1.418  0.00  0.00    +0.026 A 
ATOM     27  C   UNL     1      -6.208  -1.201  -1.387  0.00  0.00    +0.047 A 
ATOM     28  C   UNL     1      -5.419  -0.037  -1.430  0.00  0.00    +0.003 A 
ATOM     29  C   UNL     1      -6.030   1.216  -1.502  0.00  0.00    +0.010 A 
ATOM     30  C   UNL     1      -4.027  -0.489  -1.382  0.00  0.00    -0.020 A 
ATOM     31  C   UNL     1      -4.051  -1.830  -1.323  0.00  0.00    +0.087 A 
ATOM     32  N   UNL     1      -5.346  -2.273  -1.319  0.00  0.00    -0.360 N 
ATOM     33  H   UNL     1      -5.745  -3.297  -1.273  0.00  0.00    +0.165 HD
ENDBRANCH  23  30
ENDBRANCH   1  23
TORSDOF 8
