REMARK  Name = ZINC01880483
REMARK  8 active torsions:
REMARK  status: ('A' for Active; 'I' for Inactive)
REMARK    1  A    between atoms: C_4  and  C_8
REMARK    2  A    between atoms: C_5  and  O_7
REMARK    3  A    between atoms: N_9  and  N_10
REMARK    4  A    between atoms: C_11  and  C_13
REMARK    5  A    between atoms: C_13  and  C_14
REMARK    6  A    between atoms: N_16  and  N_17
REMARK    7  A    between atoms: C_18  and  C_19
REMARK    8  A    between atoms: C_20  and  O_26
REMARK                            x       y       z     vdW  Elec       q    Type
REMARK                         _______ _______ _______ _____ _____    ______ ____
ROOT
ATOM      1  C   UNL     1       6.299  -4.724  -0.087  0.00  0.00    +0.194 C 
ENDROOT
BRANCH   1   3
ATOM      2  N   UNL     1       4.954  -2.648  -0.062  0.00  0.00    -0.207 N 
ATOM      3  C   UNL     1       4.980  -3.996  -0.069  0.00  0.00    +0.241 C 
ATOM      4  O   UNL     1       3.941  -4.623  -0.062  0.00  0.00    -0.274 OA
ATOM      5  H   UNL     1       5.784  -2.147  -0.068  0.00  0.00    +0.177 HD
BRANCH   2   7
ATOM      6  C   UNL     1       3.702  -0.674  -0.038  0.00  0.00    +0.142 C 
ATOM      7  N   UNL     1       3.727  -1.972  -0.046  0.00  0.00    -0.188 NA
BRANCH   6  11
ATOM      8  C   UNL     1      -0.017   1.378   0.010  0.00  0.00    +0.019 A 
ATOM      9  C   UNL     1       1.169   2.095   0.002  0.00  0.00    +0.019 A 
ATOM     10  C   UNL     1       2.380   1.434  -0.013  0.00  0.00    +0.028 A 
ATOM     11  C   UNL     1       2.412   0.038  -0.021  0.00  0.00    +0.037 A 
ATOM     12  C   UNL     1       1.210  -0.682  -0.013  0.00  0.00    +0.126 A 
ATOM     13  C   UNL     1       0.002  -0.004   0.002  0.00  0.00    +0.047 A 
ATOM     14 BR   UNL     1       1.127   3.985   0.013  0.00  0.00    -0.050 Br
BRANCH  12  15
ATOM     15  O   UNL     1       1.228  -2.041  -0.021  0.00  0.00    -0.506 OA
ATOM     16  H   UNL     1       1.243  -2.439   0.860  0.00  0.00    +0.292 HD
ENDBRANCH  12  15
ENDBRANCH   6  11
ENDBRANCH   2   7
ENDBRANCH   1   3
BRANCH   1  17
ATOM     17  C   UNL     1       6.053  -6.211  -0.092  0.00  0.00    +0.241 C 
ATOM     18  O   UNL     1       4.917  -6.637  -0.083  0.00  0.00    -0.274 OA
ATOM     19  N   UNL     1       7.094  -7.066  -0.108  0.00  0.00    -0.207 N 
ATOM     20  H   UNL     1       8.002  -6.725  -0.115  0.00  0.00    +0.177 HD
BRANCH  19  21
ATOM     21  N   UNL     1       6.865  -8.448  -0.113  0.00  0.00    -0.188 NA
ATOM     22  C   UNL     1       7.867  -9.273  -0.128  0.00  0.00    +0.142 C 
BRANCH  22  23
ATOM     23  C   UNL     1       7.626 -10.726  -0.133  0.00  0.00    +0.037 A 
ATOM     24  C   UNL     1       6.316 -11.223  -0.128  0.00  0.00    +0.126 A 
ATOM     25  C   UNL     1       6.099 -12.591  -0.133  0.00  0.00    +0.047 A 
ATOM     26  C   UNL     1       7.172 -13.463  -0.143  0.00  0.00    +0.019 A 
ATOM     27  C   UNL     1       8.469 -12.977  -0.148  0.00  0.00    +0.019 A 
ATOM     28  C   UNL     1       8.702 -11.617  -0.149  0.00  0.00    +0.028 A 
ATOM     29 BR   UNL     1       9.927 -14.182  -0.161  0.00  0.00    -0.050 Br
BRANCH  24  30
ATOM     30  O   UNL     1       5.262 -10.367  -0.117  0.00  0.00    -0.506 OA
ATOM     31  H   UNL     1       4.951 -10.114  -0.998  0.00  0.00    +0.292 HD
ENDBRANCH  24  30
ENDBRANCH  22  23
ENDBRANCH  19  21
ENDBRANCH   1  17
TORSDOF 8
