REMARK  Name = ZINC06708962
REMARK  8 active torsions:
REMARK  status: ('A' for Active; 'I' for Inactive)
REMARK    1  A    between atoms: C_1  and  C_2
REMARK    2  A    between atoms: C_2  and  C_3
REMARK    3  A    between atoms: C_6  and  C_9
REMARK    4  A    between atoms: N_11  and  C_12
REMARK    5  A    between atoms: C_12  and  N_14
REMARK    6  A    between atoms: N_14  and  C_15
REMARK    7  A    between atoms: C_16  and  C_26
REMARK    8  A    between atoms: C_21  and  C_25
REMARK                            x       y       z     vdW  Elec       q    Type
REMARK                         _______ _______ _______ _____ _____    ______ ____
ROOT
ATOM      1  C   UNL     1      -2.991   4.556   6.404  0.00  0.00    +0.141 C 
ATOM      2  S   UNL     1      -4.232   3.610   7.109  0.00  0.00    -0.018 S 
ENDROOT
BRANCH   1   5
ATOM      3  C   UNL     1      -2.706   2.942   4.742  0.00  0.00    +0.250 C 
ATOM      4  O   UNL     1      -3.587   2.270   5.243  0.00  0.00    -0.270 OA
ATOM      5  N   UNL     1      -2.360   4.121   5.296  0.00  0.00    -0.264 N 
ATOM      6  H   UNL     1      -1.657   4.656   4.896  0.00  0.00    +0.157 HD
BRANCH   3  10
ATOM      7  C   UNL     1      -0.718   1.572   1.248  0.00  0.00    -0.048 A 
ATOM      8  C   UNL     1      -0.357   2.780   1.817  0.00  0.00    +0.004 A 
ATOM      9  C   UNL     1      -1.002   3.233   2.949  0.00  0.00    +0.013 A 
ATOM     10  C   UNL     1      -2.014   2.465   3.527  0.00  0.00    +0.037 A 
ATOM     11  C   UNL     1      -2.370   1.244   2.951  0.00  0.00    +0.013 A 
ATOM     12  C   UNL     1      -1.720   0.805   1.816  0.00  0.00    +0.004 A 
BRANCH   7  14
ATOM     13  C   UNL     1      -0.753   1.593  -1.232  0.00  0.00    +0.009 C 
ATOM     14  C   UNL     1      -0.013   1.086   0.008  0.00  0.00    +0.032 C 
ENDBRANCH   7  14
ENDBRANCH   3  10
ENDBRANCH   1   5
BRANCH   1  15
ATOM     15  N   UNL     1      -2.646   5.735   6.958  0.00  0.00    -0.290 N 
ATOM     16  H   UNL     1      -1.942   6.270   6.558  0.00  0.00    +0.154 HD
BRANCH  15  17
ATOM     17  C   UNL     1      -3.295   6.182   8.099  0.00  0.00    +0.089 A 
ATOM     18  C   UNL     1      -3.079   7.353   8.810  0.00  0.00    +0.084 A 
ATOM     19  C   UNL     1      -3.906   7.591   9.981  0.00  0.00    -0.018 A 
ATOM     20  C   UNL     1      -4.804   6.620  10.257  0.00  0.00    -0.004 A 
ATOM     21  S   UNL     1      -4.568   5.411   8.986  0.00  0.00    -0.077 S 
ATOM     22  C   UNL     1      -5.780   6.588  11.393  0.00  0.00    +0.046 C 
ATOM     23  C   UNL     1      -5.871   8.000  11.991  0.00  0.00    -0.009 C 
ATOM     24  C   UNL     1      -4.453   8.536  12.210  0.00  0.00    +0.008 C 
ATOM     25  C   UNL     1      -3.794   8.829  10.861  0.00  0.00    +0.037 C 
ATOM     26  C   UNL     1      -6.613   7.943  13.328  0.00  0.00    +0.008 C 
BRANCH  18  27
ATOM     27  C   UNL     1      -2.080   8.295   8.404  0.00  0.00    +0.102 C 
ATOM     28  N   UNL     1      -1.288   9.043   8.081  0.00  0.00    -0.191 NA
ENDBRANCH  18  27
ENDBRANCH  15  17
ENDBRANCH   1  15
TORSDOF 6
