REMARK  Name = ZINC09291346
REMARK  6 active torsions:
REMARK  status: ('A' for Active; 'I' for Inactive)
REMARK    1  A    between atoms: C_1  and  C_2
REMARK    2  A    between atoms: C_9  and  C_13
REMARK    3  A    between atoms: C_10  and  O_12
REMARK    4  A    between atoms: N_14  and  N_15
REMARK    5  A    between atoms: C_16  and  C_18
REMARK    6  A    between atoms: C_23  and  O_24
REMARK                            x       y       z     vdW  Elec       q    Type
REMARK                         _______ _______ _______ _____ _____    ______ ____
ROOT
ATOM      1  C   UNL     1       0.068  -0.654   5.993  0.00  0.00    +0.143 C 
ATOM      2  N   UNL     1       0.048   0.008   4.876  0.00  0.00    -0.187 NA
ENDROOT
BRANCH   1  11
ATOM      3  C   UNL     1       0.138  -0.491  13.402  0.00  0.00    +0.044 C 
ATOM      4  C   UNL     1       0.116   0.201  12.063  0.00  0.00    -0.050 A 
ATOM      5  C   UNL     1       0.097   1.593  12.009  0.00  0.00    +0.005 A 
ATOM      6  C   UNL     1       0.077   2.250  10.816  0.00  0.00    +0.029 A 
ATOM      7  C   UNL     1       0.073   1.519   9.616  0.00  0.00    +0.075 A 
ATOM      8  C   UNL     1       0.093   0.103   9.674  0.00  0.00    +0.001 A 
ATOM      9  C   UNL     1       0.114  -0.542  10.922  0.00  0.00    +0.013 A 
ATOM     10  C   UNL     1       0.091  -0.634   8.476  0.00  0.00    +0.024 A 
ATOM     11  C   UNL     1       0.070   0.068   7.277  0.00  0.00    +0.056 A 
ATOM     12  C   UNL     1       0.057   1.481   7.301  0.00  0.00    +0.222 A 
ATOM     13  N   UNL     1       0.053   2.146   8.434  0.00  0.00    -0.212 NA
BRANCH  12  14
ATOM     14  O   UNL     1       0.042   2.164   6.131  0.00  0.00    -0.492 OA
ATOM     15  H   UNL     1      -0.846   2.354   5.798  0.00  0.00    +0.294 HD
ENDBRANCH  12  14
ENDBRANCH   1  11
BRANCH   2  16
ATOM     16  N   UNL     1       0.046  -0.679   3.655  0.00  0.00    -0.203 N 
ATOM     17  C   UNL     1       0.026   0.008   2.496  0.00  0.00    +0.267 C 
ATOM     18  O   UNL     1       0.009   1.224   2.510  0.00  0.00    -0.268 OA
ATOM     19  H   UNL     1       0.059  -1.649   3.644  0.00  0.00    +0.178 HD
BRANCH  17  20
ATOM     20  C   UNL     1       0.023  -0.715   1.210  0.00  0.00    +0.080 A 
ATOM     21  C   UNL     1       0.042  -2.111   1.189  0.00  0.00    +0.017 A 
ATOM     22  C   UNL     1       0.039  -2.781  -0.015  0.00  0.00    +0.001 A 
ATOM     23  C   UNL     1       0.017  -2.075  -1.207  0.00  0.00    +0.004 A 
ATOM     24  C   UNL     1      -0.006  -0.694  -1.201  0.00  0.00    +0.046 A 
ATOM     25  C   UNL     1       0.002  -0.004   0.002  0.00  0.00    +0.129 A 
BRANCH  25  26
ATOM     26  O   UNL     1      -0.016   1.352   0.009  0.00  0.00    -0.506 OA
ATOM     27  H   UNL     1       0.862   1.758   0.003  0.00  0.00    +0.292 HD
ENDBRANCH  25  26
ENDBRANCH  17  20
ENDBRANCH   2  16
TORSDOF 5
