REMARK  Name = ZINC06768562
REMARK  9 active torsions:
REMARK  status: ('A' for Active; 'I' for Inactive)
REMARK    1  A    between atoms: C_1  and  C_2
REMARK    2  A    between atoms: C_5  and  N_8
REMARK    3  A    between atoms: N_8  and  C_9
REMARK    4  A    between atoms: C_10  and  C_20
REMARK    5  A    between atoms: C_17  and  C_18
REMARK    6  A    between atoms: C_22  and  O_28
REMARK    7  A    between atoms: C_25  and  O_26
REMARK    8  A    between atoms: O_26  and  C_27
REMARK    9  A    between atoms: O_28  and  C_29
REMARK                            x       y       z     vdW  Elec       q    Type
REMARK                         _______ _______ _______ _____ _____    ______ ____
ROOT
ATOM      1  C   UNL     1       0.002  -0.004   0.002  0.00  0.00    +0.147 A 
ATOM      2  C   UNL     1      -0.016   1.348   0.009  0.00  0.00    +0.092 A 
ATOM      3  N   UNL     1       1.307   1.788  -0.001  0.00  0.00    -0.336 N 
ATOM      4  H   UNL     1       1.604   2.711   0.001  0.00  0.00    +0.167 HD
ATOM      5  C   UNL     1       2.111   0.678  -0.015  0.00  0.00    +0.154 A 
ATOM      6  N   UNL     1       1.321  -0.419  -0.013  0.00  0.00    -0.199 N 
ATOM      7  N   UNL     1       2.145  -1.552  -0.026  0.00  0.00    -0.170 NA
ATOM      8  C   UNL     1       3.395  -1.177  -0.036  0.00  0.00    +0.156 A 
ATOM      9  C   UNL     1       3.436   0.234  -0.029  0.00  0.00    +0.114 A 
ENDROOT
BRANCH   2  10
ATOM     10  C   UNL     1      -1.220   2.204   0.020  0.00  0.00    +0.047 A 
ATOM     11  C   UNL     1      -1.498   3.037  -1.065  0.00  0.00    +0.059 A 
ATOM     12  C   UNL     1      -2.631   3.832  -1.052  0.00  0.00    +0.121 A 
ATOM     13  C   UNL     1      -3.483   3.812   0.044  0.00  0.00    +0.049 A 
ATOM     14  C   UNL     1      -3.210   2.994   1.125  0.00  0.00    +0.050 A 
ATOM     15  C   UNL     1      -2.084   2.189   1.122  0.00  0.00    +0.130 A 
BRANCH  15  16
ATOM     16  O   UNL     1      -1.817   1.386   2.186  0.00  0.00    -0.494 OA
ATOM     17  C   UNL     1      -2.743   1.422   3.274  0.00  0.00    +0.277 C 
ENDBRANCH  15  16
BRANCH  12  18
ATOM     18  O   UNL     1      -2.906   4.638  -2.111  0.00  0.00    -0.495 OA
ATOM     19  C   UNL     1      -4.088   5.437  -2.028  0.00  0.00    +0.277 C 
ENDBRANCH  12  18
ENDBRANCH   2  10
BRANCH   1  20
ATOM     20  N   UNL     1      -1.117  -0.837   0.009  0.00  0.00    -0.324 N 
ATOM     21  H   UNL     1      -1.713  -0.635   0.797  0.00  0.00    +0.148 HD
BRANCH  20  26
ATOM     22  C   UNL     1      -2.462  -4.845  -1.654  0.00  0.00    +0.007 C 
ATOM     23  C   UNL     1      -1.178  -5.021  -0.841  0.00  0.00    -0.014 C 
ATOM     24  C   UNL     1      -1.422  -4.572   0.601  0.00  0.00    +0.005 C 
ATOM     25  C   UNL     1      -1.835  -3.099   0.613  0.00  0.00    +0.022 C 
ATOM     26  C   UNL     1      -0.720  -2.251  -0.003  0.00  0.00    +0.072 C 
ATOM     27  C   UNL     1      -0.476  -2.701  -1.445  0.00  0.00    +0.022 C 
ATOM     28  C   UNL     1      -0.063  -4.174  -1.457  0.00  0.00    +0.005 C 
ENDBRANCH  20  26
ENDBRANCH   1  20
BRANCH   9  29
ATOM     29  C   UNL     1       4.611   1.053  -0.035  0.00  0.00    +0.104 C 
ATOM     30  N   UNL     1       5.542   1.702  -0.040  0.00  0.00    -0.191 NA
ENDBRANCH   9  29
TORSDOF 6
