REMARK  Name = ZINC63856286
REMARK  4 active torsions:
REMARK  status: ('A' for Active; 'I' for Inactive)
REMARK    1  A    between atoms: C_15  and  C_16
REMARK    2  A    between atoms: C_16  and  N_17
REMARK    3  A    between atoms: C_18  and  C_20
REMARK    4  A    between atoms: C_20  and  C_21
REMARK                            x       y       z     vdW  Elec       q    Type
REMARK                         _______ _______ _______ _____ _____    ______ ____
ROOT
ATOM      1  C   UNL     1      -0.017   1.397   0.010  0.00  0.00    +0.007 A 
ATOM      2  C   UNL     1       1.108   2.144   0.003  0.00  0.00    +0.026 A 
ATOM      3  C   UNL     1       2.384   1.517  -0.010  0.00  0.00    +0.043 A 
ATOM      4  N   UNL     1       3.604   2.004   0.009  0.00  0.00    -0.378 N 
ATOM      5  C   UNL     1       4.519   0.882  -0.123  0.00  0.00    +0.106 C 
ATOM      6  C   UNL     1       5.634   0.893   0.945  0.00  0.00    +0.029 C 
ATOM      7  C   UNL     1       5.045   0.280   2.206  0.00  0.00    +0.002 C 
ATOM      8  C   UNL     1       5.292  -1.204   2.252  0.00  0.00    +0.000 C 
ATOM      9  C   UNL     1       4.202  -2.079   1.712  0.00  0.00    +0.004 C 
ATOM     10  C   UNL     1       4.093  -1.810   0.196  0.00  0.00    +0.033 C 
ATOM     11  C   UNL     1       3.734  -0.383   0.009  0.00  0.00    -0.038 C 
ATOM     12  C   UNL     1       2.429   0.039  -0.002  0.00  0.00    -0.001 A 
ATOM     13  C   UNL     1       1.163  -0.700  -0.004  0.00  0.00    +0.015 A 
ATOM     14  C   UNL     1       0.002  -0.004   0.002  0.00  0.00    -0.030 A 
ATOM     15  H   UNL     1       3.849   2.939   0.094  0.00  0.00    +0.160 HD
ENDROOT
BRANCH  14  16
ATOM     16  C   UNL     1      -1.304  -0.756   0.001  0.00  0.00    +0.139 C 
BRANCH  16  17
ATOM     17  N   UNL     1      -1.730  -0.992  -1.381  0.00  0.00    -0.311 N 
ATOM     18  C   UNL     1      -2.879  -1.652  -1.628  0.00  0.00    +0.215 C 
ATOM     19  O   UNL     1      -3.560  -2.050  -0.707  0.00  0.00    -0.276 OA
ATOM     20  H   UNL     1      -1.186  -0.673  -2.118  0.00  0.00    +0.149 HD
BRANCH  18  21
ATOM     21  C   UNL     1      -3.318  -1.895  -3.049  0.00  0.00    +0.118 C 
BRANCH  21  22
ATOM     22  C   UNL     1      -4.644  -2.658  -3.050  0.00  0.00    +0.082 C 
ATOM     23  C   UNL     1      -5.158  -2.834  -4.497  0.00  0.00    +0.032 C 
ATOM     24  C   UNL     1      -5.810  -4.234  -4.431  0.00  0.00    +0.097 C 
ATOM     25  C   UNL     1      -5.096  -4.924  -3.289  0.00  0.00    +0.213 C 
ATOM     26  O   UNL     1      -5.106  -6.119  -3.083  0.00  0.00    -0.276 OA
ATOM     27  N   UNL     1      -4.447  -4.018  -2.534  0.00  0.00    -0.312 N 
ATOM     28  H   UNL     1      -3.918  -4.235  -1.751  0.00  0.00    +0.149 HD
ENDBRANCH  21  22
ENDBRANCH  18  21
ENDBRANCH  16  17
ENDBRANCH  14  16
TORSDOF 4
