REMARK  Name = ZINC13645354
REMARK  5 active torsions:
REMARK  status: ('A' for Active; 'I' for Inactive)
REMARK    1  A    between atoms: C_1  and  C_2
REMARK    2  A    between atoms: C_6  and  C_7
REMARK    3  A    between atoms: C_18  and  S_23
REMARK    4  A    between atoms: S_23  and  N_26
REMARK    5  A    between atoms: N_26  and  C_27
REMARK                            x       y       z     vdW  Elec       q    Type
REMARK                         _______ _______ _______ _____ _____    ______ ____
ROOT
ATOM      1  C   UNL     1       1.237   2.180   0.002  0.00  0.00    +0.112 C 
ATOM      2  C   UNL     1       2.309   1.578  -0.890  0.00  0.00    +0.029 C 
ATOM      3  C   UNL     1       3.674   2.279  -0.912  0.00  0.00    +0.033 C 
ATOM      4  C   UNL     1       4.615   1.111  -1.215  0.00  0.00    -0.030 C 
ATOM      5  C   UNL     1       4.072  -0.029  -0.804  0.00  0.00    -0.023 C 
ATOM      6  C   UNL     1       2.762   0.272  -0.171  0.00  0.00    +0.049 C 
ATOM      7  C   UNL     1       1.635  -0.684  -0.209  0.00  0.00    -0.018 A 
ATOM      8  C   UNL     1       1.822  -2.045  -0.320  0.00  0.00    +0.034 A 
ATOM      9  C   UNL     1       0.736  -2.901  -0.312  0.00  0.00    +0.106 A 
ATOM     10  C   UNL     1      -0.544  -2.393  -0.194  0.00  0.00    +0.030 A 
ATOM     11  C   UNL     1      -0.743  -1.031  -0.092  0.00  0.00    +0.025 A 
ATOM     12  C   UNL     1       0.341  -0.161  -0.106  0.00  0.00    +0.031 A 
ATOM     13  N   UNL     1       0.114   1.218  -0.018  0.00  0.00    -0.336 N 
ATOM     14  H   UNL     1      -0.797   1.548   0.025  0.00  0.00    +0.147 HD
ENDROOT
BRANCH   1  20
ATOM     15  C   UNL     1       2.503   4.705   1.210  0.00  0.00    +0.044 C 
ATOM     16  C   UNL     1       2.324   3.427   1.988  0.00  0.00    -0.038 A 
ATOM     17  C   UNL     1       2.733   3.345   3.306  0.00  0.00    +0.011 A 
ATOM     18  C   UNL     1       2.557   2.181   3.978  0.00  0.00    +0.046 A 
ATOM     19  S   UNL     1       1.786   1.153   2.739  0.00  0.00    -0.099 S 
ATOM     20  C   UNL     1       1.759   2.341   1.407  0.00  0.00    +0.013 A 
ENDBRANCH   1  20
BRANCH   9  21
ATOM     21  S   UNL     1       0.984  -4.640  -0.453  0.00  0.00    +0.059 S 
ATOM     22  O   UNL     1      -0.224  -5.182  -0.968  0.00  0.00    -0.153 OA
ATOM     23  O   UNL     1       2.237  -4.820  -1.100  0.00  0.00    -0.153 OA
BRANCH  21  24
ATOM     24  N   UNL     1       1.154  -5.237   1.082  0.00  0.00    -0.187 NA
ATOM     25  H   UNL     1       1.997  -5.628   1.360  0.00  0.00    +0.148 HD
BRANCH  24  26
ATOM     26  C   UNL     1       0.031  -5.173   2.021  0.00  0.00    +0.077 C 
ATOM     27  C   UNL     1       0.160  -3.919   2.887  0.00  0.00    +0.020 C 
ATOM     28  C   UNL     1      -1.012  -3.853   3.867  0.00  0.00    +0.002 C 
ATOM     29  C   UNL     1      -0.999  -5.093   4.763  0.00  0.00    +0.000 C 
ATOM     30  C   UNL     1      -1.128  -6.348   3.897  0.00  0.00    +0.002 C 
ATOM     31  C   UNL     1       0.044  -6.414   2.916  0.00  0.00    +0.020 C 
ENDBRANCH  24  26
ENDBRANCH  21  24
ENDBRANCH   9  21
TORSDOF 4
