REMARK  Name = ZINC04062675
REMARK  9 active torsions:
REMARK  status: ('A' for Active; 'I' for Inactive)
REMARK    1  A    between atoms: C_1  and  C_2
REMARK    2  A    between atoms: C_2  and  C_3
REMARK    3  A    between atoms: C_3  and  N_4
REMARK    4  A    between atoms: C_5  and  C_7
REMARK    5  A    between atoms: C_7  and  N_58
REMARK    6  A    between atoms: C_10  and  O_27
REMARK    7  A    between atoms: C_17  and  C_19
REMARK    8  A    between atoms: C_22  and  O_25
REMARK    9  A    between atoms: O_25  and  C_26
REMARK                            x       y       z     vdW  Elec       q    Type
REMARK                         _______ _______ _______ _____ _____    ______ ____
ROOT
ATOM      1  C   UNL     1      -2.419  -4.355   1.254  0.00  0.00    -0.075 C 
ATOM      2  C   UNL     1      -2.283  -5.876   1.155  0.00  0.00    +0.016 C 
ATOM      3  C   UNL     1      -3.666  -6.490   0.913  0.00  0.00    +0.066 C 
ATOM      4  C   UNL     1      -4.572  -6.168   2.103  0.00  0.00    +0.035 C 
ATOM      5  C   UNL     1      -5.966  -6.750   1.858  0.00  0.00    +0.003 C 
ATOM      6  C   UNL     1      -6.559  -6.133   0.590  0.00  0.00    +0.000 C 
ATOM      7  C   UNL     1      -5.657  -6.457  -0.602  0.00  0.00    +0.005 C 
ATOM      8  C   UNL     1      -4.255  -5.894  -0.368  0.00  0.00    +0.011 C 
ATOM      9  C   UNL     1      -4.338  -4.373  -0.227  0.00  0.00    -0.031 C 
ATOM     10  N   UNL     1      -2.976  -3.837  -0.013  0.00  0.00    +0.390 N 
ATOM     11  H   UNL     1      -2.375  -4.139  -0.789  0.00  0.00    -0.080 HD
ENDROOT
BRANCH   9  12
ATOM     12  C   UNL     1      -4.904  -3.781  -1.492  0.00  0.00    -0.060 A 
ATOM     13  C   UNL     1      -4.088  -3.595  -2.592  0.00  0.00    +0.005 A 
ATOM     14  C   UNL     1      -4.605  -3.058  -3.755  0.00  0.00    +0.046 A 
ATOM     15  C   UNL     1      -5.942  -2.694  -3.814  0.00  0.00    +0.120 A 
ATOM     16  C   UNL     1      -6.758  -2.876  -2.707  0.00  0.00    +0.046 A 
ATOM     17  C   UNL     1      -6.237  -3.420  -1.548  0.00  0.00    +0.005 A 
BRANCH  15  18
ATOM     18  O   UNL     1      -6.452  -2.159  -4.954  0.00  0.00    -0.495 OA
ATOM     19  C   UNL     1      -5.554  -2.000  -6.054  0.00  0.00    +0.277 C 
ENDBRANCH  15  18
ENDBRANCH   9  12
BRANCH   3  20
ATOM     20  O   UNL     1      -3.544  -7.907   0.771  0.00  0.00    -0.388 OA
ATOM     21  H   UNL     1      -3.169  -8.349   1.546  0.00  0.00    +0.210 HD
ENDBRANCH   3  20
BRANCH  10  22
ATOM     22  C   UNL     1      -3.014  -2.361   0.018  0.00  0.00    +0.019 C 
BRANCH  22  24
ATOM     23  N   UNL     1      -1.372  -0.511   0.012  0.00  0.00    -0.317 N 
ATOM     24  C   UNL     1      -1.601  -1.839   0.007  0.00  0.00    +0.196 C 
ATOM     25  O   UNL     1      -0.668  -2.615  -0.006  0.00  0.00    -0.278 OA
ATOM     26  H   UNL     1      -2.118   0.109   0.023  0.00  0.00    +0.149 HD
BRANCH  23  27
ATOM     27  C   UNL     1       0.002  -0.004   0.002  0.00  0.00    +0.104 C 
BRANCH  27  29
ATOM     28  C   UNL     1       1.417   2.055  -0.000  0.00  0.00    +0.005 C 
ATOM     29  C   UNL     1      -0.019   1.526   0.010  0.00  0.00    +0.015 C 
ENDBRANCH  27  29
ENDBRANCH  23  27
ENDBRANCH  22  24
ENDBRANCH  10  22
TORSDOF 7
