REMARK  Name = ZINC01302173
REMARK  5 active torsions:
REMARK  status: ('A' for Active; 'I' for Inactive)
REMARK    1  A    between atoms: C_1  and  N_41
REMARK    2  A    between atoms: C_9  and  N_23
REMARK    3  A    between atoms: C_11  and  S_13
REMARK    4  A    between atoms: S_13  and  C_14
REMARK    5  A    between atoms: C_14  and  C_15
REMARK                            x       y       z     vdW  Elec       q    Type
REMARK                         _______ _______ _______ _____ _____    ______ ____
ROOT
ATOM      1  C   UNL     1       4.584   4.168  -1.633  0.00  0.00    -0.096 C 
ATOM      2  C   UNL     1       4.306   1.762  -1.656  0.00  0.00    -0.074 C 
ATOM      3  C   UNL     1       3.763   0.590  -0.834  0.00  0.00    +0.018 C 
ATOM      4  C   UNL     1       2.248   0.743  -0.727  0.00  0.00    -0.028 A 
ATOM      5  C   UNL     1       1.673   1.935  -0.988  0.00  0.00    -0.021 A 
ATOM      6  S   UNL     1      -0.063   1.672  -0.753  0.00  0.00    -0.075 S 
ATOM      7  C   UNL     1      -0.014  -0.043  -0.301  0.00  0.00    +0.115 A 
ATOM      8  C   UNL     1       1.360  -0.357  -0.350  0.00  0.00    +0.051 A 
ATOM      9  C   UNL     1       1.693  -1.701  -0.025  0.00  0.00    +0.129 A 
ATOM     10  N   UNL     1       0.729  -2.548   0.294  0.00  0.00    -0.207 NA
ATOM     11  C   UNL     1      -0.549  -2.186   0.320  0.00  0.00    +0.191 A 
ATOM     12  N   UNL     1      -0.918  -0.946   0.026  0.00  0.00    -0.215 NA
ATOM     13  C   UNL     1       2.374   3.197  -1.387  0.00  0.00    -0.036 C 
ATOM     14  N   UNL     1       3.816   3.031  -1.081  0.00  0.00    +0.381 N 
ATOM     15  H   UNL     1       3.941   3.007  -0.062  0.00  0.00    -0.082 HD
ENDROOT
BRANCH   9  16
ATOM     16  N   UNL     1       3.012  -2.118  -0.042  0.00  0.00    -0.343 N 
ATOM     17  H   UNL     1       3.223  -3.062   0.024  0.00  0.00    +0.144 HD
ATOM     18  H   UNL     1       3.725  -1.466  -0.119  0.00  0.00    +0.144 HD
ENDBRANCH   9  16
BRANCH  11  19
ATOM     19  S   UNL     1      -1.775  -3.373   0.755  0.00  0.00    -0.081 S 
BRANCH  19  20
ATOM     20  C   UNL     1      -0.726  -4.820   1.039  0.00  0.00    +0.112 C 
BRANCH  20  21
ATOM     21  C   UNL     1      -1.584  -5.994   1.435  0.00  0.00    -0.036 A 
ATOM     22  C   UNL     1      -1.861  -6.228   2.769  0.00  0.00    +0.006 A 
ATOM     23  C   UNL     1      -2.653  -7.301   3.133  0.00  0.00    +0.022 A 
ATOM     24  C   UNL     1      -3.160  -8.147   2.163  0.00  0.00    +0.059 A 
ATOM     25  C   UNL     1      -2.877  -7.916   0.827  0.00  0.00    +0.060 A 
ATOM     26  C   UNL     1      -2.089  -6.838   0.464  0.00  0.00    +0.026 A 
ATOM     27 CL   UNL     1      -3.512  -8.977  -0.391  0.00  0.00    -0.082 Cl
ATOM     28 CL   UNL     1      -4.149  -9.499   2.619  0.00  0.00    -0.082 Cl
ENDBRANCH  20  21
ENDBRANCH  19  20
ENDBRANCH  11  19
TORSDOF 4
