REMARK  Name = ZINC08211168
REMARK  7 active torsions:
REMARK  status: ('A' for Active; 'I' for Inactive)
REMARK    1  A    between atoms: C_1  and  C_2
REMARK    2  A    between atoms: C_2  and  C_4
REMARK    3  A    between atoms: C_2  and  N_20
REMARK    4  A    between atoms: N_9  and  C_10
REMARK    5  A    between atoms: N_20  and  C_21
REMARK    6  A    between atoms: C_26  and  O_27
REMARK    7  A    between atoms: O_27  and  C_28
REMARK                            x       y       z     vdW  Elec       q    Type
REMARK                         _______ _______ _______ _____ _____    ______ ____
ROOT
ATOM      1  C   UNL     1      -1.862   3.099   5.747  0.00  0.00    +0.240 C 
ATOM      2  O   UNL     1      -0.669   2.965   5.576  0.00  0.00    -0.273 OA
ATOM      3  N   UNL     1      -2.330   3.512   6.941  0.00  0.00    -0.239 N 
ATOM      4  C   UNL     1      -1.471   3.776   7.946  0.00  0.00    +0.306 C 
ATOM      5  O   UNL     1      -0.275   3.641   7.775  0.00  0.00    -0.252 OA
ATOM      6  N   UNL     1      -1.938   4.188   9.141  0.00  0.00    -0.294 N 
ATOM      7  H   UNL     1      -3.284   3.619   7.078  0.00  0.00    +0.159 HD
ATOM      8  H   UNL     1      -2.893   4.295   9.278  0.00  0.00    +0.151 HD
ENDROOT
BRANCH   6   9
ATOM      9  C   UNL     1      -1.005   4.475  10.233  0.00  0.00    +0.037 C 
ATOM     10  C   UNL     1      -0.205   3.213  10.565  0.00  0.00    +0.029 C 
ATOM     11  C   UNL     1       0.769   3.513  11.706  0.00  0.00    -0.008 C 
ATOM     12  C   UNL     1      -0.014   3.959  12.942  0.00  0.00    +0.007 C 
ATOM     13  C   UNL     1      -0.814   5.221  12.610  0.00  0.00    -0.008 C 
ATOM     14  C   UNL     1      -1.788   4.921  11.470  0.00  0.00    +0.029 C 
ATOM     15  C   UNL     1       0.144   6.335  12.183  0.00  0.00    +0.007 C 
ATOM     16  C   UNL     1       0.928   5.888  10.947  0.00  0.00    -0.008 C 
ATOM     17  C   UNL     1       1.728   4.627  11.279  0.00  0.00    +0.007 C 
ATOM     18  C   UNL     1      -0.047   5.589   9.807  0.00  0.00    +0.029 C 
ENDBRANCH   6   9
BRANCH   1  20
ATOM     19  C   UNL     1      -3.622   4.066   4.291  0.00  0.00    +0.038 C 
ATOM     20  C   UNL     1      -2.822   2.804   4.623  0.00  0.00    +0.154 C 
BRANCH  20  21
ATOM     21  N   UNL     1      -2.072   2.377   3.439  0.00  0.00    -0.330 N 
ATOM     22  H   UNL     1      -1.149   2.652   3.325  0.00  0.00    +0.147 HD
BRANCH  21  23
ATOM     23  C   UNL     1      -2.687   1.571   2.474  0.00  0.00    +0.070 A 
ATOM     24  C   UNL     1      -4.009   1.181   2.634  0.00  0.00    +0.026 A 
ATOM     25  C   UNL     1      -4.613   0.380   1.683  0.00  0.00    +0.002 A 
ATOM     26  C   UNL     1      -3.904  -0.029   0.568  0.00  0.00    +0.004 A 
ATOM     27  C   UNL     1      -2.588   0.361   0.400  0.00  0.00    +0.047 A 
ATOM     28  C   UNL     1      -1.976   1.163   1.348  0.00  0.00    +0.141 A 
BRANCH  28  29
ATOM     29  O   UNL     1      -0.682   1.547   1.184  0.00  0.00    -0.493 OA
ATOM     30  C   UNL     1      -0.013   1.086   0.008  0.00  0.00    +0.277 C 
ENDBRANCH  28  29
ENDBRANCH  21  23
ENDBRANCH  20  21
ENDBRANCH   1  20
TORSDOF 5
