REMARK  Name = ZINC01103293
REMARK  9 active torsions:
REMARK  status: ('A' for Active; 'I' for Inactive)
REMARK    1  A    between atoms: C_1  and  C_2
REMARK    2  A    between atoms: C_2  and  O_3
REMARK    3  A    between atoms: O_3  and  C_4
REMARK    4  A    between atoms: C_4  and  C_6
REMARK    5  A    between atoms: C_9  and  O_25
REMARK    6  A    between atoms: N_13  and  C_23
REMARK    7  A    between atoms: C_14  and  C_15
REMARK    8  A    between atoms: C_15  and  N_16
REMARK    9  A    between atoms: N_16  and  C_17
REMARK                            x       y       z     vdW  Elec       q    Type
REMARK                         _______ _______ _______ _____ _____    ______ ____
ROOT
ATOM      1  C   UNL     1      -2.845  -2.417   0.016  0.00  0.00    +0.089 A 
ATOM      2  C   UNL     1      -3.665  -2.765  -1.159  0.00  0.00    +0.018 A 
ATOM      3  C   UNL     1      -3.469  -2.675  -2.535  0.00  0.00    +0.057 A 
ATOM      4  C   UNL     1      -4.462  -3.100  -3.397  0.00  0.00    +0.131 A 
ATOM      5  C   UNL     1      -5.654  -3.613  -2.891  0.00  0.00    +0.061 A 
ATOM      6  C   UNL     1      -5.857  -3.705  -1.532  0.00  0.00    +0.045 A 
ATOM      7  C   UNL     1      -4.866  -3.283  -0.651  0.00  0.00    +0.051 A 
ATOM      8  N   UNL     1      -4.780  -3.252   0.728  0.00  0.00    -0.345 N 
ATOM      9  C   UNL     1      -3.585  -2.745   1.115  0.00  0.00    +0.051 A 
ATOM     10  C   UNL     1      -5.830  -3.706   1.642  0.00  0.00    +0.149 C 
ATOM     11 BR   UNL     1      -7.006  -4.189  -4.082  0.00  0.00    -0.046 Br
ENDROOT
BRANCH   1  12
ATOM     12  C   UNL     1      -1.497  -1.838   0.006  0.00  0.00    +0.342 C 
ATOM     13  O   UNL     1      -0.523  -2.565  -0.007  0.00  0.00    -0.245 OA
BRANCH  12  14
ATOM     14  O   UNL     1      -1.339  -0.499   0.012  0.00  0.00    -0.461 OA
BRANCH  14  16
ATOM     15  C   UNL     1      -0.019   1.526   0.010  0.00  0.00    +0.048 C 
ATOM     16  C   UNL     1       0.002  -0.004   0.002  0.00  0.00    +0.229 C 
ENDBRANCH  14  16
ENDBRANCH  12  14
ENDBRANCH   1  12
BRANCH   4  17
ATOM     17  O   UNL     1      -4.277  -3.015  -4.741  0.00  0.00    -0.506 OA
ATOM     18  H   UNL     1      -3.874  -3.802  -5.133  0.00  0.00    +0.292 HD
ENDBRANCH   4  17
BRANCH   9  19
ATOM     19  C   UNL     1      -3.141  -2.568   2.544  0.00  0.00    +0.156 C 
BRANCH  19  20
ATOM     20  N   UNL     1      -2.452  -3.780   2.995  0.00  0.00    -0.338 N 
ATOM     21  H   UNL     1      -2.346  -4.531   2.390  0.00  0.00    +0.146 HD
BRANCH  20  22
ATOM     22  C   UNL     1      -1.948  -3.853   4.290  0.00  0.00    +0.030 A 
ATOM     23  C   UNL     1      -2.094  -2.786   5.176  0.00  0.00    +0.040 A 
ATOM     24  C   UNL     1      -1.581  -2.898   6.451  0.00  0.00    +0.084 A 
ATOM     25  N   UNL     1      -0.959  -3.997   6.835  0.00  0.00    -0.367 N 
ATOM     26  C   UNL     1      -0.799  -5.028   6.027  0.00  0.00    +0.084 A 
ATOM     27  C   UNL     1      -1.288  -4.997   4.738  0.00  0.00    +0.040 A 
ATOM     28  H   UNL     1      -0.608  -4.048   7.738  0.00  0.00    +0.165 HD
ENDBRANCH  20  22
ENDBRANCH  19  20
ENDBRANCH   9  19
TORSDOF 7
