REMARK  Name = ZINC35705940
REMARK  15 active torsions:
REMARK  status: ('A' for Active; 'I' for Inactive)
REMARK    1  A    between atoms: C_1  and  C_2
REMARK    2  A    between atoms: C_2  and  C_3
REMARK    3  A    between atoms: C_2  and  C_4
REMARK    4  A    between atoms: C_4  and  N_5
REMARK    5  A    between atoms: C_6  and  C_8
REMARK    6  A    between atoms: C_11  and  C_13
REMARK    7  A    between atoms: C_13  and  N_14
REMARK    8  A    between atoms: N_14  and  C_15
REMARK    9  A    between atoms: N_14  and  C_26
REMARK   10  A    between atoms: C_15  and  C_16
REMARK   11  A    between atoms: C_19  and  C_22
REMARK   12  A    between atoms: C_22  and  C_23
REMARK   13  A    between atoms: C_22  and  C_24
REMARK   14  A    between atoms: C_22  and  C_25
REMARK   15  A    between atoms: C_26  and  C_27
REMARK                            x       y       z     vdW  Elec       q    Type
REMARK                         _______ _______ _______ _____ _____    ______ ____
ROOT
ATOM      1  N   UNL     1      -0.386  -7.886   0.645  0.00  0.00    +0.391 N 
ATOM      2  H   UNL     1      -0.964  -8.148   1.430  0.00  0.00    -0.080 HD
ENDROOT
BRANCH   1   3
ATOM      3  C   UNL     1      -1.241  -7.457  -0.470  0.00  0.00    +0.020 C 
BRANCH   3   7
ATOM      4  C   UNL     1      -4.044  -9.731  -0.786  0.00  0.00    +0.163 A 
ATOM      5  C   UNL     1      -3.158 -10.314  -1.638  0.00  0.00    +0.230 A 
ATOM      6  O   UNL     1      -2.046  -9.562  -1.623  0.00  0.00    -0.449 OA
ATOM      7  C   UNL     1      -2.244  -8.539  -0.780  0.00  0.00    +0.179 A 
ATOM      8  N   UNL     1      -3.438  -8.624  -0.275  0.00  0.00    -0.210 NA
BRANCH   4  10
ATOM      9  N   UNL     1      -6.212  -9.470   0.313  0.00  0.00    -0.310 N 
ATOM     10  C   UNL     1      -5.405 -10.205  -0.478  0.00  0.00    +0.266 C 
ATOM     11  O   UNL     1      -5.801 -11.258  -0.938  0.00  0.00    -0.268 OA
ATOM     12  H   UNL     1      -5.871  -8.670   0.743  0.00  0.00    +0.149 HD
BRANCH   9  13
ATOM     13  C   UNL     1      -7.602  -9.880   0.525  0.00  0.00    +0.107 C 
BRANCH  13  15
ATOM     14  C   UNL     1      -9.775  -9.239   1.578  0.00  0.00    +0.009 C 
ATOM     15  C   UNL     1      -8.292  -8.882   1.456  0.00  0.00    -0.000 C 
ATOM     16  C   UNL     1      -7.639  -8.938   2.839  0.00  0.00    +0.009 C 
ENDBRANCH  13  15
ENDBRANCH   9  13
ENDBRANCH   4  10
ENDBRANCH   3   7
ENDBRANCH   1   3
BRANCH   1  17
ATOM     17  C   UNL     1       0.423  -9.039   0.226  0.00  0.00    -0.042 C 
BRANCH  17  18
ATOM     18  C   UNL     1       1.208  -9.555   1.403  0.00  0.00    -0.064 A 
ATOM     19  C   UNL     1       2.469  -9.053   1.667  0.00  0.00    +0.002 A 
ATOM     20  C   UNL     1       3.189  -9.527   2.748  0.00  0.00    +0.004 A 
ATOM     21  C   UNL     1       2.649 -10.503   3.564  0.00  0.00    -0.042 A 
ATOM     22  C   UNL     1       1.388 -11.005   3.301  0.00  0.00    +0.004 A 
ATOM     23  C   UNL     1       0.666 -10.528   2.223  0.00  0.00    +0.002 A 
BRANCH  21  24
ATOM     24  C   UNL     1       3.435 -11.021   4.741  0.00  0.00    -0.013 C 
ATOM     25  C   UNL     1       3.741  -9.866   5.697  0.00  0.00    +0.015 C 
ATOM     26  C   UNL     1       2.616 -12.086   5.473  0.00  0.00    +0.015 C 
ATOM     27  C   UNL     1       4.747 -11.636   4.248  0.00  0.00    +0.015 C 
ENDBRANCH  21  24
ENDBRANCH  17  18
ENDBRANCH   1  17
BRANCH   1  28
ATOM     28  C   UNL     1       0.500  -6.782   1.035  0.00  0.00    -0.042 C 
BRANCH  28  29
ATOM     29  C   UNL     1      -0.325  -5.644   1.579  0.00  0.00    -0.064 A 
ATOM     30  C   UNL     1      -0.690  -4.598   0.751  0.00  0.00    +0.004 A 
ATOM     31  C   UNL     1      -1.446  -3.554   1.248  0.00  0.00    +0.038 A 
ATOM     32  C   UNL     1      -1.840  -3.556   2.576  0.00  0.00    +0.123 A 
ATOM     33  C   UNL     1      -1.474  -4.604   3.404  0.00  0.00    +0.038 A 
ATOM     34  C   UNL     1      -0.722  -5.649   2.903  0.00  0.00    +0.004 A 
ATOM     35  F   UNL     1      -2.579  -2.536   3.063  0.00  0.00    -0.205 F 
ENDBRANCH  28  29
ENDBRANCH   1  28
TORSDOF 10
