REMARK  Name = ZINC43761984
REMARK  1 active torsions:
REMARK  status: ('A' for Active; 'I' for Inactive)
REMARK    1  A    between atoms: C_10  and  O_13
REMARK                            x       y       z     vdW  Elec       q    Type
REMARK                         _______ _______ _______ _____ _____    ______ ____
ROOT
ATOM      1  C   UNL     1      -0.018   1.464   0.010  0.00  0.00    +0.003 C 
ATOM      2  C   UNL     1       1.469   1.931  -0.002  0.00  0.00    +0.004 C 
ATOM      3  C   UNL     1       2.009   1.746  -1.426  0.00  0.00    -0.004 C 
ATOM      4  C   UNL     1       2.926   0.460  -1.321  0.00  0.00    +0.012 C 
ATOM      5  C   UNL     1       2.042   0.630  -2.445  0.00  0.00    +0.015 C 
ATOM      6  C   UNL     1       0.737   0.158  -2.993  0.00  0.00    -0.025 C 
ATOM      7  C   UNL     1      -0.116  -0.609  -2.299  0.00  0.00    -0.000 C 
ATOM      8  C   UNL     1       0.081  -1.119  -0.900  0.00  0.00    +0.137 C 
ATOM      9  C   UNL     1       0.002  -0.004   0.002  0.00  0.00    +0.035 C 
ENDROOT
BRANCH   8  10
ATOM     10  O   UNL     1       1.308  -1.831  -0.766  0.00  0.00    -0.388 OA
ATOM     11  H   UNL     1       1.379  -2.604  -1.342  0.00  0.00    +0.210 HD
ENDBRANCH   8  10
TORSDOF 1
