REMARK  Name = ZINC19520596
REMARK  11 active torsions:
REMARK  status: ('A' for Active; 'I' for Inactive)
REMARK    1  A    between atoms: C_1  and  C_2
REMARK    2  A    between atoms: C_2  and  C_3
REMARK    3  A    between atoms: C_6  and  C_30
REMARK    4  A    between atoms: C_11  and  C_13
REMARK    5  A    between atoms: N_15  and  C_16
REMARK    6  A    between atoms: C_16  and  C_17
REMARK    7  A    between atoms: C_17  and  C_19
REMARK    8  A    between atoms: C_17  and  N_26
REMARK    9  A    between atoms: C_22  and  C_25
REMARK   10  A    between atoms: N_26  and  C_27
REMARK   11  A    between atoms: N_26  and  C_28
REMARK                            x       y       z     vdW  Elec       q    Type
REMARK                         _______ _______ _______ _____ _____    ______ ____
ROOT
ATOM      1  C   UNL     1       5.777  -1.342  -4.492  0.00  0.00    +0.264 C 
ATOM      2  O   UNL     1       6.619  -0.606  -4.015  0.00  0.00    -0.268 OA
ATOM      3  N   UNL     1       6.151  -2.381  -5.264  0.00  0.00    -0.311 N 
ATOM      4  H   UNL     1       5.390  -3.048  -5.696  0.00  0.00    +0.149 HD
ENDROOT
BRANCH   1  11
ATOM      5  C   UNL     1       0.111   0.391  -3.244  0.00  0.00    +0.074 C 
ATOM      6  C   UNL     1      -0.131  -1.118  -3.353  0.00  0.00    +0.058 C 
ATOM      7  C   UNL     1       0.776  -1.715  -4.435  0.00  0.00    +0.214 C 
ATOM      8  N   UNL     1       2.151  -1.264  -4.203  0.00  0.00    -0.238 N 
ATOM      9  C   UNL     1       2.474  -0.176  -3.442  0.00  0.00    +0.119 A 
ATOM     10  C   UNL     1       3.815  -0.051  -3.437  0.00  0.00    +0.078 A 
ATOM     11  C   UNL     1       4.345  -1.098  -4.224  0.00  0.00    +0.149 A 
ATOM     12  N   UNL     1       3.337  -1.820  -4.681  0.00  0.00    -0.164 NA
ATOM     13  N   UNL     1       1.506   0.614  -2.815  0.00  0.00    -0.326 N 
ATOM     14  H   UNL     1       1.731   1.366  -2.045  0.00  0.00    +0.148 HD
BRANCH   7  15
ATOM     15  C   UNL     1       0.719  -3.242  -4.367  0.00  0.00    +0.412 C 
ATOM     16  F   UNL     1      -0.597  -3.670  -4.575  0.00  0.00    -0.168 F 
ATOM     17  F   UNL     1       1.548  -3.785  -5.355  0.00  0.00    -0.168 F 
ATOM     18  F   UNL     1       1.154  -3.669  -3.108  0.00  0.00    -0.168 F 
ENDBRANCH   7  15
BRANCH   5  20
ATOM     19  C   UNL     1      -0.689   2.513  -2.194  0.00  0.00    +0.006 C 
ATOM     20  C   UNL     1      -0.846   0.991  -2.211  0.00  0.00    +0.019 C 
ENDBRANCH   5  20
ENDBRANCH   1  11
BRANCH   3  21
ATOM     21  C   UNL     1       7.571  -2.624  -5.529  0.00  0.00    +0.094 C 
BRANCH  21  22
ATOM     22  C   UNL     1       7.730  -3.939  -6.293  0.00  0.00    -0.021 C 
BRANCH  22  23
ATOM     23  C   UNL     1       9.185  -4.158  -6.620  0.00  0.00    -0.059 A 
ATOM     24  C   UNL     1      10.063  -4.561  -5.631  0.00  0.00    +0.002 A 
ATOM     25  C   UNL     1      11.396  -4.766  -5.931  0.00  0.00    +0.003 A 
ATOM     26  C   UNL     1      11.854  -4.559  -7.219  0.00  0.00    -0.050 A 
ATOM     27  C   UNL     1      10.978  -4.151  -8.207  0.00  0.00    +0.003 A 
ATOM     28  C   UNL     1       9.643  -3.950  -7.908  0.00  0.00    +0.002 A 
ATOM     29  C   UNL     1      13.309  -4.778  -7.546  0.00  0.00    +0.044 C 
ENDBRANCH  22  23
BRANCH  22  30
ATOM     30  N   UNL     1       7.242  -5.050  -5.464  0.00  0.00    +0.382 N 
ATOM     31  C   UNL     1       7.391  -4.744  -4.035  0.00  0.00    -0.096 C 
ATOM     32  C   UNL     1       5.848  -5.377  -5.790  0.00  0.00    -0.096 C 
ATOM     33  H   UNL     1       7.858  -5.934  -5.687  0.00  0.00    -0.082 HD
ENDBRANCH  22  30
ENDBRANCH  21  22
ENDBRANCH   3  21
TORSDOF 7
