REMARK  Name = ZINC42816630
REMARK  8 active torsions:
REMARK  status: ('A' for Active; 'I' for Inactive)
REMARK    1  A    between atoms: C_4  and  C_7
REMARK    2  A    between atoms: C_7  and  C_9
REMARK    3  A    between atoms: C_7  and  N_25
REMARK    4  A    between atoms: C_9  and  N_10
REMARK    5  A    between atoms: N_13  and  C_14
REMARK    6  A    between atoms: C_14  and  C_15
REMARK    7  A    between atoms: C_15  and  N_16
REMARK    8  A    between atoms: C_18  and  C_23
REMARK                            x       y       z     vdW  Elec       q    Type
REMARK                         _______ _______ _______ _____ _____    ______ ____
ROOT
ATOM      1  N   UNL     1       5.320  -1.941   1.316  0.00  0.00    -0.301 N 
ATOM      2  C   UNL     1       5.837  -2.443   2.455  0.00  0.00    +0.300 C 
ATOM      3  O   UNL     1       5.352  -2.139   3.528  0.00  0.00    -0.253 OA
ATOM      4  N   UNL     1       6.891  -3.281   2.404  0.00  0.00    -0.298 N 
ATOM      5  H   UNL     1       5.707  -2.183   0.460  0.00  0.00    +0.150 HD
ATOM      6  H   UNL     1       7.278  -3.523   1.548  0.00  0.00    +0.150 HD
ENDROOT
BRANCH   1   7
ATOM      7  C   UNL     1       4.174  -1.030   1.370  0.00  0.00    +0.095 C 
BRANCH   7   8
ATOM      8  C   UNL     1       3.870  -0.508  -0.035  0.00  0.00    -0.020 C 
BRANCH   8  12
ATOM      9  C   UNL     1       7.127   1.896  -1.399  0.00  0.00    +0.000 A 
ATOM     10  C   UNL     1       7.011   0.585  -1.822  0.00  0.00    +0.000 A 
ATOM     11  C   UNL     1       5.957  -0.193  -1.381  0.00  0.00    +0.002 A 
ATOM     12  C   UNL     1       5.019   0.340  -0.516  0.00  0.00    -0.059 A 
ATOM     13  C   UNL     1       5.136   1.651  -0.092  0.00  0.00    +0.002 A 
ATOM     14  C   UNL     1       6.189   2.429  -0.535  0.00  0.00    +0.000 A 
ENDBRANCH   8  12
BRANCH   8  15
ATOM     15  N   UNL     1       2.645   0.302  -0.003  0.00  0.00    +0.385 N 
ATOM     16  C   UNL     1       2.327   0.805  -1.363  0.00  0.00    -0.078 C 
ATOM     17  C   UNL     1       0.811   1.116  -1.282  0.00  0.00    -0.020 C 
ATOM     18  C   UNL     1       0.271  -0.028  -0.394  0.00  0.00    -0.020 C 
ATOM     19  C   UNL     1       1.492  -0.534   0.397  0.00  0.00    -0.078 C 
ATOM     20  H   UNL     1       2.754   1.073   0.638  0.00  0.00    -0.081 HD
ENDBRANCH   8  15
ENDBRANCH   7   8
ENDBRANCH   1   7
BRANCH   4  21
ATOM     21  C   UNL     1       7.453  -3.827   3.643  0.00  0.00    +0.124 C 
BRANCH  21  22
ATOM     22  C   UNL     1       8.632  -4.742   3.308  0.00  0.00    +0.121 C 
BRANCH  22  23
ATOM     23  N   UNL     1       9.194  -5.288   4.546  0.00  0.00    -0.327 N 
ATOM     24  C   UNL     1      10.276  -6.149   4.494  0.00  0.00    +0.136 A 
ATOM     25  C   UNL     1      10.809  -6.675   5.684  0.00  0.00    +0.091 A 
ATOM     26  C   UNL     1      11.903  -7.543   5.606  0.00  0.00    +0.024 A 
ATOM     27  C   UNL     1      12.414  -7.847   4.356  0.00  0.00    +0.021 A 
ATOM     28  C   UNL     1      11.836  -7.290   3.230  0.00  0.00    +0.113 A 
ATOM     29  N   UNL     1      10.801  -6.476   3.324  0.00  0.00    -0.239 NA
ATOM     30  H   UNL     1       8.807  -5.046   5.402  0.00  0.00    +0.148 HD
BRANCH  25  31
ATOM     31  C   UNL     1      10.242  -6.327   6.952  0.00  0.00    +0.103 C 
ATOM     32  N   UNL     1       9.793  -6.052   7.959  0.00  0.00    -0.191 NA
ENDBRANCH  25  31
ENDBRANCH  22  23
ENDBRANCH  21  22
ENDBRANCH   4  21
TORSDOF 8
