REMARK  Name = ZINC06813547
REMARK  5 active torsions:
REMARK  status: ('A' for Active; 'I' for Inactive)
REMARK    1  A    between atoms: C_3  and  O_28
REMARK    2  A    between atoms: C_6  and  C_7
REMARK    3  A    between atoms: N_8  and  N_9
REMARK    4  A    between atoms: C_10  and  C_12
REMARK    5  A    between atoms: C_14  and  C_18
REMARK                            x       y       z     vdW  Elec       q    Type
REMARK                         _______ _______ _______ _____ _____    ______ ____
ROOT
ATOM      1  C   UNL     1      -3.692  -4.883   0.013  0.00  0.00    +0.149 A 
ATOM      2  C   UNL     1      -3.831  -6.291   0.012  0.00  0.00    +0.058 A 
ATOM      3  C   UNL     1      -5.165  -6.523   0.022  0.00  0.00    +0.043 A 
ATOM      4  N   UNL     1      -5.780  -5.321   0.029  0.00  0.00    -0.280 N 
ATOM      5  H   UNL     1      -6.741  -5.190   0.036  0.00  0.00    +0.189 HD
ATOM      6  N   UNL     1      -4.909  -4.377   0.028  0.00  0.00    -0.169 NA
ENDROOT
BRANCH   3   7
ATOM      7  C   UNL     1      -5.838  -7.872   0.026  0.00  0.00    +0.013 C 
ATOM      8  C   UNL     1      -5.430  -8.649  -1.227  0.00  0.00    +0.016 C 
ATOM      9  C   UNL     1      -6.113 -10.018  -1.223  0.00  0.00    -0.010 C 
ATOM     10  C   UNL     1      -7.632  -9.830  -1.211  0.00  0.00    +0.007 C 
ATOM     11  C   UNL     1      -8.039  -9.053   0.043  0.00  0.00    -0.010 C 
ATOM     12  C   UNL     1      -7.356  -7.684   0.039  0.00  0.00    +0.016 C 
ATOM     13  C   UNL     1      -7.612  -9.833   1.288  0.00  0.00    +0.007 C 
ATOM     14  C   UNL     1      -6.093 -10.020   1.275  0.00  0.00    -0.010 C 
ATOM     15  C   UNL     1      -5.686 -10.797   0.022  0.00  0.00    +0.007 C 
ATOM     16  C   UNL     1      -5.410  -8.651   1.271  0.00  0.00    +0.016 C 
ENDBRANCH   3   7
BRANCH   1  18
ATOM     17  N   UNL     1      -2.446  -2.778   0.011  0.00  0.00    -0.202 N 
ATOM     18  C   UNL     1      -2.425  -4.125   0.004  0.00  0.00    +0.283 C 
ATOM     19  O   UNL     1      -1.363  -4.717  -0.010  0.00  0.00    -0.267 OA
ATOM     20  H   UNL     1      -3.293  -2.306   0.022  0.00  0.00    +0.178 HD
BRANCH  17  22
ATOM     21  C   UNL     1      -1.263  -0.761   0.011  0.00  0.00    +0.138 C 
ATOM     22  N   UNL     1      -1.243  -2.058   0.003  0.00  0.00    -0.187 NA
BRANCH  21  28
ATOM     23  C   UNL     1      -0.017   1.393   0.010  0.00  0.00    +0.013 A 
ATOM     24  C   UNL     1       1.168   2.096   0.002  0.00  0.00    +0.046 A 
ATOM     25  C   UNL     1       2.380   1.418  -0.013  0.00  0.00    +0.117 A 
ATOM     26  C   UNL     1       2.404   0.029  -0.022  0.00  0.00    +0.046 A 
ATOM     27  C   UNL     1       1.224  -0.682  -0.014  0.00  0.00    +0.013 A 
ATOM     28  C   UNL     1       0.002  -0.004   0.002  0.00  0.00    -0.005 A 
BRANCH  25  29
ATOM     29  O   UNL     1       3.546   2.115  -0.021  0.00  0.00    -0.507 OA
ATOM     30  H   UNL     1       3.893   2.313   0.860  0.00  0.00    +0.292 HD
ENDBRANCH  25  29
ENDBRANCH  21  28
ENDBRANCH  17  22
ENDBRANCH   1  18
TORSDOF 5
