REMARK  Name = ZINC40866428
REMARK  10 active torsions:
REMARK  status: ('A' for Active; 'I' for Inactive)
REMARK    1  A    between atoms: C_1  and  C_2
REMARK    2  A    between atoms: C_2  and  O_3
REMARK    3  A    between atoms: O_3  and  C_4
REMARK    4  A    between atoms: C_4  and  C_6
REMARK    5  A    between atoms: C_7  and  C_33
REMARK    6  A    between atoms: C_11  and  C_26
REMARK    7  A    between atoms: C_14  and  C_16
REMARK    8  A    between atoms: C_18  and  O_24
REMARK    9  A    between atoms: C_19  and  O_23
REMARK   10  A    between atoms: O_24  and  C_25
REMARK                            x       y       z     vdW  Elec       q    Type
REMARK                         _______ _______ _______ _____ _____    ______ ____
ROOT
ATOM      1  C   UNL     1       1.246  -2.359  -2.578  0.00  0.00    +0.082 C 
ATOM      2  C   UNL     1       1.598  -3.654  -2.557  0.00  0.00    +0.020 C 
ATOM      3  N   UNL     1       2.390  -4.213  -3.528  0.00  0.00    -0.287 N 
ATOM      4  C   UNL     1       2.610  -3.470  -4.680  0.00  0.00    +0.219 A 
ATOM      5  N   UNL     1       3.121  -3.830  -5.824  0.00  0.00    -0.193 NA
ATOM      6  C   UNL     1       3.136  -2.777  -6.660  0.00  0.00    +0.183 A 
ATOM      7  N   UNL     1       2.629  -1.731  -6.039  0.00  0.00    -0.147 NA
ATOM      8  N   UNL     1       2.285  -2.155  -4.756  0.00  0.00    -0.220 N 
ATOM      9  C   UNL     1       1.690  -1.405  -3.655  0.00  0.00    +0.179 C 
ATOM     10  C   UNL     1       1.105  -4.524  -1.429  0.00  0.00    +0.061 C 
ATOM     11  H   UNL     1       2.783  -5.093  -3.413  0.00  0.00    +0.155 HD
ENDROOT
BRANCH   9  12
ATOM     12  C   UNL     1       2.712  -0.452  -3.092  0.00  0.00    -0.014 A 
ATOM     13  C   UNL     1       2.463   0.908  -3.094  0.00  0.00    +0.055 A 
ATOM     14  C   UNL     1       3.402   1.786  -2.577  0.00  0.00    +0.163 A 
ATOM     15  C   UNL     1       4.595   1.296  -2.055  0.00  0.00    +0.173 A 
ATOM     16  C   UNL     1       4.839  -0.068  -2.056  0.00  0.00    +0.063 A 
ATOM     17  C   UNL     1       3.895  -0.940  -2.569  0.00  0.00    +0.025 A 
ATOM     18 BR   UNL     1       6.460  -0.739  -1.348  0.00  0.00    -0.046 Br
BRANCH  15  19
ATOM     19  O   UNL     1       5.520   2.154  -1.547  0.00  0.00    -0.503 OA
ATOM     20  H   UNL     1       5.412   2.335  -0.603  0.00  0.00    +0.292 HD
ENDBRANCH  15  19
BRANCH  14  21
ATOM     21  O   UNL     1       3.158   3.124  -2.579  0.00  0.00    -0.491 OA
ATOM     22  C   UNL     1       1.912   3.555  -3.131  0.00  0.00    +0.277 C 
ENDBRANCH  14  21
ENDBRANCH   9  12
BRANCH   6  23
ATOM     23  C   UNL     1       3.642  -2.791  -8.055  0.00  0.00    +0.021 A 
ATOM     24  C   UNL     1       3.609  -1.627  -8.822  0.00  0.00    +0.013 A 
ATOM     25  C   UNL     1       4.081  -1.645 -10.118  0.00  0.00    +0.021 A 
ATOM     26  C   UNL     1       4.585  -2.816 -10.658  0.00  0.00    +0.041 A 
ATOM     27  C   UNL     1       4.620  -3.974  -9.900  0.00  0.00    +0.021 A 
ATOM     28  C   UNL     1       4.156  -3.965  -8.601  0.00  0.00    +0.013 A 
ATOM     29 CL   UNL     1       5.176  -2.831 -12.290  0.00  0.00    -0.084 Cl
ENDBRANCH   6  23
BRANCH   1  30
ATOM     30  C   UNL     1       0.417  -1.869  -1.545  0.00  0.00    +0.339 C 
ATOM     31  O   UNL     1      -0.779  -1.744  -1.731  0.00  0.00    -0.245 OA
BRANCH  30  32
ATOM     32  O   UNL     1       0.952  -1.540  -0.350  0.00  0.00    -0.462 OA
BRANCH  32  34
ATOM     33  C   UNL     1       0.837  -0.733   1.925  0.00  0.00    +0.048 C 
ATOM     34  C   UNL     1       0.055  -1.052   0.650  0.00  0.00    +0.229 C 
ENDBRANCH  32  34
ENDBRANCH  30  32
ENDBRANCH   1  30
TORSDOF 7
