REMARK  Name = ZINC03235904
REMARK  8 active torsions:
REMARK  status: ('A' for Active; 'I' for Inactive)
REMARK    1  A    between atoms: C_1  and  C_2
REMARK    2  A    between atoms: C_5  and  S_8
REMARK    3  A    between atoms: S_8  and  N_11
REMARK    4  A    between atoms: C_12  and  C_14
REMARK    5  A    between atoms: C_16  and  C_36
REMARK    6  A    between atoms: N_17  and  C_20
REMARK    7  A    between atoms: C_18  and  C_19
REMARK    8  A    between atoms: C_23  and  C_26
REMARK                            x       y       z     vdW  Elec       q    Type
REMARK                         _______ _______ _______ _____ _____    ______ ____
ROOT
ATOM      1  C   UNL     1       2.225   4.482   3.787  0.00  0.00    +0.059 A 
ATOM      2  C   UNL     1       1.171   5.225   4.487  0.00  0.00    +0.036 A 
ATOM      3  C   UNL     1       1.609   5.415   5.744  0.00  0.00    +0.022 A 
ATOM      4  N   UNL     1       2.846   4.848   5.872  0.00  0.00    -0.317 N 
ATOM      5  C   UNL     1       3.222   4.280   4.702  0.00  0.00    +0.033 A 
ATOM      6  C   UNL     1       4.517   3.553   4.449  0.00  0.00    +0.064 C 
ATOM      7  C   UNL     1       0.857   6.135   6.834  0.00  0.00    +0.064 C 
ENDROOT
BRANCH   4   8
ATOM      8  C   UNL     1       3.611   4.851   7.045  0.00  0.00    +0.047 A 
ATOM      9  C   UNL     1       4.823   5.531   7.080  0.00  0.00    +0.027 A 
ATOM     10  C   UNL     1       5.576   5.540   8.235  0.00  0.00    +0.013 A 
ATOM     11  C   UNL     1       5.127   4.855   9.365  0.00  0.00    +0.019 A 
ATOM     12  C   UNL     1       3.912   4.168   9.324  0.00  0.00    +0.013 A 
ATOM     13  C   UNL     1       3.161   4.168   8.168  0.00  0.00    +0.027 A 
BRANCH  11  14
ATOM     14  C   UNL     1       5.935   4.857  10.603  0.00  0.00    +0.164 A 
ATOM     15  N   UNL     1       5.513   4.575  11.817  0.00  0.00    -0.129 NA
ATOM     16  N   UNL     1       6.489   4.668  12.650  0.00  0.00    -0.134 NA
ATOM     17  C   UNL     1       7.578   5.015  12.023  0.00  0.00    +0.134 A 
ATOM     18  N   UNL     1       7.263   5.157  10.707  0.00  0.00    -0.311 N 
ATOM     19  C   UNL     1       8.169   5.562   9.633  0.00  0.00    +0.125 C 
ATOM     20  C   UNL     1       9.598   5.147   9.992  0.00  0.00    +0.022 C 
ATOM     21  C   UNL     1      10.278   6.265  10.781  0.00  0.00    +0.002 C 
ATOM     22  C   UNL     1       9.534   6.529  12.086  0.00  0.00    +0.008 C 
ATOM     23  C   UNL     1       8.947   5.218  12.618  0.00  0.00    +0.076 C 
ENDBRANCH  11  14
ENDBRANCH   4   8
BRANCH   1  25
ATOM     24  N   UNL     1       1.146   4.309   1.602  0.00  0.00    -0.181 N 
ATOM     25  C   UNL     1       2.210   4.037   2.383  0.00  0.00    +0.265 C 
ATOM     26  O   UNL     1       3.157   3.425   1.929  0.00  0.00    -0.269 OA
ATOM     27  H   UNL     1       0.390   4.797   1.964  0.00  0.00    +0.177 HD
BRANCH  24  28
ATOM     28  S   UNL     1       1.129   3.809   0.023  0.00  0.00    +0.075 S 
ATOM     29  O   UNL     1       2.371   4.206  -0.542  0.00  0.00    -0.150 OA
ATOM     30  O   UNL     1      -0.120   4.217  -0.519  0.00  0.00    -0.150 OA
BRANCH  28  35
ATOM     31  C   UNL     1       1.102  -2.224   0.061  0.00  0.00    +0.044 C 
ATOM     32  C   UNL     1       1.108  -0.718   0.052  0.00  0.00    -0.050 A 
ATOM     33  C   UNL     1      -0.086  -0.021   0.059  0.00  0.00    +0.005 A 
ATOM     34  C   UNL     1      -0.079   1.361   0.051  0.00  0.00    +0.029 A 
ATOM     35  C   UNL     1       1.121   2.047   0.035  0.00  0.00    +0.109 A 
ATOM     36  C   UNL     1       2.315   1.351   0.027  0.00  0.00    +0.029 A 
ATOM     37  C   UNL     1       2.309  -0.032   0.036  0.00  0.00    +0.005 A 
ENDBRANCH  28  35
ENDBRANCH  24  28
ENDBRANCH   1  25
TORSDOF 5
