REMARK  Name = ZINC39412828
REMARK  10 active torsions:
REMARK  status: ('A' for Active; 'I' for Inactive)
REMARK    1  A    between atoms: C_1  and  C_2
REMARK    2  A    between atoms: C_2  and  C_3
REMARK    3  A    between atoms: C_3  and  C_5
REMARK    4  A    between atoms: C_3  and  O_33
REMARK    5  A    between atoms: C_5  and  N_6
REMARK    6  A    between atoms: C_7  and  C_9
REMARK    7  A    between atoms: C_11  and  C_32
REMARK    8  A    between atoms: N_20  and  C_21
REMARK    9  A    between atoms: C_21  and  C_22
REMARK   10  A    between atoms: C_22  and  C_23
REMARK                            x       y       z     vdW  Elec       q    Type
REMARK                         _______ _______ _______ _____ _____    ______ ____
ROOT
ATOM      1  C   UNL     1      -4.434  -4.387  -0.472  0.00  0.00    +0.146 C 
ATOM      2  C   UNL     1      -4.487  -5.736  -1.224  0.00  0.00    +0.044 C 
ATOM      3  C   UNL     1      -4.390  -6.905  -0.280  0.00  0.00    +0.028 A 
ATOM      4  C   UNL     1      -4.017  -8.225  -0.583  0.00  0.00    +0.126 A 
ATOM      5  N   UNL     1      -3.999  -9.141   0.377  0.00  0.00    -0.221 NA
ATOM      6  C   UNL     1      -4.326  -8.848   1.619  0.00  0.00    +0.224 A 
ATOM      7  N   UNL     1      -4.676  -7.621   1.957  0.00  0.00    -0.229 NA
ATOM      8  C   UNL     1      -4.708  -6.655   1.053  0.00  0.00    +0.106 A 
ATOM      9  S   UNL     1      -5.087  -4.920   1.165  0.00  0.00    -0.092 S 
ATOM     10  N   UNL     1      -3.668  -8.569  -1.880  0.00  0.00    -0.328 N 
ATOM     11  C   UNL     1      -5.806  -5.827  -1.993  0.00  0.00    +0.014 C 
ATOM     12  H   UNL     1      -3.682  -7.898  -2.581  0.00  0.00    +0.147 HD
ENDROOT
BRANCH   1  14
ATOM     13  N   UNL     1      -2.790  -2.554  -0.231  0.00  0.00    -0.312 N 
ATOM     14  C   UNL     1      -3.020  -3.876  -0.359  0.00  0.00    +0.227 C 
ATOM     15  O   UNL     1      -2.091  -4.654  -0.383  0.00  0.00    -0.275 OA
ATOM     16  H   UNL     1      -3.533  -1.932  -0.211  0.00  0.00    +0.149 HD
BRANCH  13  17
ATOM     17  C   UNL     1      -1.416  -2.058  -0.121  0.00  0.00    +0.135 C 
BRANCH  17  18
ATOM     18  C   UNL     1      -1.433  -0.534   0.013  0.00  0.00    +0.131 C 
BRANCH  18  20
ATOM     19  C   UNL     1      -0.019   1.526   0.010  0.00  0.00    +0.006 C 
ATOM     20  C   UNL     1       0.002  -0.004   0.002  0.00  0.00    +0.029 C 
ENDBRANCH  18  20
BRANCH  18  21
ATOM     21  O   UNL     1      -2.066  -0.171   1.242  0.00  0.00    -0.390 OA
ATOM     22  H   UNL     1      -1.626  -0.521   2.029  0.00  0.00    +0.210 HD
ENDBRANCH  18  21
ENDBRANCH  17  18
ENDBRANCH  13  17
ENDBRANCH   1  14
BRANCH  10  23
ATOM     23  C   UNL     1      -3.280  -9.947  -2.193  0.00  0.00    +0.107 C 
BRANCH  23  24
ATOM     24  C   UNL     1      -2.947 -10.057  -3.683  0.00  0.00    +0.056 C 
BRANCH  24  25
ATOM     25  C   UNL     1      -2.547 -11.474  -4.005  0.00  0.00    -0.021 A 
ATOM     26  C   UNL     1      -3.450 -12.583  -4.323  0.00  0.00    +0.003 A 
ATOM     27  C   UNL     1      -4.836 -12.706  -4.429  0.00  0.00    +0.010 A 
ATOM     28  C   UNL     1      -5.388 -13.914  -4.753  0.00  0.00    +0.001 A 
ATOM     29  C   UNL     1      -4.580 -15.020  -4.977  0.00  0.00    +0.002 A 
ATOM     30  C   UNL     1      -3.209 -14.921  -4.877  0.00  0.00    +0.026 A 
ATOM     31  C   UNL     1      -2.627 -13.701  -4.550  0.00  0.00    +0.047 A 
ATOM     32  N   UNL     1      -1.324 -13.288  -4.378  0.00  0.00    -0.360 N 
ATOM     33  C   UNL     1      -1.296 -11.958  -4.060  0.00  0.00    +0.087 A 
ATOM     34  H   UNL     1      -0.543 -13.855  -4.473  0.00  0.00    +0.165 HD
ENDBRANCH  24  25
ENDBRANCH  23  24
ENDBRANCH  10  23
TORSDOF 8
