REMARK  Name = ZINC20830376
REMARK  7 active torsions:
REMARK  status: ('A' for Active; 'I' for Inactive)
REMARK    1  A    between atoms: C_5  and  C_7
REMARK    2  A    between atoms: C_10  and  S_13
REMARK    3  A    between atoms: N_11  and  N_12
REMARK    4  A    between atoms: S_13  and  C_14
REMARK    5  A    between atoms: C_14  and  C_15
REMARK    6  A    between atoms: N_17  and  N_18
REMARK    7  A    between atoms: C_19  and  C_21
REMARK                            x       y       z     vdW  Elec       q    Type
REMARK                         _______ _______ _______ _____ _____    ______ ____
ROOT
ATOM      1  C   UNL     1       0.119  -0.840   1.089  0.00  0.00    +0.183 A 
ATOM      2  N   UNL     1       0.143  -2.069   0.627  0.00  0.00    -0.127 NA
ATOM      3  N   UNL     1       0.001  -2.061  -0.650  0.00  0.00    -0.121 NA
ATOM      4  C   UNL     1      -0.128  -0.826  -1.082  0.00  0.00    +0.209 A 
ATOM      5  N   UNL     1      -0.051  -0.006   0.007  0.00  0.00    -0.224 N 
ENDROOT
BRANCH   1  10
ATOM      6  C   UNL     1      -0.512   0.876   4.369  0.00  0.00    +0.001 A 
ATOM      7  C   UNL     1       0.495   0.339   5.152  0.00  0.00    +0.001 A 
ATOM      8  C   UNL     1       1.381  -0.579   4.618  0.00  0.00    +0.016 A 
ATOM      9  C   UNL     1       1.261  -0.971   3.300  0.00  0.00    +0.029 A 
ATOM     10  C   UNL     1       0.250  -0.429   2.503  0.00  0.00    +0.035 A 
ATOM     11  C   UNL     1      -0.639   0.497   3.049  0.00  0.00    +0.013 A 
ATOM     12 BR   UNL     1       2.467  -2.233   2.572  0.00  0.00    -0.050 Br
ENDBRANCH   1  10
BRANCH   5  13
ATOM     13  N   UNL     1      -0.133   1.357   0.022  0.00  0.00    -0.295 N 
ATOM     14  H   UNL     1      -0.271   1.910  -0.919  0.00  0.00    +0.163 HD
ATOM     15  H   UNL     1      -0.061   1.903   0.974  0.00  0.00    +0.163 HD
ENDBRANCH   5  13
BRANCH   4  16
ATOM     16  S   UNL     1      -0.353  -0.323  -2.755  0.00  0.00    -0.075 S 
BRANCH  16  17
ATOM     17  C   UNL     1      -0.349  -1.938  -3.573  0.00  0.00    +0.174 C 
BRANCH  17  18
ATOM     18  C   UNL     1      -0.533  -1.750  -5.057  0.00  0.00    +0.239 C 
ATOM     19  O   UNL     1      -0.655  -0.634  -5.516  0.00  0.00    -0.273 OA
ATOM     20  N   UNL     1      -0.563  -2.822  -5.873  0.00  0.00    -0.233 N 
ATOM     21  H   UNL     1      -0.453  -3.834  -5.456  0.00  0.00    +0.173 HD
BRANCH  20  22
ATOM     22  N   UNL     1      -0.734  -2.648  -7.252  0.00  0.00    -0.227 N 
ATOM     23  C   UNL     1      -0.763  -3.720  -8.069  0.00  0.00    +0.333 C 
ATOM     24  O   UNL     1      -0.642  -4.836  -7.609  0.00  0.00    -0.264 OA
ATOM     25  H   UNL     1      -0.844  -1.636  -7.669  0.00  0.00    +0.173 HD
BRANCH  23  26
ATOM     26  C   UNL     1      -0.947  -3.532  -9.553  0.00  0.00    +0.471 C 
ATOM     27  F   UNL     1      -0.944  -4.781 -10.184  0.00  0.00    -0.162 F 
ATOM     28  F   UNL     1      -2.167  -2.890  -9.794  0.00  0.00    -0.162 F 
ATOM     29  F   UNL     1       0.099  -2.752 -10.057  0.00  0.00    -0.162 F 
ENDBRANCH  23  26
ENDBRANCH  20  22
ENDBRANCH  17  18
ENDBRANCH  16  17
ENDBRANCH   4  16
TORSDOF 7
