REMARK  Name = ZINC20079915
REMARK  9 active torsions:
REMARK  status: ('A' for Active; 'I' for Inactive)
REMARK    1  A    between atoms: C_1  and  C_2
REMARK    2  A    between atoms: C_2  and  N_3
REMARK    3  A    between atoms: N_6  and  C_9
REMARK    4  A    between atoms: C_9  and  C_11
REMARK    5  A    between atoms: C_9  and  C_25
REMARK    6  A    between atoms: C_15  and  C_24
REMARK    7  A    between atoms: C_16  and  C_23
REMARK    8  A    between atoms: N_29  and  C_30
REMARK    9  A    between atoms: C_30  and  C_31
REMARK                            x       y       z     vdW  Elec       q    Type
REMARK                         _______ _______ _______ _____ _____    ______ ____
ROOT
ATOM      1  C   UNL     1      -0.409   1.571  -0.125  0.00  0.00    +0.162 C 
ENDROOT
BRANCH   1   2
ATOM      2  C   UNL     1       0.951   2.184  -0.344  0.00  0.00    +0.042 A 
ATOM      3  C   UNL     1       1.547   2.879   0.655  0.00  0.00    +0.021 A 
ATOM      4  C   UNL     1       2.870   3.457   0.412  0.00  0.00    -0.001 A 
ATOM      5  C   UNL     1       3.538   4.180   1.406  0.00  0.00    +0.013 A 
ATOM      6  C   UNL     1       4.769   4.711   1.146  0.00  0.00    -0.047 A 
ATOM      7  C   UNL     1       5.364   4.540  -0.096  0.00  0.00    -0.046 A 
ATOM      8  C   UNL     1       4.725   3.832  -1.091  0.00  0.00    +0.030 A 
ATOM      9  C   UNL     1       3.470   3.282  -0.849  0.00  0.00    +0.049 A 
ATOM     10  N   UNL     1       2.808   2.569  -1.825  0.00  0.00    -0.322 N 
ATOM     11  H   UNL     1       3.271   2.428  -2.813  0.00  0.00    +0.169 HD
ATOM     12  C   UNL     1       1.595   2.037  -1.591  0.00  0.00    +0.254 A 
ATOM     13  O   UNL     1       1.039   1.411  -2.477  0.00  0.00    -0.268 OA
ATOM     14  C   UNL     1       6.724   5.134  -0.360  0.00  0.00    +0.044 C 
ATOM     15  C   UNL     1       5.488   5.489   2.218  0.00  0.00    +0.044 C 
ENDBRANCH   1   2
BRANCH   1  19
ATOM     16  N   UNL     1      -3.658   3.410  -2.102  0.00  0.00    +0.381 N 
ATOM     17  C   UNL     1      -3.586   1.942  -2.113  0.00  0.00    -0.063 C 
ATOM     18  C   UNL     1      -2.672   1.470  -0.980  0.00  0.00    +0.067 C 
ATOM     19  N   UNL     1      -1.338   2.061  -1.152  0.00  0.00    -0.292 NA
ATOM     20  C   UNL     1      -1.410   3.528  -1.141  0.00  0.00    +0.067 C 
ATOM     21  C   UNL     1      -2.324   4.001  -2.274  0.00  0.00    -0.063 C 
ATOM     22  H   UNL     1      -4.045   3.723  -1.121  0.00  0.00    -0.082 HD
BRANCH  16  24
ATOM     23  C   UNL     1      -4.451   5.418  -3.257  0.00  0.00    -0.017 C 
ATOM     24  C   UNL     1      -4.587   3.899  -3.129  0.00  0.00    -0.082 C 
ENDBRANCH  16  24
ENDBRANCH   1  19
BRANCH   1  25
ATOM     25  C   UNL     1      -0.919   1.957   1.239  0.00  0.00    +0.173 A 
ATOM     26  N   UNL     1      -1.321   3.146   1.617  0.00  0.00    -0.111 NA
ATOM     27  N   UNL     1      -1.684   3.070   2.851  0.00  0.00    -0.023 NA
ATOM     28  N   UNL     1      -1.516   1.865   3.273  0.00  0.00    -0.044 NA
ATOM     29  N   UNL     1      -1.046   1.148   2.308  0.00  0.00    -0.223 N 
BRANCH  29  30
ATOM     30  C   UNL     1      -0.713  -0.277   2.365  0.00  0.00    +0.182 C 
BRANCH  30  31
ATOM     31  C   UNL     1       0.695  -0.444   2.877  0.00  0.00    -0.026 A 
ATOM     32  C   UNL     1       1.746  -0.553   1.985  0.00  0.00    +0.008 A 
ATOM     33  C   UNL     1       3.038  -0.701   2.453  0.00  0.00    +0.038 A 
ATOM     34  C   UNL     1       3.279  -0.750   3.816  0.00  0.00    +0.123 A 
ATOM     35  C   UNL     1       2.225  -0.645   4.708  0.00  0.00    +0.038 A 
ATOM     36  C   UNL     1       0.934  -0.492   4.238  0.00  0.00    +0.008 A 
ATOM     37  F   UNL     1       4.540  -0.899   4.274  0.00  0.00    -0.205 F 
ENDBRANCH  30  31
ENDBRANCH  29  30
ENDBRANCH   1  25
TORSDOF 6
