REMARK  Name = ZINC05486486
REMARK  7 active torsions:
REMARK  status: ('A' for Active; 'I' for Inactive)
REMARK    1  A    between atoms: C_4  and  O_33
REMARK    2  A    between atoms: C_5  and  C_7
REMARK    3  A    between atoms: N_9  and  N_10
REMARK    4  A    between atoms: N_10  and  C_11
REMARK    5  A    between atoms: N_10  and  C_22
REMARK    6  A    between atoms: C_11  and  N_12
REMARK    7  A    between atoms: C_22  and  N_23
REMARK                            x       y       z     vdW  Elec       q    Type
REMARK                         _______ _______ _______ _____ _____    ______ ____
ROOT
ATOM      1  N   UNL     1       0.049  -0.009   4.846  0.00  0.00    -0.187 NA
ENDROOT
BRANCH   1   4
ATOM      2  C   UNL     1       0.026   0.009   2.496  0.00  0.00    +0.261 C 
ATOM      3  O   UNL     1       0.010   1.224   2.510  0.00  0.00    -0.269 OA
ATOM      4  N   UNL     1       0.046  -0.678   3.655  0.00  0.00    -0.241 N 
ATOM      5  H   UNL     1       0.059  -1.648   3.644  0.00  0.00    +0.170 HD
BRANCH   2  10
ATOM      6  C   UNL     1       0.040  -2.780  -0.015  0.00  0.00    +0.001 A 
ATOM      7  C   UNL     1       0.019  -2.075  -1.207  0.00  0.00    +0.004 A 
ATOM      8  C   UNL     1      -0.006  -0.694  -1.201  0.00  0.00    +0.046 A 
ATOM      9  C   UNL     1       0.002  -0.004   0.002  0.00  0.00    +0.129 A 
ATOM     10  C   UNL     1       0.023  -0.714   1.210  0.00  0.00    +0.079 A 
ATOM     11  C   UNL     1       0.042  -2.111   1.189  0.00  0.00    +0.017 A 
BRANCH   9  12
ATOM     12  O   UNL     1      -0.016   1.352   0.009  0.00  0.00    -0.506 OA
ATOM     13  H   UNL     1       0.862   1.758   0.003  0.00  0.00    +0.292 HD
ENDBRANCH   9  12
ENDBRANCH   2  10
ENDBRANCH   1   4
BRANCH   1  14
ATOM     14  C   UNL     1      -1.172  -0.292   5.612  0.00  0.00    +0.231 C 
BRANCH  14  15
ATOM     15  N   UNL     1      -2.334   0.237   4.892  0.00  0.00    -0.313 N 
ATOM     16  C   UNL     1      -2.996  -0.564   3.978  0.00  0.00    +0.058 A 
ATOM     17  C   UNL     1      -2.696  -1.889   3.621  0.00  0.00    +0.027 A 
ATOM     18  C   UNL     1      -3.454  -2.557   2.689  0.00  0.00    +0.002 A 
ATOM     19  C   UNL     1      -4.534  -1.950   2.072  0.00  0.00    +0.001 A 
ATOM     20  C   UNL     1      -4.854  -0.645   2.405  0.00  0.00    +0.017 A 
ATOM     21  C   UNL     1      -4.096   0.023   3.336  0.00  0.00    +0.038 A 
ATOM     22  S   UNL     1      -4.150   1.655   4.037  0.00  0.00    -0.062 S 
ATOM     23  C   UNL     1      -2.749   1.496   5.132  0.00  0.00    +0.128 A 
ATOM     24  S   UNL     1      -2.096   2.654   6.211  0.00  0.00    -0.025 S 
ENDBRANCH  14  15
ENDBRANCH   1  14
BRANCH   1  25
ATOM     25  C   UNL     1       1.249  -0.333   5.629  0.00  0.00    +0.231 C 
BRANCH  25  26
ATOM     26  N   UNL     1       2.437   0.157   4.927  0.00  0.00    -0.313 N 
ATOM     27  C   UNL     1       2.900   1.438   5.175  0.00  0.00    +0.058 A 
ATOM     28  C   UNL     1       2.362   2.390   6.056  0.00  0.00    +0.027 A 
ATOM     29  C   UNL     1       2.940   3.630   6.195  0.00  0.00    +0.002 A 
ATOM     30  C   UNL     1       4.069   3.981   5.474  0.00  0.00    +0.001 A 
ATOM     31  C   UNL     1       4.621   3.062   4.598  0.00  0.00    +0.017 A 
ATOM     32  C   UNL     1       4.043   1.824   4.459  0.00  0.00    +0.038 A 
ATOM     33  S   UNL     1       4.412   0.388   3.481  0.00  0.00    -0.062 S 
ATOM     34  C   UNL     1       3.072  -0.646   4.050  0.00  0.00    +0.128 A 
ATOM     35  S   UNL     1       2.688  -2.251   3.595  0.00  0.00    -0.025 S 
ENDBRANCH  25  26
ENDBRANCH   1  25
TORSDOF 7
