REMARK  Name = ZINC20732878
REMARK  5 active torsions:
REMARK  status: ('A' for Active; 'I' for Inactive)
REMARK    1  A    between atoms: C_1  and  O_2
REMARK    2  A    between atoms: O_2  and  C_3
REMARK    3  A    between atoms: C_3  and  C_5
REMARK    4  A    between atoms: C_5  and  N_6
REMARK    5  A    between atoms: C_18  and  C_20
REMARK                            x       y       z     vdW  Elec       q    Type
REMARK                         _______ _______ _______ _____ _____    ______ ____
ROOT
ATOM      1  N   UNL     1      -2.061  -4.531   0.025  0.00  0.00    -0.289 N 
ATOM      2  C   UNL     1      -3.139  -3.723  -0.028  0.00  0.00    +0.303 C 
ATOM      3  O   UNL     1      -2.998  -2.517   0.023  0.00  0.00    -0.253 OA
ATOM      4  N   UNL     1      -4.373  -4.253  -0.137  0.00  0.00    -0.273 N 
ATOM      5  C   UNL     1      -5.551  -3.390  -0.314  0.00  0.00    +0.116 C 
ATOM      6  C   UNL     1      -6.180  -3.671  -1.685  0.00  0.00    +0.076 C 
ATOM      7  C   UNL     1      -6.261  -5.164  -1.887  0.00  0.00    +0.066 A 
ATOM      8  C   UNL     1      -5.549  -6.068  -1.181  0.00  0.00    +0.064 A 
ATOM      9  N   UNL     1      -5.885  -7.301  -1.649  0.00  0.00    -0.346 N 
ATOM     10  H   UNL     1      -5.536  -8.151  -1.339  0.00  0.00    +0.167 HD
ATOM     11  C   UNL     1      -6.800  -7.115  -2.628  0.00  0.00    +0.197 A 
ATOM     12  N   UNL     1      -7.018  -5.832  -2.762  0.00  0.00    -0.240 NA
ATOM     13  C   UNL     1      -4.577  -5.712  -0.089  0.00  0.00    +0.159 C 
ATOM     14  H   UNL     1      -2.178  -5.493   0.059  0.00  0.00    +0.151 HD
ENDROOT
BRANCH  13  15
ATOM     15  C   UNL     1      -5.148  -6.106   1.249  0.00  0.00    +0.017 A 
ATOM     16  C   UNL     1      -6.491  -6.416   1.363  0.00  0.00    +0.009 A 
ATOM     17  C   UNL     1      -7.016  -6.778   2.589  0.00  0.00    +0.003 A 
ATOM     18  C   UNL     1      -6.200  -6.831   3.704  0.00  0.00    +0.041 A 
ATOM     19  C   UNL     1      -4.856  -6.522   3.593  0.00  0.00    +0.159 A 
ATOM     20  C   UNL     1      -4.328  -6.164   2.362  0.00  0.00    +0.164 A 
ATOM     21  F   UNL     1      -3.015  -5.867   2.250  0.00  0.00    -0.202 F 
ATOM     22  F   UNL     1      -4.058  -6.573   4.682  0.00  0.00    -0.202 F 
ENDBRANCH  13  15
BRANCH   1  23
ATOM     23  C   UNL     1      -0.714  -3.955   0.032  0.00  0.00    +0.226 C 
BRANCH  23  24
ATOM     24  C   UNL     1       0.305  -5.063   0.095  0.00  0.00    +0.324 C 
ATOM     25  O   UNL     1      -0.057  -6.215   0.131  0.00  0.00    -0.249 OA
BRANCH  24  27
ATOM     26  C   UNL     1       2.525  -5.870   0.172  0.00  0.00    +0.280 C 
ATOM     27  O   UNL     1       1.615  -4.770   0.112  0.00  0.00    -0.467 OA
ENDBRANCH  24  27
ENDBRANCH  23  24
ENDBRANCH   1  23
TORSDOF 4
