REMARK  Name = ZINC22413107
REMARK  8 active torsions:
REMARK  status: ('A' for Active; 'I' for Inactive)
REMARK    1  A    between atoms: C_1  and  C_2
REMARK    2  A    between atoms: C_3  and  C_33
REMARK    3  A    between atoms: N_9  and  C_12
REMARK    4  A    between atoms: C_12  and  C_13
REMARK    5  A    between atoms: C_13  and  C_14
REMARK    6  A    between atoms: C_14  and  N_16
REMARK    7  A    between atoms: N_23  and  C_26
REMARK    8  A    between atoms: C_26  and  C_27
REMARK                            x       y       z     vdW  Elec       q    Type
REMARK                         _______ _______ _______ _____ _____    ______ ____
ROOT
ATOM      1  N   UNL     1      -2.525   0.209   7.540  0.00  0.00    -0.157 NA
ATOM      2  C   UNL     1      -2.520   0.655   8.798  0.00  0.00    +0.163 A 
ATOM      3  N   UNL     1      -1.452   0.958   9.582  0.00  0.00    -0.339 N 
ATOM      4  C   UNL     1      -1.656   1.406  10.858  0.00  0.00    +0.024 A 
ATOM      5  C   UNL     1      -2.942   1.508  11.231  0.00  0.00    -0.004 A 
ATOM      6  S   UNL     1      -3.835   0.987   9.795  0.00  0.00    -0.059 S 
ATOM      7  C   UNL     1      -3.456   1.962  12.557  0.00  0.00    -0.033 C 
ATOM      8  N   UNL     1      -2.341   1.928  13.523  0.00  0.00    +0.386 N 
ATOM      9  C   UNL     1      -1.180   2.625  12.955  0.00  0.00    -0.072 C 
ATOM     10  C   UNL     1      -0.553   1.784  11.838  0.00  0.00    +0.035 C 
ATOM     11  H   UNL     1      -0.550   0.856   9.240  0.00  0.00    +0.167 HD
ATOM     12  H   UNL     1      -2.096   0.970  13.720  0.00  0.00    -0.081 HD
ENDROOT
BRANCH   1  13
ATOM     13  C   UNL     1      -1.379   0.003   6.905  0.00  0.00    +0.240 C 
ATOM     14  O   UNL     1      -0.323   0.221   7.469  0.00  0.00    -0.274 OA
BRANCH  13  15
ATOM     15  C   UNL     1      -1.384  -0.501   5.485  0.00  0.00    +0.119 C 
BRANCH  15  16
ATOM     16  C   UNL     1       0.056  -0.652   4.991  0.00  0.00    +0.135 C 
BRANCH  16  25
ATOM     17  C   UNL     1      -0.018   1.503   0.010  0.00  0.00    +0.045 C 
ATOM     18  C   UNL     1       0.002  -0.004   0.002  0.00  0.00    -0.026 A 
ATOM     19  C   UNL     1       0.006  -0.677  -1.160  0.00  0.00    -0.008 A 
ATOM     20  S   UNL     1       0.032  -2.385  -0.648  0.00  0.00    -0.073 S 
ATOM     21  C   UNL     1       0.037  -2.144   1.110  0.00  0.00    +0.116 A 
ATOM     22  C   UNL     1       0.024  -0.745   1.250  0.00  0.00    +0.075 A 
ATOM     23  C   UNL     1       0.029  -0.257   2.597  0.00  0.00    +0.262 A 
ATOM     24  O   UNL     1       0.014   0.942   2.821  0.00  0.00    -0.267 OA
ATOM     25  N   UNL     1       0.051  -1.142   3.611  0.00  0.00    -0.298 N 
ATOM     26  C   UNL     1       0.068  -2.480   3.380  0.00  0.00    +0.203 A 
ATOM     27  N   UNL     1       0.053  -2.956   2.163  0.00  0.00    -0.230 NA
ATOM     28  C   UNL     1      -0.009  -0.122  -2.561  0.00  0.00    +0.052 C 
ENDBRANCH  16  25
ENDBRANCH  15  16
ENDBRANCH  13  15
ENDBRANCH   1  13
BRANCH   8  29
ATOM     29  C   UNL     1      -2.751   2.594  14.767  0.00  0.00    -0.043 C 
BRANCH  29  30
ATOM     30  C   UNL     1      -3.863   1.809  15.414  0.00  0.00    -0.064 A 
ATOM     31  C   UNL     1      -5.180   2.087  15.098  0.00  0.00    +0.002 A 
ATOM     32  C   UNL     1      -6.200   1.367  15.691  0.00  0.00    +0.000 A 
ATOM     33  C   UNL     1      -5.904   0.369  16.601  0.00  0.00    +0.000 A 
ATOM     34  C   UNL     1      -4.587   0.091  16.916  0.00  0.00    +0.000 A 
ATOM     35  C   UNL     1      -3.567   0.808  16.320  0.00  0.00    +0.002 A 
ENDBRANCH  29  30
ENDBRANCH   8  29
TORSDOF 6
