REMARK  Name = ZINC12411610
REMARK  12 active torsions:
REMARK  status: ('A' for Active; 'I' for Inactive)
REMARK    1  A    between atoms: C_1  and  C_2
REMARK    2  A    between atoms: C_2  and  N_61
REMARK    3  A    between atoms: C_3  and  C_4
REMARK    4  A    between atoms: C_3  and  N_61
REMARK    5  A    between atoms: C_5  and  C_6
REMARK    6  A    between atoms: C_5  and  N_61
REMARK    7  A    between atoms: C_6  and  C_7
REMARK    8  A    between atoms: C_7  and  C_8
REMARK    9  A    between atoms: C_8  and  C_10
REMARK   10  A    between atoms: C_8  and  N_11
REMARK   11  A    between atoms: C_20  and  C_22
REMARK   12  A    between atoms: C_23  and  C_24
REMARK                            x       y       z     vdW  Elec       q    Type
REMARK                         _______ _______ _______ _____ _____    ______ ____
ROOT
ATOM      1  N   UNL     1       3.803   0.059   0.351  0.00  0.00    -0.326 N 
ATOM      2  C   UNL     1       3.732   1.433   0.442  0.00  0.00    +0.131 A 
ATOM      3  C   UNL     1       2.520   2.117   0.167  0.00  0.00    +0.040 A 
ATOM      4  C   UNL     1       1.355   1.438  -0.205  0.00  0.00    +0.015 A 
ATOM      5  C   UNL     1       0.218   2.146  -0.464  0.00  0.00    +0.021 A 
ATOM      6  C   UNL     1       0.198   3.534  -0.351  0.00  0.00    +0.043 A 
ATOM      7  C   UNL     1       1.318   4.226   0.010  0.00  0.00    +0.048 A 
ATOM      8  C   UNL     1       2.505   3.530   0.278  0.00  0.00    +0.078 A 
ATOM      9  N   UNL     1       3.630   4.162   0.635  0.00  0.00    -0.228 NA
ATOM     10  C   UNL     1       4.735   3.476   0.881  0.00  0.00    +0.155 A 
ATOM     11  N   UNL     1       4.792   2.145   0.788  0.00  0.00    -0.213 NA
ATOM     12 CL   UNL     1      -1.271   4.399  -0.683  0.00  0.00    -0.083 Cl
ATOM     13  H   UNL     1       3.019  -0.452   0.096  0.00  0.00    +0.148 HD
ENDROOT
BRANCH   1  14
ATOM     14  C   UNL     1       5.064  -0.630   0.638  0.00  0.00    +0.069 C 
ATOM     15  C   UNL     1       5.934  -0.647  -0.620  0.00  0.00    +0.028 C 
BRANCH  14  16
ATOM     16  C   UNL     1       4.772  -2.066   1.077  0.00  0.00    +0.020 C 
BRANCH  16  17
ATOM     17  C   UNL     1       4.009  -2.050   2.402  0.00  0.00    -0.017 C 
BRANCH  17  18
ATOM     18  C   UNL     1       3.717  -3.486   2.841  0.00  0.00    -0.079 C 
BRANCH  18  19
ATOM     19  N   UNL     1       2.998  -3.454   4.132  0.00  0.00    +0.379 N 
ATOM     20  H   UNL     1       3.523  -2.867   4.791  0.00  0.00    -0.082 HD
BRANCH  19  22
ATOM     21  C   UNL     1       0.844  -3.713   2.948  0.00  0.00    -0.017 C 
ATOM     22  C   UNL     1       1.650  -2.879   3.945  0.00  0.00    -0.082 C 
ENDBRANCH  19  22
BRANCH  19  23
ATOM     23  C   UNL     1       2.892  -4.821   4.685  0.00  0.00    -0.082 C 
ATOM     24  C   UNL     1       2.486  -4.725   6.157  0.00  0.00    -0.017 C 
ENDBRANCH  19  23
ENDBRANCH  18  19
ENDBRANCH  17  18
ENDBRANCH  16  17
ENDBRANCH  14  16
ENDBRANCH   1  14
BRANCH  10  25
ATOM     25  C   UNL     1       5.949   4.209   1.272  0.00  0.00    +0.049 C 
ATOM     26  C   UNL     1       5.922   5.549   1.373  0.00  0.00    +0.011 C 
BRANCH  26  27
ATOM     27  C   UNL     1       7.138   6.283   1.764  0.00  0.00    -0.023 A 
ATOM     28  C   UNL     1       7.113   7.677   1.870  0.00  0.00    +0.009 A 
ATOM     29  C   UNL     1       8.254   8.358   2.237  0.00  0.00    +0.022 A 
ATOM     30  C   UNL     1       9.424   7.665   2.501  0.00  0.00    +0.059 A 
ATOM     31  C   UNL     1       9.456   6.284   2.397  0.00  0.00    +0.060 A 
ATOM     32  C   UNL     1       8.320   5.589   2.037  0.00  0.00    +0.029 A 
ATOM     33 CL   UNL     1      10.928   5.425   2.728  0.00  0.00    -0.082 Cl
ATOM     34 CL   UNL     1      10.856   8.532   2.962  0.00  0.00    -0.082 Cl
ENDBRANCH  26  27
ENDBRANCH  10  25
TORSDOF 9
