REMARK  Name = ZINC05271394
REMARK  6 active torsions:
REMARK  status: ('A' for Active; 'I' for Inactive)
REMARK    1  A    between atoms: C_1  and  O_2
REMARK    2  A    between atoms: O_2  and  C_3
REMARK    3  A    between atoms: C_7  and  C_11
REMARK    4  A    between atoms: C_8  and  O_9
REMARK    5  A    between atoms: O_9  and  C_10
REMARK    6  A    between atoms: N_13  and  N_14
REMARK                            x       y       z     vdW  Elec       q    Type
REMARK                         _______ _______ _______ _____ _____    ______ ____
ROOT
ATOM      1  C   UNL     1      -2.054  -5.756  -0.009  0.00  0.00    +0.264 C 
ATOM      2  O   UNL     1      -1.159  -6.579  -0.022  0.00  0.00    -0.269 OA
ATOM      3  N   UNL     1      -1.760  -4.441  -0.005  0.00  0.00    -0.231 N 
ATOM      4  H   UNL     1      -2.474  -3.785   0.005  0.00  0.00    +0.173 HD
ENDROOT
BRANCH   3   5
ATOM      5  N   UNL     1      -0.424  -4.022  -0.015  0.00  0.00    -0.242 N 
ATOM      6  C   UNL     1      -0.123  -2.675  -0.011  0.00  0.00    +0.176 A 
ATOM      7  N   UNL     1       1.055  -2.094  -0.019  0.00  0.00    -0.223 NA
ATOM      8  C   UNL     1       1.202  -0.751  -0.013  0.00  0.00    +0.094 A 
ATOM      9  C   UNL     1       0.002  -0.004   0.002  0.00  0.00    +0.042 A 
ATOM     10  S   UNL     1      -1.237  -1.278   0.007  0.00  0.00    -0.051 S 
ATOM     11  C   UNL     1      -0.017   1.368   0.010  0.00  0.00    +0.017 A 
ATOM     12  C   UNL     1       1.177   2.067   0.002  0.00  0.00    +0.002 A 
ATOM     13  C   UNL     1       2.374   1.368  -0.012  0.00  0.00    +0.017 A 
ATOM     14  C   UNL     1       2.402  -0.004  -0.021  0.00  0.00    +0.044 A 
ATOM     15 BR   UNL     1       4.065  -0.905  -0.041  0.00  0.00    -0.048 Br
ATOM     16  H   UNL     1       0.290  -4.679  -0.026  0.00  0.00    +0.172 HD
ENDBRANCH   3   5
BRANCH   1  21
ATOM     17  C   UNL     1      -5.103  -7.968   0.007  0.00  0.00    +0.162 A 
ATOM     18  C   UNL     1      -6.114  -7.021   0.022  0.00  0.00    +0.049 A 
ATOM     19  C   UNL     1      -5.808  -5.671   0.027  0.00  0.00    +0.005 A 
ATOM     20  C   UNL     1      -4.494  -5.255   0.017  0.00  0.00    +0.017 A 
ATOM     21  C   UNL     1      -3.462  -6.198   0.002  0.00  0.00    +0.083 A 
ATOM     22  C   UNL     1      -3.772  -7.563  -0.008  0.00  0.00    +0.174 A 
BRANCH  17  24
ATOM     23  C   UNL     1      -6.799  -9.636   0.013  0.00  0.00    +0.277 C 
ATOM     24  O   UNL     1      -5.411  -9.292   0.002  0.00  0.00    -0.491 OA
ENDBRANCH  17  24
BRANCH  22  25
ATOM     25  O   UNL     1      -2.778  -8.488  -0.029  0.00  0.00    -0.491 OA
ATOM     26  C   UNL     1      -2.289  -8.942   1.235  0.00  0.00    +0.277 C 
ENDBRANCH  22  25
ENDBRANCH   1  21
TORSDOF 4
