REMARK  Name = ZINC42685477
REMARK  8 active torsions:
REMARK  status: ('A' for Active; 'I' for Inactive)
REMARK    1  A    between atoms: C_1  and  C_2
REMARK    2  A    between atoms: C_2  and  C_3
REMARK    3  A    between atoms: C_3  and  N_4
REMARK    4  A    between atoms: C_5  and  C_7
REMARK    5  A    between atoms: N_10  and  C_13
REMARK    6  A    between atoms: C_13  and  C_15
REMARK    7  A    between atoms: C_13  and  C_16
REMARK    8  A    between atoms: N_18  and  C_19
REMARK                            x       y       z     vdW  Elec       q    Type
REMARK                         _______ _______ _______ _____ _____    ______ ____
ROOT
ATOM      1  C   UNL     1      -1.038  -5.502   1.025  0.00  0.00    +0.071 C 
ATOM      2  C   UNL     1      -0.433  -6.035  -0.277  0.00  0.00    -0.006 C 
ATOM      3  C   UNL     1      -1.199  -7.286  -0.714  0.00  0.00    -0.077 C 
ATOM      4  N   UNL     1      -2.611  -6.949  -0.930  0.00  0.00    +0.387 N 
ATOM      5  C   UNL     1      -3.216  -6.505   0.331  0.00  0.00    -0.077 C 
ATOM      6  C   UNL     1      -2.528  -5.224   0.808  0.00  0.00    -0.006 C 
ATOM      7  H   UNL     1      -2.679  -6.209  -1.613  0.00  0.00    -0.081 HD
ENDROOT
BRANCH   1   9
ATOM      8  N   UNL     1       0.986  -4.231   1.663  0.00  0.00    -0.315 N 
ATOM      9  C   UNL     1      -0.339  -4.226   1.420  0.00  0.00    +0.216 C 
ATOM     10  O   UNL     1      -0.970  -3.195   1.518  0.00  0.00    -0.276 OA
ATOM     11  H   UNL     1       1.491  -5.056   1.584  0.00  0.00    +0.149 HD
BRANCH   8  12
ATOM     12  C   UNL     1       1.665  -2.991   2.047  0.00  0.00    +0.104 C 
BRANCH  12  14
ATOM     13  C   UNL     1       3.863  -1.975   2.663  0.00  0.00    +0.005 C 
ATOM     14  C   UNL     1       3.154  -3.270   2.263  0.00  0.00    +0.015 C 
ENDBRANCH  12  14
ENDBRANCH   8  12
ENDBRANCH   1   9
BRANCH   4  15
ATOM     15  C   UNL     1      -3.325  -8.133  -1.424  0.00  0.00    +0.016 C 
ATOM     16  C   UNL     1      -4.810  -7.802  -1.588  0.00  0.00    -0.004 C 
BRANCH  15  17
ATOM     17  C   UNL     1      -2.753  -8.546  -2.756  0.00  0.00    +0.203 C 
ATOM     18  O   UNL     1      -2.243  -7.718  -3.480  0.00  0.00    -0.277 OA
ATOM     19  N   UNL     1      -2.809  -9.836  -3.143  0.00  0.00    -0.287 N 
ATOM     20  H   UNL     1      -3.276 -10.487  -2.595  0.00  0.00    +0.155 HD
BRANCH  19  21
ATOM     21  C   UNL     1      -2.192 -10.237  -4.333  0.00  0.00    +0.036 A 
ATOM     22  C   UNL     1      -1.582 -11.481  -4.415  0.00  0.00    +0.043 A 
ATOM     23  C   UNL     1      -0.974 -11.875  -5.593  0.00  0.00    +0.044 A 
ATOM     24  C   UNL     1      -0.974 -11.030  -6.689  0.00  0.00    +0.040 A 
ATOM     25  C   UNL     1      -1.581  -9.789  -6.609  0.00  0.00    +0.044 A 
ATOM     26  C   UNL     1      -2.195  -9.393  -5.436  0.00  0.00    +0.043 A 
ATOM     27 CL   UNL     1      -1.578  -8.732  -7.986  0.00  0.00    -0.083 Cl
ATOM     28 CL   UNL     1      -0.209 -13.430  -5.697  0.00  0.00    -0.083 Cl
ENDBRANCH  19  21
ENDBRANCH  15  17
ENDBRANCH   4  15
TORSDOF 6
