REMARK  Name = ZINC21361938
REMARK  8 active torsions:
REMARK  status: ('A' for Active; 'I' for Inactive)
REMARK    1  A    between atoms: C_1  and  C_2
REMARK    2  A    between atoms: C_2  and  C_3
REMARK    3  A    between atoms: C_3  and  C_4
REMARK    4  A    between atoms: C_4  and  N_5
REMARK    5  A    between atoms: C_6  and  C_8
REMARK    6  A    between atoms: C_9  and  N_19
REMARK    7  A    between atoms: C_12  and  C_18
REMARK    8  A    between atoms: C_20  and  C_22
REMARK                            x       y       z     vdW  Elec       q    Type
REMARK                         _______ _______ _______ _____ _____    ______ ____
ROOT
ATOM      1  C   UNL     1      -0.064  -2.863   0.486  0.00  0.00    +0.124 A 
ATOM      2  C   UNL     1      -1.131  -2.082   0.096  0.00  0.00    +0.072 A 
ATOM      3  C   UNL     1      -2.243  -2.996  -0.174  0.00  0.00    +0.022 A 
ATOM      4  C   UNL     1      -3.560  -2.808  -0.604  0.00  0.00    +0.015 A 
ATOM      5  C   UNL     1      -4.378  -3.888  -0.776  0.00  0.00    -0.050 A 
ATOM      6  C   UNL     1      -3.910  -5.173  -0.533  0.00  0.00    +0.005 A 
ATOM      7  C   UNL     1      -2.615  -5.382  -0.116  0.00  0.00    +0.026 A 
ATOM      8  C   UNL     1      -1.762  -4.296   0.067  0.00  0.00    +0.049 A 
ATOM      9  N   UNL     1      -0.450  -4.195   0.467  0.00  0.00    -0.349 N 
ATOM     10  H   UNL     1       0.268  -4.980   0.748  0.00  0.00    +0.166 HD
ATOM     11  C   UNL     1      -5.800  -3.684  -1.232  0.00  0.00    +0.044 C 
ENDROOT
BRANCH   1  13
ATOM     12  N   UNL     1       2.258  -3.237   1.117  0.00  0.00    -0.310 N 
ATOM     13  C   UNL     1       1.261  -2.368   0.861  0.00  0.00    +0.262 C 
ATOM     14  O   UNL     1       1.462  -1.170   0.941  0.00  0.00    -0.269 OA
ATOM     15  H   UNL     1       2.076  -4.320   1.045  0.00  0.00    +0.149 HD
BRANCH  12  16
ATOM     16  C   UNL     1       3.584  -2.741   1.492  0.00  0.00    +0.104 C 
BRANCH  16  17
ATOM     17  C   UNL     1       4.524  -3.925   1.726  0.00  0.00    +0.018 C 
BRANCH  17  19
ATOM     18  C   UNL     1       6.850  -4.591   2.352  0.00  0.00    +0.004 C 
ATOM     19  C   UNL     1       5.910  -3.407   2.118  0.00  0.00    -0.002 C 
ENDBRANCH  17  19
ENDBRANCH  16  17
ENDBRANCH  12  16
ENDBRANCH   1  13
BRANCH   2  20
ATOM     20  N   UNL     1      -1.149  -0.695  -0.013  0.00  0.00    -0.279 N 
ATOM     21  C   UNL     1      -2.247  -0.005   0.353  0.00  0.00    +0.248 C 
ATOM     22  O   UNL     1      -3.255  -0.598   0.685  0.00  0.00    -0.270 OA
ATOM     23  H   UNL     1      -0.267  -0.162  -0.399  0.00  0.00    +0.155 HD
BRANCH  21  24
ATOM     24  C   UNL     1      -2.225   1.472   0.351  0.00  0.00    +0.037 A 
ATOM     25  C   UNL     1      -1.067   2.155  -0.025  0.00  0.00    +0.016 A 
ATOM     26  C   UNL     1      -1.054   3.534  -0.030  0.00  0.00    +0.039 A 
ATOM     27  C   UNL     1      -2.185   4.241   0.347  0.00  0.00    +0.123 A 
ATOM     28  C   UNL     1      -3.336   3.568   0.726  0.00  0.00    +0.039 A 
ATOM     29  C   UNL     1      -3.362   2.190   0.730  0.00  0.00    +0.016 A 
ATOM     30  F   UNL     1      -2.166   5.592   0.345  0.00  0.00    -0.205 F 
ENDBRANCH  21  24
ENDBRANCH   2  20
TORSDOF 6
