REMARK  Name = ZINC32960862
REMARK  7 active torsions:
REMARK  status: ('A' for Active; 'I' for Inactive)
REMARK    1  A    between atoms: C_1  and  C_2
REMARK    2  A    between atoms: C_2  and  C_4
REMARK    3  A    between atoms: C_2  and  O_20
REMARK    4  A    between atoms: N_6  and  C_7
REMARK    5  A    between atoms: C_7  and  C_8
REMARK    6  A    between atoms: C_8  and  N_14
REMARK    7  A    between atoms: O_20  and  C_21
REMARK                            x       y       z     vdW  Elec       q    Type
REMARK                         _______ _______ _______ _____ _____    ______ ____
ROOT
ATOM      1  C   UNL     1       1.250  -3.047  -1.984  0.00  0.00    +0.253 C 
ATOM      2  O   UNL     1       0.247  -2.434  -1.687  0.00  0.00    -0.272 OA
ATOM      3  N   UNL     1       2.426  -2.399  -2.099  0.00  0.00    -0.314 N 
ATOM      4  H   UNL     1       3.229  -2.889  -2.337  0.00  0.00    +0.149 HD
ENDROOT
BRANCH   1   6
ATOM      5  C   UNL     1       2.000  -5.262  -1.159  0.00  0.00    +0.062 C 
ATOM      6  C   UNL     1       1.182  -4.533  -2.226  0.00  0.00    +0.255 C 
BRANCH   6   7
ATOM      7  O   UNL     1      -0.179  -4.964  -2.161  0.00  0.00    -0.480 OA
BRANCH   7   8
ATOM      8  C   UNL     1      -0.500  -6.098  -2.838  0.00  0.00    +0.122 A 
ATOM      9  C   UNL     1      -1.823  -6.508  -2.918  0.00  0.00    +0.047 A 
ATOM     10  C   UNL     1      -2.148  -7.661  -3.607  0.00  0.00    +0.019 A 
ATOM     11  C   UNL     1      -1.154  -8.407  -4.215  0.00  0.00    +0.018 A 
ATOM     12  C   UNL     1       0.166  -8.000  -4.136  0.00  0.00    +0.019 A 
ATOM     13  C   UNL     1       0.493  -6.845  -3.454  0.00  0.00    +0.047 A 
ATOM     14 BR   UNL     1      -1.601  -9.984  -5.157  0.00  0.00    -0.050 Br
ENDBRANCH   7   8
ENDBRANCH   6   7
ENDBRANCH   1   6
BRANCH   3  15
ATOM     15  C   UNL     1       2.493  -0.955  -1.863  0.00  0.00    +0.092 C 
BRANCH  15  16
ATOM     16  C   UNL     1       3.909  -0.455  -2.156  0.00  0.00    -0.050 C 
ATOM     17  C   UNL     1       3.992   1.044  -1.860  0.00  0.00    -0.010 C 
ATOM     18  C   UNL     1       2.994   1.794  -2.744  0.00  0.00    -0.001 C 
ATOM     19  C   UNL     1       3.328   1.545  -4.216  0.00  0.00    -0.000 C 
ATOM     20  C   UNL     1       3.245   0.046  -4.512  0.00  0.00    -0.001 C 
ATOM     21  C   UNL     1       4.244  -0.704  -3.628  0.00  0.00    -0.010 C 
BRANCH  16  22
ATOM     22  N   UNL     1       4.867  -1.175  -1.307  0.00  0.00    +0.384 N 
ATOM     23  C   UNL     1       4.525  -0.963   0.104  0.00  0.00    -0.078 C 
ATOM     24  C   UNL     1       5.471  -1.777   0.991  0.00  0.00    -0.019 C 
ATOM     25  C   UNL     1       6.912  -1.323   0.740  0.00  0.00    -0.004 C 
ATOM     26  C   UNL     1       7.234  -1.479  -0.749  0.00  0.00    -0.019 C 
ATOM     27  C   UNL     1       6.223  -0.677  -1.571  0.00  0.00    -0.078 C 
ATOM     28  H   UNL     1       4.826  -2.161  -1.517  0.00  0.00    -0.081 HD
ENDBRANCH  16  22
ENDBRANCH  15  16
ENDBRANCH   3  15
TORSDOF 6
