REMARK  Name = ZINC67287475
REMARK  11 active torsions:
REMARK  status: ('A' for Active; 'I' for Inactive)
REMARK    1  A    between atoms: C_1  and  C_2
REMARK    2  A    between atoms: C_2  and  O_3
REMARK    3  A    between atoms: O_3  and  C_4
REMARK    4  A    between atoms: C_4  and  C_6
REMARK    5  A    between atoms: C_7  and  C_22
REMARK    6  A    between atoms: C_12  and  C_14
REMARK    7  A    between atoms: C_19  and  O_20
REMARK    8  A    between atoms: O_20  and  C_21
REMARK    9  A    between atoms: C_22  and  N_23
REMARK   10  A    between atoms: C_26  and  C_29
REMARK   11  A    between atoms: C_26  and  N_32
REMARK                            x       y       z     vdW  Elec       q    Type
REMARK                         _______ _______ _______ _____ _____    ______ ____
ROOT
ATOM      1  C   UNL     1      -3.873  -4.068  -0.972  0.00  0.00    +0.079 C 
ATOM      2  C   UNL     1      -2.931  -3.921  -0.015  0.00  0.00    +0.038 C 
ATOM      3  N   UNL     1      -3.068  -2.986   0.971  0.00  0.00    -0.271 N 
ATOM      4  C   UNL     1      -4.117  -2.160   1.071  0.00  0.00    +0.304 C 
ATOM      5  O   UNL     1      -4.151  -1.359   1.985  0.00  0.00    -0.252 OA
ATOM      6  N   UNL     1      -5.137  -2.187   0.190  0.00  0.00    -0.288 N 
ATOM      7  C   UNL     1      -5.082  -3.156  -0.917  0.00  0.00    +0.147 C 
ATOM      8  H   UNL     1      -2.366  -2.917   1.637  0.00  0.00    +0.156 HD
ATOM      9  H   UNL     1      -5.888  -1.579   0.281  0.00  0.00    +0.151 HD
ENDROOT
BRANCH   7  10
ATOM     10  C   UNL     1      -5.147  -2.392  -2.214  0.00  0.00    +0.019 A 
ATOM     11  C   UNL     1      -4.555  -1.148  -2.314  0.00  0.00    +0.009 A 
ATOM     12  C   UNL     1      -4.615  -0.446  -3.504  0.00  0.00    +0.001 A 
ATOM     13  C   UNL     1      -5.267  -0.988  -4.597  0.00  0.00    +0.004 A 
ATOM     14  C   UNL     1      -5.860  -2.232  -4.502  0.00  0.00    +0.046 A 
ATOM     15  C   UNL     1      -5.796  -2.940  -3.311  0.00  0.00    +0.125 A 
BRANCH  15  16
ATOM     16  O   UNL     1      -6.374  -4.167  -3.217  0.00  0.00    -0.495 OA
ATOM     17  C   UNL     1      -6.936  -4.713  -4.412  0.00  0.00    +0.277 C 
ENDBRANCH  15  16
ENDBRANCH   7  10
BRANCH   1  18
ATOM     18  C   UNL     1      -3.732  -5.035  -1.994  0.00  0.00    +0.339 C 
ATOM     19  O   UNL     1      -4.335  -6.089  -1.921  0.00  0.00    -0.245 OA
BRANCH  18  20
ATOM     20  O   UNL     1      -2.928  -4.790  -3.049  0.00  0.00    -0.462 OA
BRANCH  20  22
ATOM     21  C   UNL     1      -1.869  -5.373  -5.142  0.00  0.00    +0.048 C 
ATOM     22  C   UNL     1      -2.918  -5.761  -4.097  0.00  0.00    +0.229 C 
ENDBRANCH  20  22
ENDBRANCH  18  20
ENDBRANCH   1  18
BRANCH   2  23
ATOM     23  C   UNL     1      -1.710  -4.803  -0.035  0.00  0.00    +0.135 C 
BRANCH  23  24
ATOM     24  N   UNL     1      -1.696  -5.648   1.167  0.00  0.00    -0.297 NA
ATOM     25  C   UNL     1      -2.728  -6.690   1.089  0.00  0.00    +0.084 C 
ATOM     26  C   UNL     1      -2.782  -7.456   2.413  0.00  0.00    +0.013 C 
ATOM     27  C   UNL     1      -1.414  -8.086   2.689  0.00  0.00    +0.015 C 
ATOM     28  C   UNL     1      -0.350  -6.985   2.717  0.00  0.00    +0.013 C 
ATOM     29  C   UNL     1      -0.367  -6.233   1.384  0.00  0.00    +0.084 C 
BRANCH  27  30
ATOM     30  N   UNL     1      -1.443  -8.773   3.987  0.00  0.00    +0.389 N 
ATOM     31  C   UNL     1      -1.761  -7.806   5.045  0.00  0.00    -0.077 C 
ATOM     32  C   UNL     1      -1.872  -8.531   6.387  0.00  0.00    -0.019 C 
ATOM     33  C   UNL     1      -0.539  -9.216   6.704  0.00  0.00    -0.004 C 
ATOM     34  C   UNL     1      -0.181 -10.168   5.558  0.00  0.00    -0.019 C 
ATOM     35  C   UNL     1      -0.133  -9.382   4.246  0.00  0.00    -0.077 C 
ATOM     36  H   UNL     1      -2.150  -9.493   3.969  0.00  0.00    -0.080 HD
ENDBRANCH  27  30
BRANCH  27  37
ATOM     37  C   UNL     1      -1.087  -9.075   1.601  0.00  0.00    +0.200 C 
ATOM     38  O   UNL     1      -0.349  -8.756   0.693  0.00  0.00    -0.278 OA
ATOM     39  N   UNL     1      -1.614 -10.315   1.636  0.00  0.00    -0.330 N 
ATOM     40  H   UNL     1      -2.139 -10.598   2.402  0.00  0.00    +0.145 HD
ATOM     41  H   UNL     1      -1.470 -10.925   0.896  0.00  0.00    +0.145 HD
ENDBRANCH  27  37
ENDBRANCH  23  24
ENDBRANCH   2  23
TORSDOF 9
