REMARK  Name = ZINC39992785
REMARK  10 active torsions:
REMARK  status: ('A' for Active; 'I' for Inactive)
REMARK    1  A    between atoms: C_1  and  O_2
REMARK    2  A    between atoms: O_2  and  C_3
REMARK    3  A    between atoms: C_3  and  C_4
REMARK    4  A    between atoms: C_4  and  N_5
REMARK    5  A    between atoms: C_6  and  C_8
REMARK    6  A    between atoms: C_12  and  N_13
REMARK    7  A    between atoms: C_14  and  C_16
REMARK    8  A    between atoms: C_16  and  C_30
REMARK    9  A    between atoms: C_17  and  C_18
REMARK   10  A    between atoms: C_21  and  C_23
REMARK                            x       y       z     vdW  Elec       q    Type
REMARK                         _______ _______ _______ _____ _____    ______ ____
ROOT
ATOM      1  N   UNL     1      -2.857  -4.245   1.322  0.00  0.00    -0.275 N 
ATOM      2  C   UNL     1      -3.748  -4.446   2.314  0.00  0.00    +0.259 C 
ATOM      3  O   UNL     1      -4.871  -4.835   2.054  0.00  0.00    -0.269 OA
ATOM      4  H   UNL     1      -1.962  -3.935   1.530  0.00  0.00    +0.156 HD
ENDROOT
BRANCH   1   9
ATOM      5  C   UNL     1      -2.445  -4.332  -1.132  0.00  0.00    +0.069 A 
ATOM      6  C   UNL     1      -3.065  -4.655  -2.405  0.00  0.00    -0.023 A 
ATOM      7  C   UNL     1      -4.348  -5.064  -2.307  0.00  0.00    -0.004 A 
ATOM      8  S   UNL     1      -4.704  -5.015  -0.575  0.00  0.00    -0.077 S 
ATOM      9  C   UNL     1      -3.221  -4.482   0.007  0.00  0.00    +0.085 A 
ATOM     10  C   UNL     1      -5.254  -5.464  -3.431  0.00  0.00    +0.043 C 
ATOM     11  C   UNL     1      -4.628  -4.983  -4.748  0.00  0.00    +0.005 C 
ATOM     12  C   UNL     1      -3.152  -5.388  -4.773  0.00  0.00    +0.005 C 
ATOM     13  C   UNL     1      -2.367  -4.558  -3.754  0.00  0.00    +0.037 C 
BRANCH   5  15
ATOM     14  N   UNL     1      -0.776  -2.556  -1.119  0.00  0.00    -0.309 N 
ATOM     15  C   UNL     1      -1.055  -3.873  -1.054  0.00  0.00    +0.247 C 
ATOM     16  O   UNL     1      -0.153  -4.681  -0.931  0.00  0.00    -0.270 OA
ATOM     17  H   UNL     1      -1.495  -1.912  -1.217  0.00  0.00    +0.149 HD
BRANCH  14  18
ATOM     18  C   UNL     1       0.613  -2.097  -1.041  0.00  0.00    +0.132 C 
BRANCH  18  19
ATOM     19  C   UNL     1       0.652  -0.570  -1.138  0.00  0.00    +0.178 C 
BRANCH  19  21
ATOM     20  C   UNL     1      -0.017   1.425   0.010  0.00  0.00    +0.194 C 
ATOM     21  O   UNL     1       0.002  -0.004   0.002  0.00  0.00    -0.381 OA
ENDBRANCH  19  21
ENDBRANCH  18  19
ENDBRANCH  14  18
ENDBRANCH   5  15
ENDBRANCH   1   9
BRANCH   2  22
ATOM     22  C   UNL     1      -3.363  -4.195   3.707  0.00  0.00    +0.117 C 
ATOM     23  C   UNL     1      -4.280  -4.402   4.729  0.00  0.00    +0.070 C 
BRANCH  23  24
ATOM     24  C   UNL     1      -3.912  -4.162   6.062  0.00  0.00    +0.130 A 
ATOM     25  C   UNL     1      -4.724  -4.332   7.175  0.00  0.00    +0.050 A 
ATOM     26  C   UNL     1      -3.962  -3.981   8.287  0.00  0.00    +0.050 A 
ATOM     27  C   UNL     1      -2.717  -3.610   7.824  0.00  0.00    +0.136 A 
ATOM     28  O   UNL     1      -2.704  -3.731   6.485  0.00  0.00    -0.455 OA
BRANCH  27  29
ATOM     29  C   UNL     1      -1.586  -3.162   8.658  0.00  0.00    +0.017 A 
ATOM     30  C   UNL     1      -1.724  -3.091  10.047  0.00  0.00    +0.013 A 
ATOM     31  C   UNL     1      -0.663  -2.671  10.822  0.00  0.00    +0.021 A 
ATOM     32  C   UNL     1       0.537  -2.320  10.226  0.00  0.00    +0.041 A 
ATOM     33  C   UNL     1       0.681  -2.389   8.850  0.00  0.00    +0.021 A 
ATOM     34  C   UNL     1      -0.370  -2.813   8.064  0.00  0.00    +0.013 A 
ATOM     35 CL   UNL     1       1.868  -1.792  11.208  0.00  0.00    -0.084 Cl
ENDBRANCH  27  29
ENDBRANCH  23  24
BRANCH  22  36
ATOM     36  C   UNL     1      -2.041  -3.737   4.014  0.00  0.00    +0.104 C 
ATOM     37  N   UNL     1      -0.993  -3.374   4.257  0.00  0.00    -0.191 NA
ENDBRANCH  22  36
ENDBRANCH   2  22
TORSDOF 9
