REMARK  Name = ZINC06139769
REMARK  2 active torsions:
REMARK  status: ('A' for Active; 'I' for Inactive)
REMARK    1  A    between atoms: C_4  and  C_7
REMARK    2  A    between atoms: N_13  and  C_16
REMARK                            x       y       z     vdW  Elec       q    Type
REMARK                         _______ _______ _______ _____ _____    ______ ____
ROOT
ATOM      1  C   UNL     1       3.711  -0.707  -0.038  0.00  0.00    +0.092 C 
ATOM      2  C   UNL     1       3.815  -1.576   1.185  0.00  0.00    +0.070 A 
ATOM      3  C   UNL     1       3.687  -2.941   1.131  0.00  0.00    +0.125 A 
ATOM      4  N   UNL     1       3.826  -3.431   2.392  0.00  0.00    -0.277 N 
ATOM      5  H   UNL     1       3.778  -4.365   2.651  0.00  0.00    +0.189 HD
ATOM      6  N   UNL     1       4.050  -2.345   3.254  0.00  0.00    -0.218 N 
ATOM      7  C   UNL     1       4.044  -1.215   2.513  0.00  0.00    +0.278 A 
ATOM      8  O   UNL     1       4.208  -0.082   2.931  0.00  0.00    -0.265 OA
ATOM      9  N   UNL     1       3.460  -3.593  -0.057  0.00  0.00    -0.303 N 
ATOM     10  C   UNL     1       3.658  -2.910  -1.235  0.00  0.00    +0.017 C 
ATOM     11  C   UNL     1       3.790  -1.569  -1.279  0.00  0.00    +0.024 C 
ATOM     12  C   UNL     1       4.012  -0.904  -2.501  0.00  0.00    +0.162 C 
ATOM     13  O   UNL     1       4.114   0.306  -2.507  0.00  0.00    -0.292 OA
ATOM     14  C   UNL     1       4.126  -1.657  -3.796  0.00  0.00    +0.080 C 
ATOM     15  C   UNL     1       4.655  -3.066  -3.507  0.00  0.00    +0.014 C 
ATOM     16  C   UNL     1       3.717  -3.734  -2.502  0.00  0.00    +0.051 C 
ATOM     17  H   UNL     1       3.167  -4.518  -0.065  0.00  0.00    +0.153 HD
ENDROOT
BRANCH   1  21
ATOM     18  C   UNL     1      -0.017   1.378   0.010  0.00  0.00    +0.000 A 
ATOM     19  C   UNL     1       1.171   2.086   0.002  0.00  0.00    +0.000 A 
ATOM     20  C   UNL     1       2.377   1.411  -0.013  0.00  0.00    +0.004 A 
ATOM     21  C   UNL     1       2.396   0.029  -0.020  0.00  0.00    -0.035 A 
ATOM     22  C   UNL     1       1.208  -0.679  -0.012  0.00  0.00    +0.004 A 
ATOM     23  C   UNL     1       0.002  -0.004   0.002  0.00  0.00    +0.000 A 
ENDBRANCH   1  21
BRANCH   6  24
ATOM     24  C   UNL     1       4.246  -2.420   4.637  0.00  0.00    +0.067 A 
ATOM     25  C   UNL     1       4.452  -1.261   5.374  0.00  0.00    +0.028 A 
ATOM     26  C   UNL     1       4.645  -1.338   6.739  0.00  0.00    +0.002 A 
ATOM     27  C   UNL     1       4.633  -2.567   7.372  0.00  0.00    +0.000 A 
ATOM     28  C   UNL     1       4.427  -3.723   6.641  0.00  0.00    +0.002 A 
ATOM     29  C   UNL     1       4.228  -3.652   5.276  0.00  0.00    +0.028 A 
ENDBRANCH   6  24
TORSDOF 2
