REMARK  Name = ZINC66304493
REMARK  9 active torsions:
REMARK  status: ('A' for Active; 'I' for Inactive)
REMARK    1  A    between atoms: C_1  and  C_2
REMARK    2  A    between atoms: C_2  and  C_3
REMARK    3  A    between atoms: C_2  and  C_4
REMARK    4  A    between atoms: C_2  and  C_5
REMARK    5  A    between atoms: C_8  and  C_11
REMARK    6  A    between atoms: C_11  and  C_12
REMARK    7  A    between atoms: C_12  and  C_13
REMARK    8  A    between atoms: C_13  and  C_14
REMARK    9  A    between atoms: N_16  and  C_17
REMARK                            x       y       z     vdW  Elec       q    Type
REMARK                         _______ _______ _______ _____ _____    ______ ____
ROOT
ATOM      1  C   UNL     1       3.281  -1.320  -7.123  0.00  0.00    +0.096 C 
ENDROOT
BRANCH   1   2
ATOM      2  C   UNL     1       3.089  -0.322  -8.235  0.00  0.00    +0.214 C 
ATOM      3  O   UNL     1       2.490   0.712  -8.026  0.00  0.00    -0.276 OA
ATOM      4  N   UNL     1       3.583  -0.577  -9.463  0.00  0.00    -0.304 N 
ATOM      5  H   UNL     1       4.061  -1.404  -9.631  0.00  0.00    +0.149 HD
BRANCH   4   6
ATOM      6  C   UNL     1       3.396   0.393 -10.544  0.00  0.00    +0.159 C 
ATOM      7  C   UNL     1       3.674  -0.278 -11.892  0.00  0.00    +0.032 C 
ATOM      8  C   UNL     1       4.784  -1.304 -11.762  0.00  0.00    +0.004 C 
ATOM      9  C   UNL     1       6.142  -0.702 -11.448  0.00  0.00    +0.019 C 
ATOM     10  C   UNL     1       6.153  -0.083 -10.049  0.00  0.00    +0.104 C 
ATOM     11  N   UNL     1       5.658   1.300 -10.141  0.00  0.00    -0.314 N 
ATOM     12  C   UNL     1       4.363   1.544 -10.368  0.00  0.00    +0.233 C 
ATOM     13  O   UNL     1       3.963   2.687 -10.438  0.00  0.00    -0.274 OA
ATOM     14  H   UNL     1       6.276   2.041 -10.035  0.00  0.00    +0.149 HD
ENDBRANCH   4   6
ENDBRANCH   1   2
BRANCH   1  15
ATOM     15  C   UNL     1       2.630  -0.790  -5.844  0.00  0.00    +0.014 C 
BRANCH  15  16
ATOM     16  C   UNL     1       2.825  -1.804  -4.715  0.00  0.00    +0.035 C 
BRANCH  16  20
ATOM     17  C   UNL     1       1.007  -0.326  -1.143  0.00  0.00    -0.042 A 
ATOM     18  C   UNL     1       0.273  -1.099  -2.023  0.00  0.00    +0.004 A 
ATOM     19  C   UNL     1       0.861  -1.577  -3.179  0.00  0.00    +0.004 A 
ATOM     20  C   UNL     1       2.183  -1.282  -3.455  0.00  0.00    -0.047 A 
ATOM     21  C   UNL     1       2.917  -0.508  -2.575  0.00  0.00    +0.004 A 
ATOM     22  C   UNL     1       2.327  -0.027  -1.421  0.00  0.00    +0.004 A 
BRANCH  17  24
ATOM     23  C   UNL     1       0.405   1.724   0.115  0.00  0.00    +0.015 C 
ATOM     24  C   UNL     1       0.365   0.195   0.118  0.00  0.00    -0.013 C 
ATOM     25  C   UNL     1       1.129  -0.333   1.334  0.00  0.00    +0.015 C 
ATOM     26  C   UNL     1      -1.088  -0.278   0.183  0.00  0.00    +0.015 C 
ENDBRANCH  17  24
ENDBRANCH  16  20
ENDBRANCH  15  16
ENDBRANCH   1  15
TORSDOF 6
