REMARK  Name = ZINC12190846
REMARK  5 active torsions:
REMARK  status: ('A' for Active; 'I' for Inactive)
REMARK    1  A    between atoms: C_3  and  C_6
REMARK    2  A    between atoms: C_10  and  O_12
REMARK    3  A    between atoms: C_17  and  C_18
REMARK    4  A    between atoms: C_17  and  N_44
REMARK    5  A    between atoms: C_23  and  O_24
REMARK                            x       y       z     vdW  Elec       q    Type
REMARK                         _______ _______ _______ _____ _____    ______ ____
ROOT
ATOM      1  C   UNL     1       1.208   2.001   0.371  0.00  0.00    -0.007 A 
ATOM      2  C   UNL     1      -0.003   1.318   0.237  0.00  0.00    +0.014 A 
ATOM      3  C   UNL     1      -1.191   1.996   0.403  0.00  0.00    -0.018 A 
ATOM      4  C   UNL     1      -1.195   3.339   0.729  0.00  0.00    +0.163 A 
ATOM      5  C   UNL     1       0.008   4.030   0.860  0.00  0.00    +0.159 A 
ATOM      6  C   UNL     1       1.207   3.363   0.679  0.00  0.00    +0.058 A 
ATOM      7  O   UNL     1      -2.377   3.985   0.933  0.00  0.00    -0.490 OA
ATOM      8  C   UNL     1      -3.096   3.592   2.109  0.00  0.00    +0.211 C 
ATOM      9  C   UNL     1      -3.958   2.379   1.831  0.00  0.00    -0.036 C 
ATOM     10  C   UNL     1      -2.511   1.273   0.215  0.00  0.00    -0.039 C 
ATOM     11  N   UNL     1      -3.167   1.165   1.540  0.00  0.00    +0.387 N 
ATOM     12  H   UNL     1      -2.442   1.064   2.260  0.00  0.00    -0.081 HD
ENDROOT
BRANCH   1  15
ATOM     13  C   UNL     1       4.816   0.899   0.061  0.00  0.00    +0.008 A 
ATOM     14  C   UNL     1       3.766   1.767   0.269  0.00  0.00    +0.016 A 
ATOM     15  C   UNL     1       2.488   1.284   0.187  0.00  0.00    +0.019 A 
ATOM     16  S   UNL     1       2.768  -0.434  -0.206  0.00  0.00    -0.097 S 
ATOM     17  C   UNL     1       4.553  -0.401  -0.229  0.00  0.00    +0.046 A 
ENDBRANCH   1  15
BRANCH   5  18
ATOM     18  O   UNL     1       0.004   5.355   1.165  0.00  0.00    -0.503 OA
ATOM     19  H   UNL     1      -0.017   5.936   0.392  0.00  0.00    +0.292 HD
ENDBRANCH   5  18
BRANCH  11  20
ATOM     20  C   UNL     1      -4.040  -0.020   1.574  0.00  0.00    -0.039 C 
BRANCH  20  21
ATOM     21  C   UNL     1      -3.170  -1.249   1.632  0.00  0.00    -0.021 A 
ATOM     22  C   UNL     1      -3.038  -2.056   0.518  0.00  0.00    +0.025 A 
ATOM     23  C   UNL     1      -2.236  -3.182   0.570  0.00  0.00    +0.041 A 
ATOM     24  C   UNL     1      -1.571  -3.507   1.739  0.00  0.00    +0.023 A 
ATOM     25  C   UNL     1      -1.704  -2.706   2.856  0.00  0.00    +0.047 A 
ATOM     26  C   UNL     1      -2.505  -1.573   2.805  0.00  0.00    +0.118 A 
ATOM     27 CL   UNL     1      -2.067  -4.191  -0.833  0.00  0.00    -0.084 Cl
BRANCH  26  28
ATOM     28  O   UNL     1      -2.637  -0.783   3.903  0.00  0.00    -0.507 OA
ATOM     29  H   UNL     1      -3.370  -1.034   4.482  0.00  0.00    +0.292 HD
ENDBRANCH  26  28
ENDBRANCH  20  21
ENDBRANCH  11  20
TORSDOF 5
