REMARK  Name = ZINC35541880
REMARK  5 active torsions:
REMARK  status: ('A' for Active; 'I' for Inactive)
REMARK    1  A    between atoms: C_1  and  C_2
REMARK    2  A    between atoms: C_2  and  N_3
REMARK    3  A    between atoms: N_3  and  C_4
REMARK    4  A    between atoms: C_4  and  C_6
REMARK    5  A    between atoms: C_4  and  C_13
REMARK                            x       y       z     vdW  Elec       q    Type
REMARK                         _______ _______ _______ _____ _____    ______ ____
ROOT
ATOM      1  C   UNL     1       0.710  -1.947  -1.215  0.00  0.00    -0.008 C 
ENDROOT
BRANCH   1   2
ATOM      2  C   UNL     1      -0.641  -2.615  -1.238  0.00  0.00    -0.042 A 
ATOM      3  C   UNL     1      -1.692  -2.026  -1.915  0.00  0.00    +0.018 A 
ATOM      4  C   UNL     1      -2.932  -2.639  -1.936  0.00  0.00    +0.018 A 
ATOM      5  C   UNL     1      -3.120  -3.841  -1.279  0.00  0.00    +0.016 A 
ATOM      6  C   UNL     1      -2.069  -4.431  -0.602  0.00  0.00    +0.016 A 
ATOM      7  C   UNL     1      -0.828  -3.820  -0.585  0.00  0.00    +0.020 A 
ATOM      8 BR   UNL     1       0.612  -4.630   0.335  0.00  0.00    -0.050 Br
ATOM      9 BR   UNL     1      -4.370  -1.832  -2.863  0.00  0.00    -0.050 Br
ENDBRANCH   1   2
BRANCH   1  10
ATOM     10  C   UNL     1       1.556  -2.487  -2.338  0.00  0.00    -0.043 A 
ATOM     11  C   UNL     1       0.963  -3.164  -3.387  0.00  0.00    +0.003 A 
ATOM     12  C   UNL     1       1.739  -3.659  -4.418  0.00  0.00    +0.000 A 
ATOM     13  C   UNL     1       3.109  -3.477  -4.401  0.00  0.00    +0.001 A 
ATOM     14  C   UNL     1       3.704  -2.800  -3.353  0.00  0.00    +0.015 A 
ATOM     15  C   UNL     1       2.926  -2.300  -2.324  0.00  0.00    +0.020 A 
ATOM     16 BR   UNL     1       3.738  -1.367  -0.893  0.00  0.00    -0.050 Br
ENDBRANCH   1  10
BRANCH   1  17
ATOM     17  N   UNL     1       0.542  -0.497  -1.381  0.00  0.00    +0.386 N 
ATOM     18  H   UNL     1       0.016  -0.313  -2.223  0.00  0.00    -0.085 HD
ATOM     19  H   UNL     1       1.448  -0.059  -1.448  0.00  0.00    -0.085 HD
BRANCH  17  21
ATOM     20  C   UNL     1      -0.356   1.558  -0.398  0.00  0.00    -0.017 C 
ATOM     21  C   UNL     1      -0.181   0.048  -0.224  0.00  0.00    -0.085 C 
ENDBRANCH  17  21
ENDBRANCH   1  17
TORSDOF 4
