REMARK  Name = ZINC60360403
REMARK  9 active torsions:
REMARK  status: ('A' for Active; 'I' for Inactive)
REMARK    1  A    between atoms: C_1  and  C_2
REMARK    2  A    between atoms: C_2  and  C_3
REMARK    3  A    between atoms: C_3  and  C_4
REMARK    4  A    between atoms: C_4  and  N_5
REMARK    5  A    between atoms: C_6  and  C_8
REMARK    6  A    between atoms: C_8  and  N_14
REMARK    7  A    between atoms: C_15  and  C_17
REMARK    8  A    between atoms: C_18  and  C_22
REMARK    9  A    between atoms: C_22  and  C_23
REMARK                            x       y       z     vdW  Elec       q    Type
REMARK                         _______ _______ _______ _____ _____    ______ ____
ROOT
ATOM      1  C   UNL     1       2.247  -4.207  -3.979  0.00  0.00    +0.111 C 
ATOM      2  C   UNL     1       1.235  -4.153  -5.125  0.00  0.00    +0.035 C 
ATOM      3  C   UNL     1       1.926  -4.540  -6.434  0.00  0.00    +0.003 C 
ATOM      4  C   UNL     1       2.486  -5.959  -6.315  0.00  0.00    +0.000 C 
ATOM      5  C   UNL     1       3.498  -6.013  -5.168  0.00  0.00    +0.003 C 
ATOM      6  C   UNL     1       2.807  -5.625  -3.860  0.00  0.00    +0.035 C 
ENDROOT
BRANCH   1   8
ATOM      7  N   UNL     1       2.291  -3.331  -1.666  0.00  0.00    -0.314 N 
ATOM      8  C   UNL     1       1.567  -3.825  -2.690  0.00  0.00    +0.237 C 
ATOM      9  O   UNL     1       0.367  -3.962  -2.574  0.00  0.00    -0.273 OA
ATOM     10  H   UNL     1       3.258  -3.289  -1.732  0.00  0.00    +0.149 HD
BRANCH   7  11
ATOM     11  C   UNL     1       1.618  -2.857  -0.454  0.00  0.00    +0.104 C 
BRANCH  11  12
ATOM     12  C   UNL     1       2.661  -2.351   0.544  0.00  0.00    +0.018 C 
BRANCH  12  14
ATOM     13  C   UNL     1       3.002  -1.350   2.808  0.00  0.00    +0.004 C 
ATOM     14  C   UNL     1       1.958  -1.856   1.810  0.00  0.00    -0.002 C 
ENDBRANCH  12  14
ENDBRANCH  11  12
ENDBRANCH   7  11
ENDBRANCH   1   8
BRANCH   1  15
ATOM     15  N   UNL     1       3.341  -3.271  -4.250  0.00  0.00    -0.297 N 
ATOM     16  C   UNL     1       3.098  -1.946  -4.298  0.00  0.00    +0.252 C 
ATOM     17  O   UNL     1       1.957  -1.533  -4.209  0.00  0.00    -0.270 OA
ATOM     18  H   UNL     1       4.241  -3.604  -4.393  0.00  0.00    +0.150 HD
BRANCH  16  19
ATOM     19  C   UNL     1       4.209  -1.002  -4.460  0.00  0.00    +0.077 A 
ATOM     20  C   UNL     1       4.176   0.382  -4.527  0.00  0.00    -0.028 A 
ATOM     21  C   UNL     1       5.394   1.001  -4.682  0.00  0.00    +0.012 A 
ATOM     22  C   UNL     1       6.514   0.241  -4.758  0.00  0.00    +0.046 A 
ATOM     23  S   UNL     1       5.953  -1.336  -4.612  0.00  0.00    -0.092 S 
BRANCH  20  24
ATOM     24  C   UNL     1       2.889   1.159  -4.436  0.00  0.00    +0.033 C 
ATOM     25  C   UNL     1       2.534   1.387  -2.965  0.00  0.00    +0.009 C 
ENDBRANCH  20  24
ENDBRANCH  16  19
ENDBRANCH   1  15
TORSDOF 7
