REMARK  Name = ZINC09275056
REMARK  10 active torsions:
REMARK  status: ('A' for Active; 'I' for Inactive)
REMARK    1  A    between atoms: C_1  and  C_2
REMARK    2  A    between atoms: N_8  and  C_25
REMARK    3  A    between atoms: C_9  and  C_22
REMARK    4  A    between atoms: C_10  and  C_11
REMARK    5  A    between atoms: C_11  and  N_12
REMARK    6  A    between atoms: N_12  and  C_13
REMARK    7  A    between atoms: C_13  and  C_14
REMARK    8  A    between atoms: C_19  and  O_20
REMARK    9  A    between atoms: O_20  and  C_21
REMARK   10  A    between atoms: C_25  and  C_26
REMARK                            x       y       z     vdW  Elec       q    Type
REMARK                         _______ _______ _______ _____ _____    ______ ____
ROOT
ATOM      1  C   UNL     1      -0.689   1.235  -0.666  0.00  0.00    +0.044 C 
ATOM      2  C   UNL     1      -0.520  -0.247  -0.451  0.00  0.00    -0.048 A 
ATOM      3  C   UNL     1      -0.564  -1.110  -1.539  0.00  0.00    +0.004 A 
ATOM      4  C   UNL     1      -0.414  -2.455  -1.366  0.00  0.00    +0.010 A 
ATOM      5  C   UNL     1      -0.213  -2.974  -0.080  0.00  0.00    +0.002 A 
ATOM      6  C   UNL     1      -0.168  -2.101   1.025  0.00  0.00    +0.050 A 
ATOM      7  C   UNL     1      -0.319  -0.732   0.822  0.00  0.00    +0.029 A 
ATOM      8  N   UNL     1       0.037  -2.868   2.147  0.00  0.00    -0.330 N 
ATOM      9  C   UNL     1       0.121  -4.196   1.770  0.00  0.00    +0.134 A 
ATOM     10  C   UNL     1      -0.028  -4.285   0.420  0.00  0.00    -0.025 A 
ENDROOT
BRANCH   9  11
ATOM     11  C   UNL     1       0.336  -5.326   2.679  0.00  0.00    +0.403 C 
ATOM     12  O   UNL     1       0.343  -5.145   3.890  0.00  0.00    -0.239 OA
ATOM     13  O   UNL     1       0.509  -6.450   2.227  0.00  0.00    -0.239 OA
ENDBRANCH   9  11
BRANCH  10  14
ATOM     14  C   UNL     1      -0.002  -5.552  -0.395  0.00  0.00    -0.043 C 
BRANCH  14  15
ATOM     15  N   UNL     1       1.376  -5.832  -0.820  0.00  0.00    +0.385 N 
ATOM     16  H   UNL     1       1.718  -5.064  -1.380  0.00  0.00    -0.085 HD
ATOM     17  H   UNL     1       1.963  -5.942  -0.007  0.00  0.00    -0.085 HD
BRANCH  15  18
ATOM     18  C   UNL     1       1.402  -7.067  -1.615  0.00  0.00    -0.043 C 
BRANCH  18  19
ATOM     19  C   UNL     1       2.816  -7.354  -2.052  0.00  0.00    -0.023 A 
ATOM     20  C   UNL     1       3.226  -7.024  -3.329  0.00  0.00    +0.005 A 
ATOM     21  C   UNL     1       4.522  -7.287  -3.730  0.00  0.00    +0.000 A 
ATOM     22  C   UNL     1       5.412  -7.881  -2.854  0.00  0.00    +0.004 A 
ATOM     23  C   UNL     1       5.007  -8.213  -1.576  0.00  0.00    +0.046 A 
ATOM     24  C   UNL     1       3.708  -7.944  -1.169  0.00  0.00    +0.121 A 
BRANCH  24  25
ATOM     25  O   UNL     1       3.309  -8.264   0.090  0.00  0.00    -0.495 OA
ATOM     26  C   UNL     1       4.281  -8.870   0.944  0.00  0.00    +0.277 C 
ENDBRANCH  24  25
ENDBRANCH  18  19
ENDBRANCH  15  18
ENDBRANCH  14  15
ENDBRANCH  10  14
BRANCH   8  27
ATOM     27  C   UNL     1       0.149  -2.361   3.518  0.00  0.00    +0.159 C 
BRANCH  27  28
ATOM     28  C   UNL     1       1.603  -2.185   3.871  0.00  0.00    -0.009 A 
ATOM     29  C   UNL     1       2.310  -3.234   4.429  0.00  0.00    +0.009 A 
ATOM     30  C   UNL     1       3.644  -3.074   4.754  0.00  0.00    +0.039 A 
ATOM     31  C   UNL     1       4.273  -1.862   4.520  0.00  0.00    +0.125 A 
ATOM     32  C   UNL     1       3.565  -0.812   3.961  0.00  0.00    +0.058 A 
ATOM     33  C   UNL     1       2.231  -0.976   3.632  0.00  0.00    +0.049 A 
ATOM     34 CL   UNL     1       1.344   0.338   2.925  0.00  0.00    -0.083 Cl
ATOM     35  F   UNL     1       5.576  -1.705   4.838  0.00  0.00    -0.205 F 
ENDBRANCH  27  28
ENDBRANCH   8  27
TORSDOF 8
