REMARK  Name = ZINC15978947
REMARK  5 active torsions:
REMARK  status: ('A' for Active; 'I' for Inactive)
REMARK    1  A    between atoms: C_1  and  C_2
REMARK    2  A    between atoms: C_7  and  C_27
REMARK    3  A    between atoms: C_10  and  C_12
REMARK    4  A    between atoms: C_12  and  O_13
REMARK    5  A    between atoms: O_13  and  C_14
REMARK                            x       y       z     vdW  Elec       q    Type
REMARK                         _______ _______ _______ _____ _____    ______ ____
ROOT
ATOM      1  C   UNL     1       3.324   0.697   5.211  0.00  0.00    +0.227 A 
ATOM      2  C   UNL     1       3.833   1.717   6.059  0.00  0.00    +0.073 A 
ATOM      3  C   UNL     1       3.522   3.148   6.061  0.00  0.00    -0.023 A 
ATOM      4  C   UNL     1       4.149   3.908   6.981  0.00  0.00    -0.004 A 
ATOM      5  S   UNL     1       5.177   2.785   7.889  0.00  0.00    -0.073 S 
ATOM      6  C   UNL     1       4.765   1.290   7.027  0.00  0.00    +0.116 A 
ATOM      7  N   UNL     1       5.129   0.027   7.123  0.00  0.00    -0.228 NA
ATOM      8  C   UNL     1       4.622  -0.875   6.305  0.00  0.00    +0.226 A 
ATOM      9  N   UNL     1       3.738  -0.546   5.380  0.00  0.00    -0.201 NA
ATOM     10  C   UNL     1       4.005   5.386   7.188  0.00  0.00    +0.043 C 
ATOM     11  C   UNL     1       3.315   5.983   5.953  0.00  0.00    +0.005 C 
ATOM     12  C   UNL     1       2.089   5.129   5.615  0.00  0.00    +0.005 C 
ATOM     13  C   UNL     1       2.536   3.770   5.076  0.00  0.00    +0.037 C 
ENDROOT
BRANCH   1  14
ATOM     14  O   UNL     1       2.420   0.995   4.247  0.00  0.00    -0.466 OA
BRANCH  14  15
ATOM     15  C   UNL     1       1.952  -0.088   3.440  0.00  0.00    +0.326 C 
BRANCH  15  23
ATOM     16  C   UNL     1      -0.299   1.737   0.448  0.00  0.00    +0.028 C 
ATOM     17  C   UNL     1      -0.024   0.253   0.196  0.00  0.00    +0.073 C 
ATOM     18  C   UNL     1      -1.342  -0.472  -0.091  0.00  0.00    +0.022 C 
ATOM     19  C   UNL     1      -1.079  -1.975  -0.205  0.00  0.00    +0.004 C 
ATOM     20  C   UNL     1      -0.519  -2.498   1.119  0.00  0.00    +0.022 C 
ATOM     21  C   UNL     1       0.809  -1.796   1.420  0.00  0.00    +0.073 C 
ATOM     22  N   UNL     1       0.597  -0.342   1.387  0.00  0.00    -0.293 N 
ATOM     23  C   UNL     1       0.962   0.429   2.429  0.00  0.00    +0.254 C 
ATOM     24  O   UNL     1       0.492   1.541   2.555  0.00  0.00    -0.272 OA
ATOM     25  C   UNL     1       1.308  -2.213   2.805  0.00  0.00    +0.028 C 
ENDBRANCH  15  23
ENDBRANCH  14  15
ENDBRANCH   1  14
TORSDOF 3
