REMARK  Name = ZINC43042834
REMARK  8 active torsions:
REMARK  status: ('A' for Active; 'I' for Inactive)
REMARK    1  A    between atoms: C_1  and  C_2
REMARK    2  A    between atoms: C_7  and  N_12
REMARK    3  A    between atoms: C_9  and  C_11
REMARK    4  A    between atoms: N_15  and  N_16
REMARK    5  A    between atoms: C_17  and  C_19
REMARK    6  A    between atoms: N_28  and  C_30
REMARK    7  A    between atoms: C_30  and  C_31
REMARK    8  A    between atoms: C_30  and  C_32
REMARK                            x       y       z     vdW  Elec       q    Type
REMARK                         _______ _______ _______ _____ _____    ______ ____
ROOT
ATOM      1  N   UNL     1       2.068  -1.440   5.868  0.00  0.00    -0.228 N 
ATOM      2  C   UNL     1       2.720  -1.886   6.960  0.00  0.00    +0.281 C 
ATOM      3  O   UNL     1       2.629  -1.283   8.011  0.00  0.00    -0.267 OA
ATOM      4  H   UNL     1       2.140  -1.921   5.029  0.00  0.00    +0.173 HD
ENDROOT
BRANCH   2   5
ATOM      5  C   UNL     1       3.544  -3.108   6.879  0.00  0.00    +0.155 A 
ATOM      6  C   UNL     1       4.255  -3.607   8.068  0.00  0.00    +0.020 A 
ATOM      7  C   UNL     1       4.193  -2.972   9.304  0.00  0.00    +0.011 A 
ATOM      8  C   UNL     1       4.888  -3.501  10.371  0.00  0.00    +0.001 A 
ATOM      9  C   UNL     1       5.646  -4.655  10.225  0.00  0.00    +0.001 A 
ATOM     10  C   UNL     1       5.720  -5.300   9.008  0.00  0.00    +0.014 A 
ATOM     11  C   UNL     1       5.027  -4.783   7.919  0.00  0.00    +0.050 A 
ATOM     12  C   UNL     1       5.051  -5.405   6.588  0.00  0.00    +0.275 A 
ATOM     13  O   UNL     1       5.694  -6.419   6.386  0.00  0.00    -0.266 OA
ATOM     14  N   UNL     1       4.345  -4.827   5.595  0.00  0.00    -0.226 N 
ATOM     15  N   UNL     1       3.648  -3.765   5.750  0.00  0.00    -0.163 NA
BRANCH  14  16
ATOM     16  C   UNL     1       4.373  -5.451   4.270  0.00  0.00    +0.105 C 
ATOM     17  C   UNL     1       2.952  -5.843   3.861  0.00  0.00    +0.032 C 
ATOM     18  C   UNL     1       4.941  -4.460   3.252  0.00  0.00    +0.032 C 
ENDBRANCH  14  16
ENDBRANCH   2   5
BRANCH   1  22
ATOM     19  N   UNL     1       0.735  -0.503   3.687  0.00  0.00    -0.295 N 
ATOM     20  C   UNL     1       0.634   0.166   4.853  0.00  0.00    +0.316 C 
ATOM     21  O   UNL     1      -0.045   1.173   4.919  0.00  0.00    -0.251 OA
ATOM     22  N   UNL     1       1.286  -0.280   5.945  0.00  0.00    -0.218 N 
ATOM     23  H   UNL     1       1.276  -1.306   3.634  0.00  0.00    +0.151 HD
ATOM     24  H   UNL     1       1.213   0.201   6.784  0.00  0.00    +0.174 HD
BRANCH  19  30
ATOM     25  C   UNL     1      -0.019   1.526   0.010  0.00  0.00    +0.008 C 
ATOM     26  C   UNL     1       0.002  -0.004   0.002  0.00  0.00    -0.009 C 
ATOM     27  C   UNL     1      -1.433  -0.534   0.013  0.00  0.00    +0.003 C 
ATOM     28  C   UNL     1      -2.149  -0.040   1.272  0.00  0.00    +0.002 C 
ATOM     29  C   UNL     1      -1.409  -0.547   2.511  0.00  0.00    +0.022 C 
ATOM     30  C   UNL     1       0.026  -0.018   2.500  0.00  0.00    +0.078 C 
ATOM     31  C   UNL     1       0.742  -0.511   1.242  0.00  0.00    +0.009 C 
ATOM     32  C   UNL     1       2.178   0.019   1.231  0.00  0.00    +0.009 C 
ENDBRANCH  19  30
ENDBRANCH   1  22
TORSDOF 4
