REMARK  Name = ZINC20175772
REMARK  13 active torsions:
REMARK  status: ('A' for Active; 'I' for Inactive)
REMARK    1  A    between atoms: C_1  and  C_2
REMARK    2  A    between atoms: C_2  and  O_3
REMARK    3  A    between atoms: O_3  and  C_4
REMARK    4  A    between atoms: C_6  and  C_11
REMARK    5  A    between atoms: C_9  and  O_10
REMARK    6  A    between atoms: C_16  and  C_26
REMARK    7  A    between atoms: C_18  and  C_22
REMARK    8  A    between atoms: C_22  and  O_24
REMARK    9  A    between atoms: O_24  and  C_25
REMARK   10  A    between atoms: C_28  and  C_38
REMARK   11  A    between atoms: C_29  and  C_30
REMARK   12  A    between atoms: C_30  and  O_32
REMARK   13  A    between atoms: O_32  and  C_33
REMARK                            x       y       z     vdW  Elec       q    Type
REMARK                         _______ _______ _______ _____ _____    ______ ____
ROOT
ATOM      1  C   UNL     1       1.126   3.834   0.089  0.00  0.00    +0.092 C 
ATOM      2  C   UNL     1       1.120   2.327   0.029  0.00  0.00    +0.025 C 
ATOM      3  C   UNL     1       2.276   1.637  -0.060  0.00  0.00    +0.016 C 
ATOM      4  C   UNL     1       2.278   0.130  -0.139  0.00  0.00    +0.055 C 
ATOM      5  C   UNL     1       1.074  -0.425   0.626  0.00  0.00    +0.013 C 
ATOM      6  C   UNL     1      -0.203   0.164   0.018  0.00  0.00    +0.171 C 
ATOM      7  C   UNL     1      -0.120   1.665   0.064  0.00  0.00    +0.176 C 
ATOM      8  O   UNL     1      -1.143   2.318   0.129  0.00  0.00    -0.291 OA
ATOM      9  C   UNL     1       1.046  -1.950   0.503  0.00  0.00    +0.009 C 
ATOM     10  N   UNL     1       3.478   2.292  -0.078  0.00  0.00    -0.321 N 
ATOM     11  C   UNL     1       3.577   3.579   0.372  0.00  0.00    +0.016 C 
ATOM     12  C   UNL     1       2.481   4.352   0.471  0.00  0.00    +0.065 C 
ATOM     13  C   UNL     1       4.923   4.136   0.759  0.00  0.00    +0.061 C 
ATOM     14  H   UNL     1       4.377   1.784  -0.456  0.00  0.00    +0.152 HD
ENDROOT
BRANCH   1  17
ATOM     15  C   UNL     1      -0.715   5.694  -2.636  0.00  0.00    +0.162 A 
ATOM     16  C   UNL     1      -0.368   5.187  -1.394  0.00  0.00    +0.054 A 
ATOM     17  C   UNL     1       0.750   4.385  -1.262  0.00  0.00    -0.032 A 
ATOM     18  C   UNL     1       1.527   4.091  -2.368  0.00  0.00    +0.008 A 
ATOM     19  C   UNL     1       1.183   4.589  -3.610  0.00  0.00    +0.049 A 
ATOM     20  C   UNL     1       0.064   5.394  -3.749  0.00  0.00    +0.158 A 
BRANCH  20  21
ATOM     21  O   UNL     1      -0.272   5.890  -4.970  0.00  0.00    -0.503 OA
ATOM     22  H   UNL     1       0.344   5.651  -5.849  0.00  0.00    +0.292 HD
ENDBRANCH  20  21
BRANCH  15  23
ATOM     23  O   UNL     1      -1.815   6.483  -2.766  0.00  0.00    -0.489 OA
BRANCH  23  25
ATOM     24  C   UNL     1      -3.758   7.647  -1.923  0.00  0.00    +0.048 C 
ATOM     25  C   UNL     1      -2.567   6.749  -1.581  0.00  0.00    +0.226 C 
ENDBRANCH  23  25
ENDBRANCH  15  23
ENDBRANCH   1  17
BRANCH   6  26
ATOM     26  C   UNL     1      -1.399  -0.299   0.810  0.00  0.00    +0.318 C 
ATOM     27  O   UNL     1      -1.248  -1.034   1.758  0.00  0.00    -0.250 OA
BRANCH  26  28
ATOM     28  O   UNL     1      -2.631   0.103   0.462  0.00  0.00    -0.467 OA
ATOM     29  C   UNL     1      -3.736  -0.383   1.269  0.00  0.00    +0.280 C 
ENDBRANCH  26  28
ENDBRANCH   6  26
BRANCH  12  30
ATOM     30  C   UNL     1       2.609   5.679   0.945  0.00  0.00    +0.338 C 
ATOM     31  O   UNL     1       3.682   6.078   1.357  0.00  0.00    -0.245 OA
BRANCH  30  32
ATOM     32  O   UNL     1       1.540   6.503   0.940  0.00  0.00    -0.458 OA
BRANCH  32  33
ATOM     33  C   UNL     1       1.741   7.829   1.433  0.00  0.00    +0.177 C 
ATOM     34  C   UNL     1       1.417   7.888   2.940  0.00  0.00    +0.044 C 
ATOM     35  C   UNL     1       0.745   9.271   3.130  0.00  0.00    +0.004 C 
ATOM     36  C   UNL     1      -0.106   9.418   1.844  0.00  0.00    +0.004 C 
ATOM     37  C   UNL     1       0.773   8.802   0.736  0.00  0.00    +0.044 C 
ENDBRANCH  32  33
ENDBRANCH  30  32
ENDBRANCH  12  30
TORSDOF 9
