REMARK  Name = ZINC21486412
REMARK  5 active torsions:
REMARK  status: ('A' for Active; 'I' for Inactive)
REMARK    1  A    between atoms: C_4  and  S_11
REMARK    2  A    between atoms: C_5  and  C_7
REMARK    3  A    between atoms: S_11  and  N_14
REMARK    4  A    between atoms: N_17  and  C_20
REMARK    5  A    between atoms: C_20  and  C_21
REMARK                            x       y       z     vdW  Elec       q    Type
REMARK                         _______ _______ _______ _____ _____    ______ ____
ROOT
ATOM      1  N   UNL     1       3.790  -2.085   1.098  0.00  0.00    -0.174 NA
ATOM      2  C   UNL     1       4.453  -1.565   2.303  0.00  0.00    +0.125 C 
ATOM      3  C   UNL     1       5.466  -2.607   2.789  0.00  0.00    +0.102 C 
ATOM      4  N   UNL     1       4.790  -3.900   2.961  0.00  0.00    -0.293 NA
ATOM      5  C   UNL     1       4.269  -4.402   1.683  0.00  0.00    +0.102 C 
ATOM      6  C   UNL     1       3.201  -3.431   1.153  0.00  0.00    +0.125 C 
ENDROOT
BRANCH   1   7
ATOM      7  S   UNL     1       3.701  -1.175  -0.283  0.00  0.00    +0.061 S 
ATOM      8  O   UNL     1       3.408  -2.074  -1.344  0.00  0.00    -0.153 OA
ATOM      9  O   UNL     1       4.848  -0.336  -0.291  0.00  0.00    -0.153 OA
BRANCH   7  13
ATOM     10  C   UNL     1       0.111   1.549   0.137  0.00  0.00    +0.001 A 
ATOM     11  C   UNL     1       0.266   0.474   0.992  0.00  0.00    +0.002 A 
ATOM     12  C   UNL     1       1.362  -0.358   0.863  0.00  0.00    +0.029 A 
ATOM     13  C   UNL     1       2.303  -0.115  -0.120  0.00  0.00    +0.117 A 
ATOM     14  C   UNL     1       2.147   0.960  -0.975  0.00  0.00    +0.081 A 
ATOM     15  C   UNL     1       1.052   1.793  -0.846  0.00  0.00    +0.014 A 
BRANCH  14  16
ATOM     16  C   UNL     1       3.173   1.225  -2.046  0.00  0.00    +0.419 C 
ATOM     17  F   UNL     1       2.735   2.274  -2.862  0.00  0.00    -0.166 F 
ATOM     18  F   UNL     1       4.390   1.576  -1.450  0.00  0.00    -0.166 F 
ATOM     19  F   UNL     1       3.348   0.073  -2.821  0.00  0.00    -0.166 F 
ENDBRANCH  14  16
ENDBRANCH   7  13
ENDBRANCH   1   7
BRANCH   4  20
ATOM     20  C   UNL     1       5.684  -4.882   3.587  0.00  0.00    +0.158 C 
BRANCH  20  21
ATOM     21  C   UNL     1       4.895  -6.107   3.971  0.00  0.00    +0.125 A 
ATOM     22  N   UNL     1       5.527  -7.146   4.574  0.00  0.00    -0.309 N 
ATOM     23  C   UNL     1       4.860  -8.259   4.933  0.00  0.00    +0.260 A 
ATOM     24  C   UNL     1       3.453  -8.339   4.668  0.00  0.00    +0.075 A 
ATOM     25  C   UNL     1       2.534  -9.437   4.964  0.00  0.00    -0.023 A 
ATOM     26  C   UNL     1       1.243  -9.267   4.611  0.00  0.00    -0.004 A 
ATOM     27  S   UNL     1       1.177  -7.655   3.875  0.00  0.00    -0.073 S 
ATOM     28  C   UNL     1       2.888  -7.216   4.043  0.00  0.00    +0.116 A 
ATOM     29  N   UNL     1       3.613  -6.148   3.721  0.00  0.00    -0.225 NA
ATOM     30  C   UNL     1       0.114 -10.233   4.803  0.00  0.00    +0.043 C 
ATOM     31  C   UNL     1       0.707 -11.612   5.127  0.00  0.00    +0.005 C 
ATOM     32  C   UNL     1       1.772 -11.444   6.215  0.00  0.00    +0.005 C 
ATOM     33  C   UNL     1       2.993 -10.726   5.641  0.00  0.00    +0.037 C 
ATOM     34  O   UNL     1       5.442  -9.184   5.473  0.00  0.00    -0.267 OA
ATOM     35  H   UNL     1       6.479  -7.086   4.751  0.00  0.00    +0.170 HD
ENDBRANCH  20  21
ENDBRANCH   4  20
TORSDOF 5
