REMARK  Name = ZINC56787634
REMARK  8 active torsions:
REMARK  status: ('A' for Active; 'I' for Inactive)
REMARK    1  A    between atoms: C_1  and  N_2
REMARK    2  A    between atoms: N_2  and  C_3
REMARK    3  A    between atoms: N_2  and  C_4
REMARK    4  A    between atoms: C_4  and  C_6
REMARK    5  A    between atoms: C_4  and  C_22
REMARK    6  A    between atoms: C_6  and  N_7
REMARK    7  A    between atoms: N_10  and  C_11
REMARK    8  A    between atoms: C_14  and  C_17
REMARK                            x       y       z     vdW  Elec       q    Type
REMARK                         _______ _______ _______ _____ _____    ______ ____
ROOT
ATOM      1  N   UNL     1      -0.406  -2.381   0.669  0.00  0.00    -0.300 N 
ATOM      2  C   UNL     1      -0.176  -3.708   0.726  0.00  0.00    +0.304 C 
ATOM      3  O   UNL     1      -0.592  -4.435  -0.155  0.00  0.00    -0.253 OA
ATOM      4  N   UNL     1       0.515  -4.228   1.759  0.00  0.00    -0.269 N 
ATOM      5  H   UNL     1      -0.074  -1.800   1.371  0.00  0.00    +0.150 HD
ATOM      6  H   UNL     1       0.773  -3.662   2.504  0.00  0.00    +0.156 HD
ENDROOT
BRANCH   4   7
ATOM      7  C   UNL     1       0.861  -5.584   1.758  0.00  0.00    +0.035 A 
ATOM      8  C   UNL     1       1.176  -6.218   0.563  0.00  0.00    +0.024 A 
ATOM      9  C   UNL     1       1.516  -7.554   0.559  0.00  0.00    +0.012 A 
ATOM     10  C   UNL     1       1.545  -8.268   1.756  0.00  0.00    +0.003 A 
ATOM     11  C   UNL     1       1.230  -7.630   2.953  0.00  0.00    +0.012 A 
ATOM     12  C   UNL     1       0.895  -6.292   2.953  0.00  0.00    +0.024 A 
BRANCH  10  13
ATOM     13  C   UNL     1       1.911  -9.707   1.754  0.00  0.00    +0.102 A 
ATOM     14  C   UNL     1       1.952 -10.461   2.896  0.00  0.00    +0.097 A 
ATOM     15  S   UNL     1       2.412 -11.964   2.306  0.00  0.00    +0.029 S 
ATOM     16  N   UNL     1       2.530 -11.611   0.732  0.00  0.00    -0.110 NA
ATOM     17  N   UNL     1       2.219 -10.365   0.647  0.00  0.00    -0.141 NA
ENDBRANCH  10  13
ENDBRANCH   4   7
BRANCH   1  18
ATOM     18  C   UNL     1      -1.157  -1.815  -0.455  0.00  0.00    +0.095 C 
BRANCH  18  19
ATOM     19  C   UNL     1      -1.385  -0.321  -0.216  0.00  0.00    -0.020 C 
BRANCH  19  20
ATOM     20  C   UNL     1      -2.198  -0.132   1.039  0.00  0.00    -0.052 A 
ATOM     21  C   UNL     1      -1.584   0.216   2.227  0.00  0.00    +0.009 A 
ATOM     22  C   UNL     1      -2.345   0.378   3.337  0.00  0.00    +0.045 A 
ATOM     23  S   UNL     1      -3.983   0.037   2.716  0.00  0.00    -0.105 S 
ATOM     24  C   UNL     1      -3.544  -0.294   1.017  0.00  0.00    +0.047 A 
ENDBRANCH  19  20
BRANCH  19  26
ATOM     25  C   UNL     1      -2.237   1.705  -1.176  0.00  0.00    -0.096 C 
ATOM     26  N   UNL     1      -2.106   0.253  -1.359  0.00  0.00    +0.382 N 
ATOM     27  C   UNL     1      -1.362  -0.020  -2.595  0.00  0.00    -0.096 C 
ATOM     28  H   UNL     1      -3.024  -0.162  -1.420  0.00  0.00    -0.082 HD
ENDBRANCH  19  26
ENDBRANCH  18  19
ENDBRANCH   1  18
TORSDOF 6
