REMARK  Name = ZINC17656045
REMARK  9 active torsions:
REMARK  status: ('A' for Active; 'I' for Inactive)
REMARK    1  A    between atoms: C_1  and  O_2
REMARK    2  A    between atoms: O_2  and  C_3
REMARK    3  A    between atoms: C_6  and  C_9
REMARK    4  A    between atoms: C_9  and  C_10
REMARK    5  A    between atoms: C_9  and  N_18
REMARK    6  A    between atoms: C_13  and  O_16
REMARK    7  A    between atoms: O_16  and  C_17
REMARK    8  A    between atoms: C_19  and  C_21
REMARK    9  A    between atoms: C_21  and  N_22
REMARK                            x       y       z     vdW  Elec       q    Type
REMARK                         _______ _______ _______ _____ _____    ______ ____
ROOT
ATOM      1  N   UNL     1       2.297  -2.667   0.855  0.00  0.00    -0.303 N 
ATOM      2  C   UNL     1       2.077  -2.806   2.177  0.00  0.00    +0.232 C 
ATOM      3  O   UNL     1       0.991  -2.532   2.643  0.00  0.00    -0.274 OA
ATOM      4  H   UNL     1       3.166  -2.886   0.483  0.00  0.00    +0.150 HD
ENDROOT
BRANCH   1   5
ATOM      5  C   UNL     1       1.226  -2.187  -0.020  0.00  0.00    +0.134 C 
BRANCH   5   9
ATOM      6  C   UNL     1       1.176   2.086   0.002  0.00  0.00    +0.120 A 
ATOM      7  C   UNL     1      -0.017   1.377   0.010  0.00  0.00    +0.046 A 
ATOM      8  C   UNL     1       0.002  -0.004   0.002  0.00  0.00    +0.009 A 
ATOM      9  C   UNL     1       1.208  -0.680  -0.013  0.00  0.00    -0.023 A 
ATOM     10  C   UNL     1       2.398   0.024  -0.020  0.00  0.00    +0.009 A 
ATOM     11  C   UNL     1       2.385   1.405  -0.013  0.00  0.00    +0.046 A 
BRANCH   6  13
ATOM     12  C   UNL     1       2.426   4.108   0.001  0.00  0.00    +0.277 C 
ATOM     13  O   UNL     1       1.160   3.445   0.009  0.00  0.00    -0.495 OA
ENDBRANCH   6  13
ENDBRANCH   5   9
BRANCH   5  14
ATOM     14  C   UNL     1       1.465  -2.679  -1.425  0.00  0.00    -0.023 A 
ATOM     15  C   UNL     1       2.747  -2.691  -1.943  0.00  0.00    +0.009 A 
ATOM     16  C   UNL     1       2.970  -3.147  -3.228  0.00  0.00    +0.046 A 
ATOM     17  C   UNL     1       1.905  -3.584  -4.002  0.00  0.00    +0.120 A 
ATOM     18  C   UNL     1       0.619  -3.566  -3.481  0.00  0.00    +0.046 A 
ATOM     19  C   UNL     1       0.402  -3.114  -2.194  0.00  0.00    +0.009 A 
BRANCH  17  20
ATOM     20  O   UNL     1       2.121  -4.029  -5.268  0.00  0.00    -0.495 OA
ATOM     21  C   UNL     1       3.470  -4.018  -5.737  0.00  0.00    +0.277 C 
ENDBRANCH  17  20
ENDBRANCH   5  14
ENDBRANCH   1   5
BRANCH   2  22
ATOM     22  C   UNL     1       3.179  -3.300   3.078  0.00  0.00    +0.213 C 
BRANCH  22  23
ATOM     23  N   UNL     1       2.692  -3.362   4.458  0.00  0.00    -0.215 N 
ATOM     24  C   UNL     1       2.780  -2.342   5.340  0.00  0.00    +0.247 C 
ATOM     25  O   UNL     1       3.285  -1.256   5.153  0.00  0.00    -0.273 OA
ATOM     26  C   UNL     1       2.121  -2.848   6.595  0.00  0.00    +0.113 C 
ATOM     27  C   UNL     1       3.109  -2.857   7.770  0.00  0.00    +0.035 C 
ATOM     28  C   UNL     1       2.335  -3.087   9.073  0.00  0.00    +0.003 C 
ATOM     29  C   UNL     1       1.766  -4.494   9.125  0.00  0.00    +0.000 C 
ATOM     30  C   UNL     1       0.271  -4.597   8.891  0.00  0.00    +0.000 C 
ATOM     31  C   UNL     1      -0.440  -3.282   8.629  0.00  0.00    +0.000 C 
ATOM     32  C   UNL     1      -0.320  -2.864   7.163  0.00  0.00    +0.003 C 
ATOM     33  C   UNL     1       0.922  -2.002   6.984  0.00  0.00    +0.035 C 
ATOM     34  N   UNL     1       1.752  -4.234   6.291  0.00  0.00    -0.285 N 
ATOM     35  C   UNL     1       2.109  -4.436   5.004  0.00  0.00    +0.310 C 
ATOM     36  O   UNL     1       1.918  -5.479   4.410  0.00  0.00    -0.252 OA
ATOM     37  H   UNL     1       1.341  -4.887   6.870  0.00  0.00    +0.151 HD
ENDBRANCH  22  23
ENDBRANCH   2  22
TORSDOF 7
