REMARK  Name = ZINC37222014
REMARK  5 active torsions:
REMARK  status: ('A' for Active; 'I' for Inactive)
REMARK    1  A    between atoms: C_1  and  C_2
REMARK    2  A    between atoms: C_2  and  C_4
REMARK    3  A    between atoms: C_2  and  N_12
REMARK    4  A    between atoms: N_9  and  C_11
REMARK    5  A    between atoms: N_12  and  C_13
REMARK                            x       y       z     vdW  Elec       q    Type
REMARK                         _______ _______ _______ _____ _____    ______ ____
ROOT
ATOM      1  N   UNL     1       0.812  -0.488   1.123  0.00  0.00    -0.339 N 
ATOM      2  H   UNL     1       0.383  -0.008   1.849  0.00  0.00    +0.146 HD
ENDROOT
BRANCH   1   3
ATOM      3  C   UNL     1       2.206  -0.503   1.023  0.00  0.00    +0.056 A 
ATOM      4  C   UNL     1       2.846   0.298   0.086  0.00  0.00    +0.041 A 
ATOM      5  C   UNL     1       4.224   0.281  -0.011  0.00  0.00    +0.032 A 
ATOM      6  C   UNL     1       4.967  -0.533   0.825  0.00  0.00    +0.020 A 
ATOM      7  C   UNL     1       4.334  -1.333   1.760  0.00  0.00    +0.032 A 
ATOM      8  C   UNL     1       2.956  -1.315   1.865  0.00  0.00    +0.041 A 
ATOM      9 BR   UNL     1       2.091  -2.403   3.148  0.00  0.00    -0.048 Br
ATOM     10 BR   UNL     1       6.854  -0.554   0.690  0.00  0.00    -0.050 Br
ATOM     11 BR   UNL     1       1.831   1.411  -1.058  0.00  0.00    -0.048 Br
ENDBRANCH   1   3
BRANCH   1  13
ATOM     12  C   UNL     1      -1.358  -0.501  -0.006  0.00  0.00    +0.028 C 
ATOM     13  C   UNL     1      -0.002  -1.196   0.132  0.00  0.00    +0.069 C 
BRANCH  13  14
ATOM     14  C   UNL     1      -0.214  -2.642   0.585  0.00  0.00    -0.008 C 
ATOM     15  C   UNL     1      -1.043  -2.658   1.872  0.00  0.00    +0.002 C 
ATOM     16  C   UNL     1      -1.316  -4.110   2.274  0.00  0.00    -0.018 C 
ATOM     17  C   UNL     1      -2.020  -4.829   1.121  0.00  0.00    -0.079 C 
ATOM     18  N   UNL     1      -1.165  -4.802  -0.072  0.00  0.00    +0.378 N 
ATOM     19  C   UNL     1      -0.958  -3.415  -0.506  0.00  0.00    -0.074 C 
ATOM     20  C   UNL     1      -1.811  -5.560  -1.153  0.00  0.00    -0.096 C 
ATOM     21  H   UNL     1      -0.274  -5.222   0.144  0.00  0.00    -0.082 HD
ENDBRANCH  13  14
ENDBRANCH   1  13
TORSDOF 3
