REMARK  Name = ZINC06555556
REMARK  7 active torsions:
REMARK  status: ('A' for Active; 'I' for Inactive)
REMARK    1  A    between atoms: C_1  and  C_2
REMARK    2  A    between atoms: C_5  and  C_23
REMARK    3  A    between atoms: N_9  and  N_10
REMARK    4  A    between atoms: C_11  and  C_13
REMARK    5  A    between atoms: C_13  and  O_14
REMARK    6  A    between atoms: O_14  and  C_15
REMARK    7  A    between atoms: C_23  and  C_25
REMARK                            x       y       z     vdW  Elec       q    Type
REMARK                         _______ _______ _______ _____ _____    ______ ____
ROOT
ATOM      1  N   UNL     1      -4.766  -1.269   2.011  0.00  0.00    -0.204 N 
ATOM      2  C   UNL     1      -5.627  -2.145   2.566  0.00  0.00    +0.270 C 
ATOM      3  O   UNL     1      -6.815  -1.900   2.584  0.00  0.00    -0.270 OA
ATOM      4  H   UNL     1      -3.817  -1.465   1.997  0.00  0.00    +0.177 HD
ENDROOT
BRANCH   1  12
ATOM      5  C   UNL     1      -6.363   2.244   0.106  0.00  0.00    +0.045 C 
ATOM      6  C   UNL     1      -4.888   2.031   0.327  0.00  0.00    -0.032 C 
ATOM      7  C   UNL     1      -4.030   2.980  -0.011  0.00  0.00    -0.021 C 
ATOM      8  C   UNL     1      -2.546   2.849   0.165  0.00  0.00    +0.035 C 
ATOM      9  C   UNL     1      -2.207   1.803   1.226  0.00  0.00    +0.024 C 
ATOM     10  C   UNL     1      -2.926   0.490   0.882  0.00  0.00    +0.065 C 
ATOM     11  C   UNL     1      -4.414   0.770   0.919  0.00  0.00    +0.062 C 
ATOM     12  N   UNL     1      -5.244  -0.075   1.454  0.00  0.00    -0.185 NA
BRANCH   9  13
ATOM     13  C   UNL     1      -0.718   1.572   1.248  0.00  0.00    -0.076 C 
ATOM     14  C   UNL     1      -0.037   1.793   2.345  0.00  0.00    +0.007 C 
ATOM     15  C   UNL     1      -0.013   1.086   0.008  0.00  0.00    +0.039 C 
ENDBRANCH   9  13
ENDBRANCH   1  12
BRANCH   2  16
ATOM     16  C   UNL     1      -5.113  -3.429   3.165  0.00  0.00    +0.326 C 
BRANCH  16  17
ATOM     17  O   UNL     1      -6.209  -4.184   3.686  0.00  0.00    -0.481 OA
BRANCH  17  18
ATOM     18  C   UNL     1      -5.916  -5.378   4.266  0.00  0.00    +0.139 A 
ATOM     19  C   UNL     1      -4.601  -5.814   4.331  0.00  0.00    +0.048 A 
ATOM     20  C   UNL     1      -4.305  -7.028   4.920  0.00  0.00    +0.019 A 
ATOM     21  C   UNL     1      -5.319  -7.809   5.445  0.00  0.00    +0.019 A 
ATOM     22  C   UNL     1      -6.632  -7.377   5.382  0.00  0.00    +0.039 A 
ATOM     23  C   UNL     1      -6.932  -6.160   4.798  0.00  0.00    +0.084 A 
ATOM     24 CL   UNL     1      -8.578  -5.614   4.724  0.00  0.00    -0.080 Cl
ATOM     25 BR   UNL     1      -4.911  -9.471   6.251  0.00  0.00    -0.050 Br
ENDBRANCH  17  18
ENDBRANCH  16  17
ENDBRANCH   2  16
TORSDOF 5
