REMARK  Name = ZINC09402810
REMARK  9 active torsions:
REMARK  status: ('A' for Active; 'I' for Inactive)
REMARK    1  A    between atoms: C_1  and  C_2
REMARK    2  A    between atoms: N_15  and  C_16
REMARK    3  A    between atoms: C_16  and  N_18
REMARK    4  A    between atoms: N_18  and  C_19
REMARK    5  A    between atoms: C_23  and  S_25
REMARK    6  A    between atoms: S_25  and  N_28
REMARK    7  A    between atoms: N_28  and  C_29
REMARK    8  A    between atoms: N_28  and  C_30
REMARK    9  A    between atoms: C_31  and  N_58
REMARK                            x       y       z     vdW  Elec       q    Type
REMARK                         _______ _______ _______ _____ _____    ______ ____
ROOT
ATOM      1  C   UNL     1      -6.117  -5.307   3.750  0.00  0.00    +0.044 C 
ATOM      2  C   UNL     1      -5.794  -3.878   4.104  0.00  0.00    -0.050 A 
ATOM      3  C   UNL     1      -4.722  -3.258   3.495  0.00  0.00    +0.005 A 
ATOM      4  C   UNL     1      -4.373  -1.948   3.783  0.00  0.00    +0.024 A 
ATOM      5  C   UNL     1      -5.157  -1.268   4.721  0.00  0.00    +0.039 A 
ATOM      6  C   UNL     1      -6.241  -1.906   5.327  0.00  0.00    -0.023 A 
ATOM      7  C   UNL     1      -6.581  -3.213   5.038  0.00  0.00    +0.009 A 
ATOM      8  C   UNL     1      -6.900  -0.933   6.275  0.00  0.00    +0.025 C 
ATOM      9  C   UNL     1      -8.317  -0.683   5.795  0.00  0.00    -0.069 C 
ATOM     10  C   UNL     1      -7.934   1.663   5.484  0.00  0.00    -0.077 C 
ATOM     11  C   UNL     1      -6.590   1.637   6.215  0.00  0.00    +0.005 C 
ATOM     12  C   UNL     1      -5.980   0.270   6.249  0.00  0.00    +0.085 C 
ATOM     13  N   UNL     1      -5.002   0.031   5.188  0.00  0.00    -0.279 N 
ATOM     14  C   UNL     1     -10.199   0.826   5.703  0.00  0.00    -0.096 C 
ATOM     15  N   UNL     1      -8.792   0.658   6.140  0.00  0.00    +0.378 N 
ATOM     16  H   UNL     1      -8.740   0.783   7.157  0.00  0.00    -0.082 HD
ENDROOT
BRANCH  13  17
ATOM     17  C   UNL     1      -4.101   0.925   4.734  0.00  0.00    +0.142 C 
ATOM     18  S   UNL     1      -3.122   0.544   3.383  0.00  0.00    -0.018 S 
BRANCH  17  19
ATOM     19  N   UNL     1      -3.973   2.120   5.344  0.00  0.00    -0.296 N 
ATOM     20  H   UNL     1      -4.385   2.909   4.958  0.00  0.00    +0.154 HD
BRANCH  19  21
ATOM     21  C   UNL     1      -3.244   2.224   6.534  0.00  0.00    +0.034 A 
ATOM     22  C   UNL     1      -2.741   1.081   7.143  0.00  0.00    +0.023 A 
ATOM     23  C   UNL     1      -2.023   1.186   8.318  0.00  0.00    +0.004 A 
ATOM     24  C   UNL     1      -1.800   2.428   8.884  0.00  0.00    +0.028 A 
ATOM     25  C   UNL     1      -2.304   3.566   8.284  0.00  0.00    +0.107 A 
ATOM     26  C   UNL     1      -3.023   3.468   7.108  0.00  0.00    +0.051 A 
BRANCH  25  27
ATOM     27  S   UNL     1      -2.022   5.145   9.014  0.00  0.00    +0.060 S 
ATOM     28  O   UNL     1      -2.125   6.101   7.967  0.00  0.00    -0.153 OA
ATOM     29  O   UNL     1      -0.858   5.019   9.818  0.00  0.00    -0.153 OA
BRANCH  27  30
ATOM     30  N   UNL     1      -3.282   5.438  10.047  0.00  0.00    -0.183 NA
ATOM     31  C   UNL     1      -3.194   5.016  11.448  0.00  0.00    +0.131 C 
ATOM     32  C   UNL     1      -4.485   6.119   9.562  0.00  0.00    +0.131 C 
ENDBRANCH  27  30
ENDBRANCH  25  27
ENDBRANCH  19  21
ENDBRANCH  17  19
ENDBRANCH  13  17
TORSDOF 5
