REMARK  Name = ZINC39455421
REMARK  10 active torsions:
REMARK  status: ('A' for Active; 'I' for Inactive)
REMARK    1  A    between atoms: C_1  and  C_2
REMARK    2  A    between atoms: C_4  and  C_9
REMARK    3  A    between atoms: C_5  and  C_8
REMARK    4  A    between atoms: C_9  and  C_10
REMARK    5  A    between atoms: C_10  and  N_11
REMARK    6  A    between atoms: N_11  and  C_12
REMARK    7  A    between atoms: C_13  and  C_15
REMARK    8  A    between atoms: C_15  and  C_16
REMARK    9  A    between atoms: N_23  and  C_24
REMARK   10  A    between atoms: C_24  and  C_25
REMARK                            x       y       z     vdW  Elec       q    Type
REMARK                         _______ _______ _______ _____ _____    ______ ____
ROOT
ATOM      1  C   UNL     1      -3.413   0.911  -6.566  0.00  0.00    +0.028 C 
ATOM      2  C   UNL     1      -3.630   1.103  -8.040  0.00  0.00    +0.200 C 
ATOM      3  O   UNL     1      -2.663   1.265  -8.755  0.00  0.00    -0.278 OA
ATOM      4  N   UNL     1      -4.847   1.102  -8.597  0.00  0.00    -0.318 N 
ATOM      5  C   UNL     1      -6.066   0.887  -7.823  0.00  0.00    +0.085 C 
ATOM      6  C   UNL     1      -5.785   1.108  -6.335  0.00  0.00    -0.058 C 
ATOM      7  N   UNL     1      -4.607   0.314  -5.955  0.00  0.00    +0.391 N 
ATOM      8  H   UNL     1      -4.922   1.250  -9.553  0.00  0.00    +0.149 HD
ATOM      9  H   UNL     1      -4.717  -0.634  -6.284  0.00  0.00    -0.080 HD
ENDROOT
BRANCH   1  10
ATOM     10  C   UNL     1      -2.214  -0.015  -6.347  0.00  0.00    +0.090 C 
BRANCH  10  13
ATOM     11  N   UNL     1      -1.554  -2.321  -6.951  0.00  0.00    -0.304 N 
ATOM     12  C   UNL     1      -0.353  -2.141  -6.131  0.00  0.00    +0.132 C 
ATOM     13  C   UNL     1      -2.449  -1.319  -7.064  0.00  0.00    +0.214 C 
ATOM     14  O   UNL     1      -3.444  -1.468  -7.742  0.00  0.00    -0.276 OA
BRANCH  11  15
ATOM     15  C   UNL     1      -1.783  -3.589  -7.648  0.00  0.00    +0.112 C 
BRANCH  15  16
ATOM     16  C   UNL     1      -2.571  -4.535  -6.740  0.00  0.00    +0.053 C 
BRANCH  16  19
ATOM     17  C   UNL     1      -5.286  -6.084  -7.743  0.00  0.00    +0.039 C 
ATOM     18  C   UNL     1      -3.921  -6.186  -8.428  0.00  0.00    +0.153 C 
ATOM     19  C   UNL     1      -2.806  -5.840  -7.457  0.00  0.00    -0.020 C 
ATOM     20  C   UNL     1      -2.082  -6.958  -7.387  0.00  0.00    +0.061 C 
ATOM     21  N   UNL     1      -2.607  -7.921  -8.177  0.00  0.00    -0.159 NA
ATOM     22  N   UNL     1      -3.626  -7.582  -8.793  0.00  0.00    -0.180 NA
ATOM     23  C   UNL     1      -0.846  -7.126  -6.541  0.00  0.00    +0.067 C 
ENDBRANCH  16  19
ENDBRANCH  15  16
ENDBRANCH  11  15
ENDBRANCH  10  13
ENDBRANCH   1  10
BRANCH   7  24
ATOM     24  C   UNL     1      -4.466   0.317  -4.493  0.00  0.00    -0.042 C 
BRANCH  24  25
ATOM     25  C   UNL     1      -5.620  -0.430  -3.876  0.00  0.00    -0.063 A 
ATOM     26  C   UNL     1      -6.783   0.261  -3.540  0.00  0.00    +0.002 A 
ATOM     27  C   UNL     1      -7.843  -0.383  -2.980  0.00  0.00    +0.009 A 
ATOM     28  C   UNL     1      -7.768  -1.765  -2.736  0.00  0.00    -0.018 A 
ATOM     29  C   UNL     1      -8.842  -2.465  -2.160  0.00  0.00    +0.008 A 
ATOM     30  C   UNL     1      -8.733  -3.803  -1.939  0.00  0.00    +0.001 A 
ATOM     31  C   UNL     1      -7.570  -4.493  -2.275  0.00  0.00    +0.001 A 
ATOM     32  C   UNL     1      -6.509  -3.849  -2.834  0.00  0.00    +0.008 A 
ATOM     33  C   UNL     1      -6.585  -2.467  -3.078  0.00  0.00    -0.018 A 
ATOM     34  C   UNL     1      -5.513  -1.769  -3.659  0.00  0.00    +0.010 A 
ENDBRANCH  24  25
ENDBRANCH   7  24
TORSDOF 7
