REMARK  Name = ZINC64981417
REMARK  6 active torsions:
REMARK  status: ('A' for Active; 'I' for Inactive)
REMARK    1  A    between atoms: C_1  and  N_2
REMARK    2  A    between atoms: N_15  and  N_16
REMARK    3  A    between atoms: C_17  and  C_18
REMARK    4  A    between atoms: C_21  and  O_25
REMARK    5  A    between atoms: C_22  and  O_24
REMARK    6  A    between atoms: O_25  and  C_26
REMARK                            x       y       z     vdW  Elec       q    Type
REMARK                         _______ _______ _______ _____ _____    ______ ____
ROOT
ATOM      1  C   UNL     1      -0.018   1.461   0.010  0.00  0.00    +0.151 C 
ATOM      2  N   UNL     1       0.002  -0.004   0.002  0.00  0.00    -0.326 N 
ATOM      3  C   UNL     1       0.007  -0.789  -1.140  0.00  0.00    +0.053 A 
ATOM      4  C   UNL     1      -0.003  -0.470  -2.494  0.00  0.00    +0.027 A 
ATOM      5  C   UNL     1       0.007  -1.473  -3.440  0.00  0.00    +0.017 A 
ATOM      6  C   UNL     1       0.027  -2.806  -3.055  0.00  0.00    +0.019 A 
ATOM      7  C   UNL     1       0.036  -3.141  -1.717  0.00  0.00    +0.027 A 
ATOM      8  C   UNL     1       0.028  -2.137  -0.752  0.00  0.00    +0.030 A 
ATOM      9  C   UNL     1       0.035  -2.145   0.721  0.00  0.00    +0.138 A 
ATOM     10  C   UNL     1       0.024  -0.794   1.125  0.00  0.00    +0.165 A 
ATOM     11  N   UNL     1       0.033  -0.524   2.427  0.00  0.00    -0.192 NA
ATOM     12  C   UNL     1       0.055  -1.526   3.296  0.00  0.00    +0.256 A 
ATOM     13  N   UNL     1       0.069  -2.791   2.891  0.00  0.00    -0.111 NA
ATOM     14  N   UNL     1       0.052  -3.099   1.640  0.00  0.00    -0.142 NA
ATOM     15  N   UNL     1       0.065  -1.247   4.652  0.00  0.00    -0.204 N 
ATOM     16 BR   UNL     1       0.040  -4.167  -4.368  0.00  0.00    -0.050 Br
ATOM     17  H   UNL     1       0.056  -0.326   4.958  0.00  0.00    +0.177 HD
ENDROOT
BRANCH  15  18
ATOM     18  N   UNL     1       0.088  -2.294   5.583  0.00  0.00    -0.187 NA
ATOM     19  C   UNL     1       0.098  -2.033   6.854  0.00  0.00    +0.138 C 
BRANCH  19  20
ATOM     20  C   UNL     1       0.122  -3.135   7.833  0.00  0.00    -0.002 A 
ATOM     21  C   UNL     1       0.142  -4.461   7.394  0.00  0.00    +0.013 A 
ATOM     22  C   UNL     1       0.165  -5.490   8.312  0.00  0.00    +0.050 A 
ATOM     23  C   UNL     1       0.169  -5.213   9.671  0.00  0.00    +0.161 A 
ATOM     24  C   UNL     1       0.149  -3.893  10.116  0.00  0.00    +0.159 A 
ATOM     25  C   UNL     1       0.132  -2.855   9.202  0.00  0.00    +0.058 A 
BRANCH  24  26
ATOM     26  O   UNL     1       0.152  -3.624  11.449  0.00  0.00    -0.503 OA
ATOM     27  H   UNL     1       1.036  -3.532  11.829  0.00  0.00    +0.292 HD
ENDBRANCH  24  26
BRANCH  23  28
ATOM     28  O   UNL     1       0.191  -6.231  10.571  0.00  0.00    -0.491 OA
ATOM     29  C   UNL     1       0.210  -7.560  10.047  0.00  0.00    +0.277 C 
ENDBRANCH  23  28
ENDBRANCH  19  20
ENDBRANCH  15  18
TORSDOF 4
