REMARK  Name = ZINC36007715
REMARK  8 active torsions:
REMARK  status: ('A' for Active; 'I' for Inactive)
REMARK    1  A    between atoms: C_1  and  C_2
REMARK    2  A    between atoms: C_7  and  C_8
REMARK    3  A    between atoms: C_7  and  C_9
REMARK    4  A    between atoms: C_11  and  N_13
REMARK    5  A    between atoms: C_14  and  C_16
REMARK    6  A    between atoms: C_16  and  S_17
REMARK    7  A    between atoms: S_17  and  C_18
REMARK    8  A    between atoms: C_21  and  C_24
REMARK                            x       y       z     vdW  Elec       q    Type
REMARK                         _______ _______ _______ _____ _____    ______ ____
ROOT
ATOM      1  N   UNL     1      -2.268  -0.017   1.012  0.00  0.00    -0.311 N 
ATOM      2  C   UNL     1      -3.606  -0.100   0.874  0.00  0.00    +0.224 C 
ATOM      3  O   UNL     1      -4.083  -0.745  -0.035  0.00  0.00    -0.275 OA
ATOM      4  H   UNL     1      -1.886   0.499   1.739  0.00  0.00    +0.149 HD
ENDROOT
BRANCH   1  14
ATOM      5  C   UNL     1      -0.019   1.526   0.010  0.00  0.00    +0.013 C 
ATOM      6  C   UNL     1       0.002  -0.004   0.002  0.00  0.00    -0.008 C 
ATOM      7  C   UNL     1       0.744  -0.669  -1.197  0.00  0.00    +0.009 C 
ATOM      8  C   UNL     1       1.062  -2.103  -0.714  0.00  0.00    +0.005 C 
ATOM      9  C   UNL     1       0.481  -2.169   0.732  0.00  0.00    -0.003 C 
ATOM     10  C   UNL     1       0.727  -0.695   1.211  0.00  0.00    -0.025 C 
ATOM     11  C   UNL     1       2.216  -0.348   1.260  0.00  0.00    +0.012 C 
ATOM     12  C   UNL     1       0.031  -0.400   2.541  0.00  0.00    +0.012 C 
ATOM     13  C   UNL     1      -1.065  -2.175   0.532  0.00  0.00    +0.027 C 
ATOM     14  C   UNL     1      -1.389  -0.705   0.062  0.00  0.00    +0.080 C 
ENDBRANCH   1  14
BRANCH   2  15
ATOM     15  C   UNL     1      -4.509   0.608   1.851  0.00  0.00    +0.173 C 
BRANCH  15  16
ATOM     16  S   UNL     1      -6.240   0.306   1.402  0.00  0.00    -0.077 S 
BRANCH  16  17
ATOM     17  C   UNL     1      -7.157   1.188   2.621  0.00  0.00    +0.185 A 
ATOM     18  N   UNL     1      -6.650   1.890   3.611  0.00  0.00    -0.201 NA
ATOM     19  H   UNL     1      -9.145   0.850   2.102  0.00  0.00    +0.191 HD
ATOM     20  C   UNL     1      -7.642   2.423   4.340  0.00  0.00    +0.182 A 
ATOM     21  N   UNL     1      -8.793   2.063   3.819  0.00  0.00    -0.152 NA
ATOM     22  N   UNL     1      -8.504   1.266   2.700  0.00  0.00    -0.253 N 
BRANCH  20  23
ATOM     23  C   UNL     1      -7.467   3.278   5.540  0.00  0.00    +0.021 A 
ATOM     24  C   UNL     1      -6.188   3.594   5.993  0.00  0.00    +0.011 A 
ATOM     25  C   UNL     1      -6.032   4.390   7.109  0.00  0.00    +0.001 A 
ATOM     26  C   UNL     1      -7.142   4.874   7.778  0.00  0.00    +0.000 A 
ATOM     27  C   UNL     1      -8.414   4.564   7.332  0.00  0.00    +0.001 A 
ATOM     28  C   UNL     1      -8.582   3.773   6.213  0.00  0.00    +0.011 A 
ENDBRANCH  20  23
ENDBRANCH  16  17
ENDBRANCH  15  16
ENDBRANCH   2  15
TORSDOF 5
