REMARK  Name = ZINC00919377
REMARK  6 active torsions:
REMARK  status: ('A' for Active; 'I' for Inactive)
REMARK    1  A    between atoms: C_4  and  S_7
REMARK    2  A    between atoms: S_7  and  N_10
REMARK    3  A    between atoms: N_10  and  C_11
REMARK    4  A    between atoms: N_10  and  C_17
REMARK    5  A    between atoms: C_11  and  C_12
REMARK    6  A    between atoms: C_17  and  C_18
REMARK                            x       y       z     vdW  Elec       q    Type
REMARK                         _______ _______ _______ _____ _____    ______ ____
ROOT
ATOM      1  C   UNL     1      -0.013   1.086   0.008  0.00  0.00    +0.150 C 
ENDROOT
BRANCH   1   2
ATOM      2  C   UNL     1      -0.718   1.572   1.248  0.00  0.00    +0.033 A 
ATOM      3  C   UNL     1      -1.633   0.778   1.861  0.00  0.00    +0.020 A 
ATOM      4  C   UNL     1      -2.296   1.276   3.065  0.00  0.00    +0.003 A 
ATOM      5  C   UNL     1      -3.245   0.499   3.741  0.00  0.00    +0.059 A 
ATOM      6  C   UNL     1      -3.858   0.997   4.871  0.00  0.00    +0.163 A 
ATOM      7  C   UNL     1      -3.535   2.273   5.343  0.00  0.00    +0.164 A 
ATOM      8  C   UNL     1      -2.598   3.048   4.681  0.00  0.00    +0.075 A 
ATOM      9  C   UNL     1      -1.973   2.561   3.541  0.00  0.00    +0.053 A 
ATOM     10  N   UNL     1      -1.037   3.321   2.867  0.00  0.00    -0.322 N 
ATOM     11  H   UNL     1      -0.809   4.234   3.205  0.00  0.00    +0.169 HD
ATOM     12  C   UNL     1      -0.430   2.851   1.764  0.00  0.00    +0.254 A 
ATOM     13  O   UNL     1       0.392   3.550   1.195  0.00  0.00    -0.268 OA
ATOM     14  O   UNL     1      -4.132   2.770   6.460  0.00  0.00    -0.485 OA
ATOM     15  C   UNL     1      -5.336   2.125   6.888  0.00  0.00    +0.270 C 
ATOM     16  C   UNL     1      -5.106   0.608   6.858  0.00  0.00    +0.270 C 
ATOM     17  O   UNL     1      -4.781   0.230   5.516  0.00  0.00    -0.485 OA
ENDBRANCH   1   2
BRANCH   1  18
ATOM     18  N   UNL     1      -0.721   1.571  -1.179  0.00  0.00    -0.165 NA
BRANCH  18  19
ATOM     19  S   UNL     1      -1.847   0.610  -1.921  0.00  0.00    +0.062 S 
ATOM     20  O   UNL     1      -1.937   1.056  -3.268  0.00  0.00    -0.153 OA
ATOM     21  O   UNL     1      -1.523  -0.731  -1.583  0.00  0.00    -0.153 OA
BRANCH  19  25
ATOM     22  C   UNL     1      -5.846   1.501   0.004  0.00  0.00    +0.000 A 
ATOM     23  C   UNL     1      -5.434   2.224  -1.100  0.00  0.00    +0.002 A 
ATOM     24  C   UNL     1      -4.213   1.952  -1.688  0.00  0.00    +0.028 A 
ATOM     25  C   UNL     1      -3.404   0.957  -1.172  0.00  0.00    +0.106 A 
ATOM     26  C   UNL     1      -3.818   0.231  -0.071  0.00  0.00    +0.028 A 
ATOM     27  C   UNL     1      -5.037   0.506   0.519  0.00  0.00    +0.002 A 
ENDBRANCH  19  25
ENDBRANCH  18  19
BRANCH  18  28
ATOM     28  C   UNL     1      -0.434   2.906  -1.709  0.00  0.00    +0.184 C 
BRANCH  28  29
ATOM     29  C   UNL     1       0.759   2.836  -2.627  0.00  0.00    +0.120 A 
ATOM     30  C   UNL     1       0.719   2.607  -3.952  0.00  0.00    +0.046 A 
ATOM     31  C   UNL     1       2.056   2.626  -4.411  0.00  0.00    +0.041 A 
ATOM     32  C   UNL     1       2.833   2.865  -3.340  0.00  0.00    +0.195 A 
ATOM     33  O   UNL     1       2.042   2.998  -2.263  0.00  0.00    -0.466 OA
ENDBRANCH  28  29
ENDBRANCH  18  28
ENDBRANCH   1  18
TORSDOF 6
