REMARK  Name = ZINC58593137
REMARK  9 active torsions:
REMARK  status: ('A' for Active; 'I' for Inactive)
REMARK    1  A    between atoms: C_1  and  C_2
REMARK    2  A    between atoms: C_7  and  C_8
REMARK    3  A    between atoms: C_7  and  C_9
REMARK    4  A    between atoms: C_11  and  N_13
REMARK    5  A    between atoms: C_14  and  C_16
REMARK    6  A    between atoms: C_16  and  C_17
REMARK    7  A    between atoms: C_17  and  N_18
REMARK    8  A    between atoms: N_18  and  S_19
REMARK    9  A    between atoms: S_19  and  C_22
REMARK                            x       y       z     vdW  Elec       q    Type
REMARK                         _______ _______ _______ _____ _____    ______ ____
ROOT
ATOM      1  C   UNL     1       0.378  -0.618  -6.090  0.00  0.00    +0.115 C 
ENDROOT
BRANCH   1   2
ATOM      2  N   UNL     1      -0.490  -0.657  -7.270  0.00  0.00    -0.189 NA
ATOM      3  H   UNL     1      -1.415  -0.938  -7.183  0.00  0.00    +0.148 HD
BRANCH   2   4
ATOM      4  S   UNL     1       0.107  -0.223  -8.752  0.00  0.00    +0.059 S 
ATOM      5  O   UNL     1      -0.954  -0.390  -9.683  0.00  0.00    -0.153 OA
ATOM      6  O   UNL     1       0.774   1.018  -8.573  0.00  0.00    -0.153 OA
BRANCH   4   7
ATOM      7  C   UNL     1       1.343  -1.403  -9.182  0.00  0.00    +0.109 A 
ATOM      8  C   UNL     1       2.658  -1.188  -8.811  0.00  0.00    +0.032 A 
ATOM      9  C   UNL     1       3.634  -2.110  -9.144  0.00  0.00    +0.051 A 
ATOM     10  C   UNL     1       3.290  -3.250  -9.851  0.00  0.00    +0.162 A 
ATOM     11  C   UNL     1       1.970  -3.465 -10.223  0.00  0.00    +0.164 A 
ATOM     12  C   UNL     1       0.995  -2.542  -9.884  0.00  0.00    +0.078 A 
ATOM     13  O   UNL     1       1.641  -4.592 -10.918  0.00  0.00    -0.488 OA
ATOM     14  C   UNL     1       2.141  -4.670 -12.255  0.00  0.00    +0.232 C 
ATOM     15  C   UNL     1       3.562  -5.211 -12.269  0.00  0.00    +0.082 C 
ATOM     16  C   UNL     1       4.543  -4.278 -11.577  0.00  0.00    +0.232 C 
ATOM     17  O   UNL     1       4.243  -4.168 -10.184  0.00  0.00    -0.488 OA
ENDBRANCH   4   7
ENDBRANCH   2   4
ENDBRANCH   1   2
BRANCH   1  18
ATOM     18  C   UNL     1      -0.478  -0.694  -4.825  0.00  0.00    +0.112 C 
BRANCH  18  20
ATOM     19  N   UNL     1      -0.124  -0.708  -2.377  0.00  0.00    -0.312 N 
ATOM     20  C   UNL     1       0.414  -0.654  -3.611  0.00  0.00    +0.215 C 
ATOM     21  O   UNL     1       1.617  -0.572  -3.746  0.00  0.00    -0.276 OA
ATOM     22  H   UNL     1      -1.085  -0.773  -2.269  0.00  0.00    +0.149 HD
BRANCH  19  32
ATOM     23  C   UNL     1       2.080   1.558  -1.535  0.00  0.00    +0.013 C 
ATOM     24  C   UNL     1       0.998   0.805  -0.758  0.00  0.00    -0.008 C 
ATOM     25  C   UNL     1      -0.411   1.473  -0.730  0.00  0.00    +0.009 C 
ATOM     26  C   UNL     1      -1.123   0.832   0.483  0.00  0.00    +0.005 C 
ATOM     27  C   UNL     1      -0.078  -0.162   1.074  0.00  0.00    -0.003 C 
ATOM     28  C   UNL     1       1.256   0.610   0.778  0.00  0.00    -0.025 C 
ATOM     29  C   UNL     1       1.325   1.945   1.523  0.00  0.00    +0.012 C 
ATOM     30  C   UNL     1       2.491  -0.254   1.047  0.00  0.00    +0.012 C 
ATOM     31  C   UNL     1      -0.004  -1.317   0.030  0.00  0.00    +0.027 C 
ATOM     32  C   UNL     1       0.744  -0.669  -1.197  0.00  0.00    +0.080 C 
ENDBRANCH  19  32
ENDBRANCH  18  20
ENDBRANCH   1  18
TORSDOF 6
