REMARK  Name = ZINC38659905
REMARK  14 active torsions:
REMARK  status: ('A' for Active; 'I' for Inactive)
REMARK    1  A    between atoms: C_1  and  C_2
REMARK    2  A    between atoms: C_6  and  O_9
REMARK    3  A    between atoms: C_7  and  C_8
REMARK    4  A    between atoms: O_9  and  C_10
REMARK    5  A    between atoms: C_10  and  C_11
REMARK    6  A    between atoms: C_11  and  O_13
REMARK    7  A    between atoms: O_13  and  C_14
REMARK    8  A    between atoms: C_21  and  N_37
REMARK    9  A    between atoms: C_22  and  C_35
REMARK   10  A    between atoms: C_23  and  C_25
REMARK   11  A    between atoms: C_27  and  O_33
REMARK   12  A    between atoms: C_30  and  O_31
REMARK   13  A    between atoms: O_31  and  C_32
REMARK   14  A    between atoms: O_33  and  C_34
REMARK                            x       y       z     vdW  Elec       q    Type
REMARK                         _______ _______ _______ _____ _____    ______ ____
ROOT
ATOM      1  C   UNL     1       0.148  -6.694   5.060  0.00  0.00    +0.135 A 
ATOM      2  C   UNL     1       0.100  -5.903   6.199  0.00  0.00    +0.047 A 
ATOM      3  C   UNL     1       0.148  -6.488   7.449  0.00  0.00    +0.012 A 
ATOM      4  C   UNL     1       0.244  -7.863   7.571  0.00  0.00    +0.008 A 
ATOM      5  C   UNL     1       0.293  -8.658   6.437  0.00  0.00    +0.138 A 
ATOM      6  C   UNL     1       0.239  -8.071   5.179  0.00  0.00    +0.093 A 
ATOM      7  O   UNL     1       0.388 -10.007   6.537  0.00  0.00    -0.441 OA
ATOM      8  C   UNL     1       0.054 -10.619   7.686  0.00  0.00    +0.199 C 
ATOM      9  C   UNL     1      -0.008  -9.951   8.862  0.00  0.00    +0.098 C 
ATOM     10  C   UNL     1       0.296  -8.482   8.943  0.00  0.00    +0.102 C 
ENDROOT
BRANCH  10  11
ATOM     11  C   UNL     1       1.673  -8.288   9.526  0.00  0.00    +0.010 A 
ATOM     12  C   UNL     1       2.777  -8.806   8.877  0.00  0.00    +0.053 A 
ATOM     13  C   UNL     1       4.043  -8.627   9.414  0.00  0.00    +0.121 A 
ATOM     14  C   UNL     1       4.201  -7.929  10.602  0.00  0.00    +0.049 A 
ATOM     15  C   UNL     1       3.097  -7.411  11.251  0.00  0.00    +0.049 A 
ATOM     16  C   UNL     1       1.831  -7.585  10.711  0.00  0.00    +0.124 A 
BRANCH  16  17
ATOM     17  O   UNL     1       0.744  -7.071  11.347  0.00  0.00    -0.495 OA
ATOM     18  C   UNL     1       0.981  -6.359  12.563  0.00  0.00    +0.277 C 
ENDBRANCH  16  17
BRANCH  13  19
ATOM     19  O   UNL     1       5.130  -9.136   8.775  0.00  0.00    -0.495 OA
ATOM     20  C   UNL     1       6.404  -8.915   9.384  0.00  0.00    +0.277 C 
ENDBRANCH  13  19
ENDBRANCH  10  11
BRANCH   8  21
ATOM     21  N   UNL     1      -0.233 -11.961   7.666  0.00  0.00    -0.328 N 
ATOM     22  H   UNL     1      -0.193 -12.454   6.831  0.00  0.00    +0.145 HD
ATOM     23  H   UNL     1      -0.475 -12.418   8.487  0.00  0.00    +0.145 HD
ENDBRANCH   8  21
BRANCH   9  24
ATOM     24  C   UNL     1      -0.370 -10.659  10.052  0.00  0.00    +0.101 C 
ATOM     25  N   UNL     1      -0.658 -11.221  10.997  0.00  0.00    -0.191 NA
ENDBRANCH   9  24
BRANCH   1  26
ATOM     26  O   UNL     1       0.101  -6.120   3.829  0.00  0.00    -0.423 OA
BRANCH  26  27
ATOM     27  C   UNL     1       1.217  -5.536   3.363  0.00  0.00    +0.350 C 
ATOM     28  O   UNL     1       2.195  -5.453   4.067  0.00  0.00    -0.247 OA
BRANCH  27  29
ATOM     29  C   UNL     1       1.249  -4.983   1.961  0.00  0.00    +0.349 C 
BRANCH  29  30
ATOM     30  O   UNL     1       2.535  -4.417   1.702  0.00  0.00    -0.481 OA
BRANCH  30  36
ATOM     31  C   UNL     1       5.486  -2.134  -1.445  0.00  0.00    +0.044 C 
ATOM     32  C   UNL     1       4.156  -2.750  -1.097  0.00  0.00    -0.044 A 
ATOM     33  C   UNL     1       3.134  -2.760  -2.029  0.00  0.00    +0.004 A 
ATOM     34  C   UNL     1       1.913  -3.325  -1.712  0.00  0.00    +0.004 A 
ATOM     35  C   UNL     1       1.709  -3.881  -0.464  0.00  0.00    +0.046 A 
ATOM     36  C   UNL     1       2.732  -3.872   0.473  0.00  0.00    +0.124 A 
ATOM     37  C   UNL     1       3.960  -3.309   0.151  0.00  0.00    -0.006 A 
ATOM     38  C   UNL     1       5.075  -3.304   1.164  0.00  0.00    +0.048 C 
ENDBRANCH  30  36
ENDBRANCH  29  30
ENDBRANCH  27  29
ENDBRANCH  26  27
ENDBRANCH   1  26
TORSDOF 10
