REMARK  Name = ZINC09088244
REMARK  6 active torsions:
REMARK  status: ('A' for Active; 'I' for Inactive)
REMARK    1  A    between atoms: C_4  and  C_7
REMARK    2  A    between atoms: C_7  and  C_8
REMARK    3  A    between atoms: C_7  and  C_14
REMARK    4  A    between atoms: C_7  and  O_34
REMARK    5  A    between atoms: C_19  and  N_61
REMARK    6  A    between atoms: N_24  and  C_27
REMARK                            x       y       z     vdW  Elec       q    Type
REMARK                         _______ _______ _______ _____ _____    ______ ____
ROOT
ATOM      1  C   UNL     1      -3.022   8.778  -3.678  0.00  0.00    +0.026 C 
ATOM      2  C   UNL     1      -3.578   9.414  -2.400  0.00  0.00    -0.012 C 
ATOM      3  C   UNL     1      -2.991   8.697  -1.183  0.00  0.00    -0.077 C 
ATOM      4  C   UNL     1      -0.967   8.160  -2.402  0.00  0.00    -0.077 C 
ATOM      5  C   UNL     1      -1.494   8.862  -3.656  0.00  0.00    -0.012 C 
ATOM      6  N   UNL     1      -1.520   8.834  -1.208  0.00  0.00    +0.388 N 
ATOM      7  H   UNL     1      -1.279   9.832  -1.248  0.00  0.00    -0.081 HD
ENDROOT
BRANCH   6   8
ATOM      8  C   UNL     1      -0.936   8.249   0.017  0.00  0.00    +0.029 C 
ATOM      9  C   UNL     1      -1.355   6.776   0.200  0.00  0.00    +0.090 C 
ATOM     10  C   UNL     1      -2.111   6.782   1.511  0.00  0.00    +0.225 C 
ATOM     11  O   UNL     1      -2.615   5.813   2.037  0.00  0.00    -0.275 OA
ATOM     12  N   UNL     1      -2.137   8.029   1.998  0.00  0.00    -0.212 N 
ATOM     13  C   UNL     1      -1.504   8.934   1.241  0.00  0.00    +0.213 C 
ATOM     14  O   UNL     1      -1.401  10.115   1.495  0.00  0.00    -0.277 OA
BRANCH  12  15
ATOM     15  C   UNL     1      -2.769   8.360   3.205  0.00  0.00    +0.044 A 
ATOM     16  C   UNL     1      -4.151   8.280   3.311  0.00  0.00    +0.025 A 
ATOM     17  C   UNL     1      -4.772   8.606   4.500  0.00  0.00    +0.017 A 
ATOM     18  C   UNL     1      -4.018   9.012   5.587  0.00  0.00    +0.018 A 
ATOM     19  C   UNL     1      -2.641   9.099   5.483  0.00  0.00    +0.017 A 
ATOM     20  C   UNL     1      -2.015   8.768   4.297  0.00  0.00    +0.025 A 
ATOM     21 BR   UNL     1      -4.871   9.458   7.214  0.00  0.00    -0.050 Br
ENDBRANCH  12  15
ENDBRANCH   6   8
BRANCH   1  22
ATOM     22  C   UNL     1      -3.560   9.529  -4.898  0.00  0.00    +0.119 C 
BRANCH  22  26
ATOM     23  C   UNL     1      -2.007   7.754  -8.460  0.00  0.00    +0.000 A 
ATOM     24  C   UNL     1      -2.308   9.103  -8.434  0.00  0.00    +0.000 A 
ATOM     25  C   UNL     1      -2.810   9.678  -7.281  0.00  0.00    +0.007 A 
ATOM     26  C   UNL     1      -3.012   8.903  -6.154  0.00  0.00    -0.011 A 
ATOM     27  C   UNL     1      -2.706   7.555  -6.178  0.00  0.00    +0.007 A 
ATOM     28  C   UNL     1      -2.208   6.980  -7.332  0.00  0.00    +0.000 A 
ENDBRANCH  22  26
BRANCH  22  29
ATOM     29  C   UNL     1      -5.065   9.452  -4.913  0.00  0.00    -0.011 A 
ATOM     30  C   UNL     1      -5.706   8.352  -4.374  0.00  0.00    +0.007 A 
ATOM     31  C   UNL     1      -7.086   8.282  -4.384  0.00  0.00    +0.000 A 
ATOM     32  C   UNL     1      -7.826   9.309  -4.940  0.00  0.00    +0.000 A 
ATOM     33  C   UNL     1      -7.185  10.407  -5.484  0.00  0.00    +0.000 A 
ATOM     34  C   UNL     1      -5.804  10.478  -5.470  0.00  0.00    +0.007 A 
ENDBRANCH  22  29
BRANCH  22  35
ATOM     35  O   UNL     1      -3.154  10.898  -4.832  0.00  0.00    -0.379 OA
ATOM     36  H   UNL     1      -2.195  11.023  -4.819  0.00  0.00    +0.211 HD
ENDBRANCH  22  35
ENDBRANCH   1  22
TORSDOF 6
