REMARK  Name = ZINC40814646
REMARK  7 active torsions:
REMARK  status: ('A' for Active; 'I' for Inactive)
REMARK    1  A    between atoms: C_1  and  C_2
REMARK    2  A    between atoms: C_6  and  C_7
REMARK    3  A    between atoms: N_9  and  C_10
REMARK    4  A    between atoms: N_24  and  N_25
REMARK    5  A    between atoms: C_26  and  C_28
REMARK    6  A    between atoms: C_28  and  C_29
REMARK    7  A    between atoms: C_32  and  N_35
REMARK                            x       y       z     vdW  Elec       q    Type
REMARK                         _______ _______ _______ _____ _____    ______ ____
ROOT
ATOM      1  C   UNL     1      -0.008   1.502   0.010  0.00  0.00    +0.048 C 
ATOM      2  C   UNL     1       0.020  -0.004   0.002  0.00  0.00    +0.009 A 
ATOM      3  C   UNL     1       0.037  -0.839  -1.123  0.00  0.00    +0.042 A 
ATOM      4  C   UNL     1       0.058  -2.138  -0.673  0.00  0.00    +0.115 A 
ATOM      5  O   UNL     1       0.057  -2.112   0.658  0.00  0.00    -0.454 OA
ATOM      6  C   UNL     1       0.038  -0.831   1.091  0.00  0.00    +0.193 A 
ATOM      7  C   UNL     1       0.076  -3.327  -1.599  0.00  0.00    +0.075 C 
ATOM      8  C   UNL     1      -0.441  -2.905  -2.977  0.00  0.00    +0.014 C 
ATOM      9  C   UNL     1       0.328  -1.684  -3.493  0.00  0.00    +0.058 C 
ATOM     10  C   UNL     1       0.038  -0.513  -2.566  0.00  0.00    +0.070 C 
ATOM     11  N   UNL     1      -0.192   0.685  -3.009  0.00  0.00    -0.184 NA
ENDROOT
BRANCH   6  12
ATOM     12  C   UNL     1       0.034  -0.400   2.493  0.00  0.00    +0.284 C 
ATOM     13  O   UNL     1       0.013   0.786   2.765  0.00  0.00    -0.266 OA
ATOM     14  N   UNL     1       0.054  -1.318   3.480  0.00  0.00    -0.278 N 
ATOM     15  H   UNL     1      -0.010  -2.262   3.266  0.00  0.00    +0.155 HD
BRANCH  14  16
ATOM     16  C   UNL     1       0.166  -0.910   4.808  0.00  0.00    +0.043 A 
ATOM     17  C   UNL     1       0.753   0.299   5.119  0.00  0.00    +0.024 A 
ATOM     18  C   UNL     1       0.869   0.711   6.442  0.00  0.00    +0.004 A 
ATOM     19  C   UNL     1       0.408  -0.062   7.464  0.00  0.00    +0.028 A 
ATOM     20  C   UNL     1      -0.197  -1.301   7.192  0.00  0.00    +0.073 A 
ATOM     21  C   UNL     1      -0.324  -1.728   5.848  0.00  0.00    +0.022 A 
ATOM     22  C   UNL     1      -0.935  -2.965   5.579  0.00  0.00    +0.013 A 
ATOM     23  C   UNL     1      -1.386  -3.704   6.636  0.00  0.00    +0.020 A 
ATOM     24  C   UNL     1      -1.235  -3.225   7.935  0.00  0.00    +0.111 A 
ATOM     25  N   UNL     1      -0.655  -2.075   8.182  0.00  0.00    -0.255 NA
ENDBRANCH  14  16
ENDBRANCH   6  12
BRANCH  11  26
ATOM     26  N   UNL     1      -0.179   0.936  -4.388  0.00  0.00    -0.206 N 
ATOM     27  C   UNL     1      -0.419   2.180  -4.848  0.00  0.00    +0.237 C 
ATOM     28  O   UNL     1      -0.645   3.082  -4.069  0.00  0.00    -0.274 OA
ATOM     29  H   UNL     1       0.002   0.215  -5.010  0.00  0.00    +0.177 HD
BRANCH  27  30
ATOM     30  C   UNL     1      -0.404   2.450  -6.330  0.00  0.00    +0.132 C 
BRANCH  30  31
ATOM     31  C   UNL     1      -0.699   3.908  -6.578  0.00  0.00    -0.038 A 
ATOM     32  C   UNL     1      -2.005   4.331  -6.742  0.00  0.00    +0.006 A 
ATOM     33  C   UNL     1      -2.275   5.667  -6.969  0.00  0.00    +0.033 A 
ATOM     34  C   UNL     1      -1.239   6.581  -7.032  0.00  0.00    +0.126 A 
ATOM     35  C   UNL     1       0.067   6.158  -6.867  0.00  0.00    +0.033 A 
ATOM     36  C   UNL     1       0.336   4.822  -6.636  0.00  0.00    +0.006 A 
BRANCH  34  37
ATOM     37  N   UNL     1      -1.528   8.012  -7.276  0.00  0.00    +0.056 N 
ATOM     38  O   UNL     1      -2.670   8.382  -7.421  0.00  0.00    -0.126 OA
ATOM     39  O   UNL     1      -0.622   8.811  -7.331  0.00  0.00    -0.126 OA
ENDBRANCH  34  37
ENDBRANCH  30  31
ENDBRANCH  27  30
ENDBRANCH  11  26
TORSDOF 6
