REMARK  Name = ZINC18323064
REMARK  8 active torsions:
REMARK  status: ('A' for Active; 'I' for Inactive)
REMARK    1  A    between atoms: C_1  and  C_2
REMARK    2  A    between atoms: C_2  and  C_30
REMARK    3  A    between atoms: C_6  and  C_16
REMARK    4  A    between atoms: C_18  and  O_25
REMARK    5  A    between atoms: C_19  and  O_24
REMARK    6  A    between atoms: C_20  and  O_22
REMARK    7  A    between atoms: O_22  and  C_23
REMARK    8  A    between atoms: O_25  and  C_26
REMARK                            x       y       z     vdW  Elec       q    Type
REMARK                         _______ _______ _______ _____ _____    ______ ____
ROOT
ATOM      1  C   UNL     1      -1.255   2.463   2.386  0.00  0.00    +0.011 C 
ATOM      2  C   UNL     1      -1.870   2.730   1.010  0.00  0.00    -0.023 C 
ATOM      3  C   UNL     1      -3.197   1.978   0.874  0.00  0.00    +0.058 C 
ATOM      4  C   UNL     1      -3.798   2.229  -0.499  0.00  0.00    +0.017 C 
ATOM      5  C   UNL     1      -3.004   2.415  -1.566  0.00  0.00    +0.036 C 
ATOM      6  C   UNL     1      -3.465   2.650  -2.985  0.00  0.00    +0.136 C 
ATOM      7  N   UNL     1      -4.879   2.931  -3.116  0.00  0.00    -0.331 N 
ATOM      8  C   UNL     1      -5.838   1.975  -2.785  0.00  0.00    +0.049 A 
ATOM      9  C   UNL     1      -6.636   1.386  -3.752  0.00  0.00    +0.025 A 
ATOM     10  C   UNL     1      -7.496   0.363  -3.394  0.00  0.00    +0.002 A 
ATOM     11  C   UNL     1      -7.562  -0.068  -2.082  0.00  0.00    +0.002 A 
ATOM     12  C   UNL     1      -6.782   0.532  -1.109  0.00  0.00    +0.025 A 
ATOM     13  C   UNL     1      -5.933   1.567  -1.463  0.00  0.00    +0.052 A 
ATOM     14  N   UNL     1      -5.155   2.242  -0.530  0.00  0.00    -0.316 N 
ATOM     15  C   UNL     1      -1.597   2.402  -1.417  0.00  0.00    +0.163 C 
ATOM     16  O   UNL     1      -0.902   2.550  -2.404  0.00  0.00    -0.292 OA
ATOM     17  C   UNL     1      -0.932   2.213  -0.087  0.00  0.00    +0.086 C 
ATOM     18  C   UNL     1      -2.104   4.231   0.828  0.00  0.00    +0.011 C 
ATOM     19  H   UNL     1      -5.165   3.800  -3.441  0.00  0.00    +0.147 HD
ATOM     20  H   UNL     1      -5.615   2.760   0.149  0.00  0.00    +0.152 HD
ENDROOT
BRANCH   6  21
ATOM     21  C   UNL     1      -3.144   1.425  -3.801  0.00  0.00    -0.016 A 
ATOM     22  C   UNL     1      -3.679   0.201  -3.446  0.00  0.00    +0.055 A 
ATOM     23  C   UNL     1      -3.391  -0.928  -4.198  0.00  0.00    +0.165 A 
ATOM     24  C   UNL     1      -2.553  -0.830  -5.302  0.00  0.00    +0.201 A 
ATOM     25  C   UNL     1      -2.012   0.401  -5.652  0.00  0.00    +0.165 A 
ATOM     26  C   UNL     1      -2.310   1.527  -4.898  0.00  0.00    +0.055 A 
BRANCH  25  27
ATOM     27  O   UNL     1      -1.191   0.503  -6.732  0.00  0.00    -0.491 OA
ATOM     28  C   UNL     1      -0.672   1.800  -7.032  0.00  0.00    +0.277 C 
ENDBRANCH  25  27
BRANCH  24  29
ATOM     29  O   UNL     1      -2.262  -1.937  -6.039  0.00  0.00    -0.501 OA
ATOM     30  H   UNL     1      -1.480  -2.417  -5.735  0.00  0.00    +0.292 HD
ENDBRANCH  24  29
BRANCH  23  31
ATOM     31  O   UNL     1      -3.923  -2.131  -3.852  0.00  0.00    -0.491 OA
ATOM     32  C   UNL     1      -4.674  -2.183  -2.637  0.00  0.00    +0.277 C 
ENDBRANCH  23  31
ENDBRANCH   6  21
TORSDOF 4
