REMARK  Name = ZINC59015179
REMARK  8 active torsions:
REMARK  status: ('A' for Active; 'I' for Inactive)
REMARK    1  A    between atoms: C_2  and  C_3
REMARK    2  A    between atoms: C_3  and  S_4
REMARK    3  A    between atoms: S_4  and  C_5
REMARK    4  A    between atoms: C_11  and  C_13
REMARK    5  A    between atoms: C_13  and  S_14
REMARK    6  A    between atoms: S_14  and  C_15
REMARK    7  A    between atoms: N_20  and  N_21
REMARK    8  A    between atoms: C_22  and  C_23
REMARK                            x       y       z     vdW  Elec       q    Type
REMARK                         _______ _______ _______ _____ _____    ______ ____
ROOT
ATOM      1  C   UNL     1     -11.025  -6.613  -0.011  0.00  0.00    +0.211 A 
ATOM      2  N   UNL     1     -12.102  -6.845   0.747  0.00  0.00    -0.186 NA
ATOM      3  C   UNL     1     -12.914  -7.671   0.122  0.00  0.00    +0.232 A 
ATOM      4  N   UNL     1     -12.356  -7.985  -1.066  0.00  0.00    -0.245 N 
ATOM      5  N   UNL     1     -11.140  -7.285  -1.131  0.00  0.00    -0.144 NA
ATOM      6  N   UNL     1     -14.126  -8.136   0.599  0.00  0.00    -0.205 N 
ATOM      7  H   UNL     1     -14.656  -8.746   0.063  0.00  0.00    +0.177 HD
ATOM      8  H   UNL     1     -12.723  -8.574  -1.743  0.00  0.00    +0.192 HD
ENDROOT
BRANCH   6   9
ATOM      9  N   UNL     1     -14.588  -7.726   1.856  0.00  0.00    -0.188 NA
ATOM     10  C   UNL     1     -15.726  -8.163   2.304  0.00  0.00    +0.139 C 
BRANCH  10  11
ATOM     11  C   UNL     1     -16.212  -7.731   3.628  0.00  0.00    +0.013 A 
ATOM     12  C   UNL     1     -17.433  -8.204   4.115  0.00  0.00    +0.011 A 
ATOM     13  C   UNL     1     -17.881  -7.796   5.354  0.00  0.00    +0.001 A 
ATOM     14  C   UNL     1     -17.125  -6.920   6.114  0.00  0.00    +0.001 A 
ATOM     15  C   UNL     1     -15.915  -6.448   5.639  0.00  0.00    +0.020 A 
ATOM     16  C   UNL     1     -15.450  -6.852   4.403  0.00  0.00    +0.050 A 
ATOM     17 CL   UNL     1     -13.927  -6.265   3.811  0.00  0.00    -0.083 Cl
ENDBRANCH  10  11
ENDBRANCH   6   9
BRANCH   1  18
ATOM     18  S   UNL     1      -9.674  -5.569   0.422  0.00  0.00    -0.075 S 
BRANCH  18  19
ATOM     19  C   UNL     1      -8.563  -5.673  -1.008  0.00  0.00    +0.173 C 
BRANCH  19  26
ATOM     20  C   UNL     1      -2.999  -2.535  -1.381  0.00  0.00    +0.160 A 
ATOM     21  N   UNL     1      -3.874  -2.524  -0.386  0.00  0.00    -0.133 NA
ATOM     22  N   UNL     1      -4.944  -3.190  -0.431  0.00  0.00    -0.125 NA
ATOM     23  C   UNL     1      -5.259  -3.940  -1.474  0.00  0.00    +0.189 A 
ATOM     24  S   UNL     1      -3.835  -3.638  -2.517  0.00  0.00    -0.024 S 
ATOM     25  N   UNL     1      -6.380  -4.735  -1.698  0.00  0.00    -0.263 N 
ATOM     26  C   UNL     1      -7.349  -4.813  -0.764  0.00  0.00    +0.229 C 
ATOM     27  O   UNL     1      -7.244  -4.191   0.272  0.00  0.00    -0.275 OA
ATOM     28  H   UNL     1      -6.465  -5.232  -2.527  0.00  0.00    +0.157 HD
BRANCH  20  29
ATOM     29  S   UNL     1      -1.457  -1.697  -1.543  0.00  0.00    -0.093 S 
BRANCH  29  30
ATOM     30  C   UNL     1      -1.293  -0.775   0.010  0.00  0.00    +0.103 C 
BRANCH  30  32
ATOM     31  C   UNL     1      -0.016   1.306   0.009  0.00  0.00    +0.005 C 
ATOM     32  C   UNL     1       0.002  -0.004   0.002  0.00  0.00    -0.023 C 
ENDBRANCH  30  32
ENDBRANCH  29  30
ENDBRANCH  20  29
ENDBRANCH  19  26
ENDBRANCH  18  19
ENDBRANCH   1  18
TORSDOF 8
