REMARK  Name = ZINC13065333
REMARK  11 active torsions:
REMARK  status: ('A' for Active; 'I' for Inactive)
REMARK    1  A    between atoms: C_1  and  C_2
REMARK    2  A    between atoms: C_2  and  C_3
REMARK    3  A    between atoms: N_5  and  N_6
REMARK    4  A    between atoms: C_7  and  C_9
REMARK    5  A    between atoms: C_9  and  S_10
REMARK    6  A    between atoms: S_10  and  C_11
REMARK    7  A    between atoms: C_18  and  C_20
REMARK    8  A    between atoms: C_24  and  C_28
REMARK    9  A    between atoms: C_28  and  C_29
REMARK   10  A    between atoms: C_28  and  C_30
REMARK   11  A    between atoms: C_28  and  C_31
REMARK                            x       y       z     vdW  Elec       q    Type
REMARK                         _______ _______ _______ _____ _____    ______ ____
ROOT
ATOM      1  C   UNL     1       3.325  -3.537  -4.748  0.00  0.00    +0.109 A 
ATOM      2  C   UNL     1       3.484  -2.364  -3.954  0.00  0.00    +0.043 A 
ATOM      3  C   UNL     1       2.561  -1.847  -2.958  0.00  0.00    -0.025 A 
ATOM      4  C   UNL     1       2.926  -0.709  -2.325  0.00  0.00    -0.004 A 
ATOM      5  S   UNL     1       4.502  -0.274  -3.018  0.00  0.00    -0.073 S 
ATOM      6  C   UNL     1       4.670  -1.613  -4.152  0.00  0.00    +0.113 A 
ATOM      7  N   UNL     1       5.605  -1.951  -5.019  0.00  0.00    -0.225 NA
ATOM      8  C   UNL     1       5.395  -3.055  -5.726  0.00  0.00    +0.135 A 
ATOM      9  N   UNL     1       4.317  -3.803  -5.596  0.00  0.00    -0.225 NA
ATOM     10  C   UNL     1       2.162   0.025  -1.267  0.00  0.00    +0.046 C 
ATOM     11  C   UNL     1       0.718  -0.497  -1.257  0.00  0.00    -0.000 C 
ATOM     12  C   UNL     1       0.748  -2.029  -1.264  0.00  0.00    +0.009 C 
ATOM     13  C   UNL     1       1.239  -2.532  -2.621  0.00  0.00    +0.037 C 
ENDROOT
BRANCH  11  14
ATOM     14  C   UNL     1       0.002  -0.004   0.002  0.00  0.00    -0.035 C 
ATOM     15  C   UNL     1      -0.019   1.526   0.010  0.00  0.00    +0.011 C 
ATOM     16  C   UNL     1       0.742  -0.511   1.242  0.00  0.00    +0.011 C 
ATOM     17  C   UNL     1      -1.433  -0.534   0.013  0.00  0.00    +0.011 C 
ENDBRANCH  11  14
BRANCH   8  18
ATOM     18  C   UNL     1       6.441  -3.474  -6.726  0.00  0.00    +0.057 C 
ATOM     19  C   UNL     1       6.095  -4.627  -7.670  0.00  0.00    +0.012 C 
ATOM     20  C   UNL     1       7.095  -4.843  -6.533  0.00  0.00    +0.012 C 
ENDBRANCH   8  18
BRANCH   1  21
ATOM     21  S   UNL     1       1.905  -4.573  -4.615  0.00  0.00    -0.096 S 
BRANCH  21  22
ATOM     22  C   UNL     1       2.318  -5.832  -5.847  0.00  0.00    +0.173 C 
BRANCH  22  24
ATOM     23  N   UNL     1       1.305  -7.894  -6.763  0.00  0.00    -0.234 N 
ATOM     24  C   UNL     1       1.214  -6.855  -5.910  0.00  0.00    +0.239 C 
ATOM     25  O   UNL     1       0.242  -6.744  -5.192  0.00  0.00    -0.273 OA
ATOM     26  H   UNL     1       2.081  -7.984  -7.337  0.00  0.00    +0.173 HD
BRANCH  23  29
ATOM     27  C   UNL     1       0.368  -9.884  -7.675  0.00  0.00    +0.229 C 
ATOM     28  O   UNL     1       1.340  -9.996  -8.393  0.00  0.00    -0.274 OA
ATOM     29  N   UNL     1       0.278  -8.845  -6.821  0.00  0.00    -0.234 N 
ATOM     30  H   UNL     1      -0.499  -8.756  -6.247  0.00  0.00    +0.173 HD
BRANCH  27  32
ATOM     31  C   UNL     1      -0.387 -11.972  -8.779  0.00  0.00    +0.013 C 
ATOM     32  C   UNL     1      -0.736 -10.907  -7.737  0.00  0.00    +0.094 C 
ENDBRANCH  27  32
ENDBRANCH  23  29
ENDBRANCH  22  24
ENDBRANCH  21  22
ENDBRANCH   1  21
TORSDOF 7
