REMARK  Name = ZINC43763126
REMARK  4 active torsions:
REMARK  status: ('A' for Active; 'I' for Inactive)
REMARK    1  A    between atoms: C_2  and  C_3
REMARK    2  A    between atoms: C_3  and  C_4
REMARK    3  A    between atoms: C_4  and  O_25
REMARK    4  A    between atoms: C_6  and  C_7
REMARK                            x       y       z     vdW  Elec       q    Type
REMARK                         _______ _______ _______ _____ _____    ______ ____
ROOT
ATOM      1  C   UNL     1       1.491  -1.711   1.178  0.00  0.00    +0.122 C 
ATOM      2  C   UNL     1       0.479  -2.828   1.039  0.00  0.00    -0.035 C 
ATOM      3  C   UNL     1      -0.567  -2.701   0.235  0.00  0.00    +0.010 C 
ATOM      4  C   UNL     1       0.692  -4.093   1.841  0.00  0.00    +0.036 C 
ATOM      5  C   UNL     1       2.118  -4.595   1.593  0.00  0.00    +0.042 C 
ATOM      6  C   UNL     1       3.112  -3.476   1.903  0.00  0.00    +0.102 C 
ATOM      7  C   UNL     1       2.890  -2.294   0.964  0.00  0.00    +0.131 C 
ATOM      8  C   UNL     1       3.028  -2.764  -0.498  0.00  0.00    +0.043 C 
ATOM      9  C   UNL     1       3.766  -1.568  -1.159  0.00  0.00    +0.031 C 
ATOM     10  C   UNL     1       4.669  -1.097   0.009  0.00  0.00    +0.161 C 
ATOM     11  O   UNL     1       3.879  -1.286   1.194  0.00  0.00    -0.367 OA
ATOM     12  C   UNL     1       2.920  -3.015   3.363  0.00  0.00    +0.040 C 
ATOM     13  C   UNL     1       4.042  -3.794   4.104  0.00  0.00    +0.031 C 
ATOM     14  C   UNL     1       5.149  -3.816   3.020  0.00  0.00    +0.161 C 
ATOM     15  O   UNL     1       4.452  -3.963   1.773  0.00  0.00    -0.370 OA
ENDROOT
BRANCH   3  16
ATOM     16  C   UNL     1      -1.642  -3.716   0.255  0.00  0.00    -0.025 A 
ATOM     17  C   UNL     1      -1.998  -4.335   1.454  0.00  0.00    +0.008 A 
ATOM     18  C   UNL     1      -3.002  -5.281   1.466  0.00  0.00    +0.001 A 
ATOM     19  C   UNL     1      -3.655  -5.616   0.293  0.00  0.00    +0.000 A 
ATOM     20  C   UNL     1      -3.307  -5.006  -0.898  0.00  0.00    +0.001 A 
ATOM     21  C   UNL     1      -2.309  -4.054  -0.923  0.00  0.00    +0.008 A 
ENDBRANCH   3  16
BRANCH   1  22
ATOM     22  O   UNL     1       1.403  -1.139   2.484  0.00  0.00    -0.381 OA
ATOM     23  H   UNL     1       0.539  -0.756   2.689  0.00  0.00    +0.211 HD
ENDBRANCH   1  22
BRANCH   1  24
ATOM     24  C   UNL     1       1.216  -0.635   0.126  0.00  0.00    +0.069 C 
BRANCH  24  26
ATOM     25  C   UNL     1      -0.135   1.336   0.629  0.00  0.00    +0.004 C 
ATOM     26  C   UNL     1      -0.096   0.042   0.430  0.00  0.00    -0.031 C 
ENDBRANCH  24  26
ENDBRANCH   1  24
TORSDOF 4
