REMARK  Name = ZINC16756461
REMARK  3 active torsions:
REMARK  status: ('A' for Active; 'I' for Inactive)
REMARK    1  A    between atoms: C_1  and  C_2
REMARK    2  A    between atoms: C_9  and  C_19
REMARK    3  A    between atoms: C_13  and  C_17
REMARK                            x       y       z     vdW  Elec       q    Type
REMARK                         _______ _______ _______ _____ _____    ______ ____
ROOT
ATOM      1  C   UNL     1       5.410   2.969   0.062  0.00  0.00    +0.086 C 
ATOM      2  C   UNL     1       3.982   2.486   0.036  0.00  0.00    +0.110 A 
ATOM      3  C   UNL     1       3.104   3.099  -0.777  0.00  0.00    +0.088 A 
ATOM      4  C   UNL     1       1.761   2.658  -0.813  0.00  0.00    +0.143 A 
ATOM      5  C   UNL     1       1.399   1.603  -0.003  0.00  0.00    +0.091 A 
ATOM      6  C   UNL     1       2.370   1.015   0.817  0.00  0.00    +0.345 A 
ATOM      7  O   UNL     1       2.061   0.081   1.538  0.00  0.00    -0.245 OA
ATOM      8  O   UNL     1       3.633   1.462   0.822  0.00  0.00    -0.427 OA
ATOM      9  C   UNL     1      -0.013   1.086   0.008  0.00  0.00    +0.100 C 
ATOM     10  C   UNL     1      -0.759   1.580  -1.200  0.00  0.00    +0.091 A 
ATOM     11  C   UNL     1      -0.279   2.636  -1.946  0.00  0.00    +0.143 A 
ATOM     12  C   UNL     1      -1.027   3.056  -3.070  0.00  0.00    +0.088 A 
ATOM     13  C   UNL     1      -2.172   2.421  -3.379  0.00  0.00    +0.110 A 
ATOM     14  O   UNL     1      -2.638   1.397  -2.657  0.00  0.00    -0.427 OA
ATOM     15  C   UNL     1      -1.959   0.970  -1.584  0.00  0.00    +0.345 A 
ATOM     16  O   UNL     1      -2.393   0.035  -0.932  0.00  0.00    -0.245 OA
ATOM     17  C   UNL     1      -2.957   2.880  -4.581  0.00  0.00    +0.086 C 
ATOM     18  O   UNL     1       0.870   3.261  -1.623  0.00  0.00    -0.455 OA
ENDROOT
BRANCH   9  19
ATOM     19  C   UNL     1      -0.711   1.568   1.253  0.00  0.00    -0.035 A 
ATOM     20  C   UNL     1      -0.849   2.924   1.487  0.00  0.00    +0.005 A 
ATOM     21  C   UNL     1      -1.494   3.367   2.627  0.00  0.00    +0.015 A 
ATOM     22  C   UNL     1      -1.992   2.454   3.538  0.00  0.00    +0.018 A 
ATOM     23  C   UNL     1      -1.849   1.097   3.307  0.00  0.00    +0.015 A 
ATOM     24  C   UNL     1      -1.209   0.655   2.164  0.00  0.00    +0.005 A 
ATOM     25 BR   UNL     1      -2.868   3.059   5.101  0.00  0.00    -0.050 Br
ENDBRANCH   9  19
TORSDOF 1
