REMARK  Name = ZINC67288288
REMARK  5 active torsions:
REMARK  status: ('A' for Active; 'I' for Inactive)
REMARK    1  A    between atoms: C_4  and  N_27
REMARK    2  A    between atoms: C_5  and  N_7
REMARK    3  A    between atoms: N_7  and  C_8
REMARK    4  A    between atoms: C_8  and  C_9
REMARK    5  A    between atoms: C_14  and  C_17
REMARK                            x       y       z     vdW  Elec       q    Type
REMARK                         _______ _______ _______ _____ _____    ______ ____
ROOT
ATOM      1  C   UNL     1       0.191  -4.281  -0.314  0.00  0.00    +0.233 C 
ATOM      2  O   UNL     1       1.328  -4.692  -0.216  0.00  0.00    -0.274 OA
ATOM      3  N   UNL     1      -0.830  -5.149  -0.453  0.00  0.00    -0.296 N 
ATOM      4  C   UNL     1      -0.601  -6.603  -0.484  0.00  0.00    +0.113 C 
ATOM      5  C   UNL     1      -1.325  -7.221   0.715  0.00  0.00    +0.054 C 
ATOM      6  C   UNL     1      -2.710  -6.660   0.835  0.00  0.00    -0.039 C 
ATOM      7  C   UNL     1      -3.108  -5.541   0.276  0.00  0.00    -0.004 C 
ATOM      8  C   UNL     1      -2.219  -4.682  -0.573  0.00  0.00    +0.135 C 
ENDROOT
BRANCH   6   9
ATOM      9  C   UNL     1      -3.693  -7.417   1.636  0.00  0.00    +0.005 A 
ATOM     10  C   UNL     1      -4.324  -8.564   1.275  0.00  0.00    +0.093 A 
ATOM     11  N   UNL     1      -5.159  -8.965   2.278  0.00  0.00    -0.345 N 
ATOM     12  H   UNL     1      -5.716  -9.758   2.251  0.00  0.00    +0.167 HD
ATOM     13  C   UNL     1      -5.098  -8.084   3.333  0.00  0.00    +0.139 A 
ATOM     14  C   UNL     1      -4.176  -7.080   2.984  0.00  0.00    +0.026 A 
ATOM     15  C   UNL     1      -3.912  -6.047   3.883  0.00  0.00    +0.013 A 
ATOM     16  C   UNL     1      -4.574  -6.056   5.097  0.00  0.00    +0.020 A 
ATOM     17  C   UNL     1      -5.467  -7.078   5.377  0.00  0.00    +0.113 A 
ATOM     18  N   UNL     1      -5.707  -8.039   4.511  0.00  0.00    -0.237 NA
ENDBRANCH   6   9
BRANCH   1  19
ATOM     19  C   UNL     1      -0.079  -2.798  -0.279  0.00  0.00    +0.197 C 
BRANCH  19  20
ATOM     20  N   UNL     1       1.186  -2.075  -0.121  0.00  0.00    -0.334 N 
ATOM     21  H   UNL     1       2.020  -2.566  -0.058  0.00  0.00    +0.147 HD
BRANCH  20  26
ATOM     22  C   UNL     1       0.021   1.409  -0.218  0.00  0.00    +0.002 A 
ATOM     23  C   UNL     1       1.197   2.085   0.052  0.00  0.00    +0.002 A 
ATOM     24  C   UNL     1       2.369   1.383   0.264  0.00  0.00    +0.034 A 
ATOM     25  C   UNL     1       2.369   0.003   0.207  0.00  0.00    +0.147 A 
ATOM     26  C   UNL     1       1.189  -0.680  -0.063  0.00  0.00    +0.058 A 
ATOM     27  C   UNL     1       0.014   0.029  -0.276  0.00  0.00    +0.025 A 
BRANCH  25  28
ATOM     28  N   UNL     1       3.623  -0.749   0.434  0.00  0.00    +0.058 N 
ATOM     29  O   UNL     1       3.600  -1.796   1.037  0.00  0.00    -0.126 OA
ATOM     30  O   UNL     1       4.672  -0.314   0.017  0.00  0.00    -0.126 OA
ENDBRANCH  25  28
ENDBRANCH  20  26
ENDBRANCH  19  20
ENDBRANCH   1  19
TORSDOF 5
