REMARK  Name = ZINC03441084
REMARK  6 active torsions:
REMARK  status: ('A' for Active; 'I' for Inactive)
REMARK    1  A    between atoms: C_1  and  C_2
REMARK    2  A    between atoms: C_2  and  C_4
REMARK    3  A    between atoms: C_2  and  S_14
REMARK    4  A    between atoms: S_14  and  C_15
REMARK    5  A    between atoms: N_27  and  C_28
REMARK    6  A    between atoms: C_28  and  C_29
REMARK                            x       y       z     vdW  Elec       q    Type
REMARK                         _______ _______ _______ _____ _____    ______ ____
ROOT
ATOM      1  C   UNL     1      -1.220   3.246   0.022  0.00  0.00    +0.173 A 
ATOM      2  N   UNL     1      -0.108   3.952   0.016  0.00  0.00    -0.216 NA
ATOM      3  C   UNL     1       1.077   3.352   0.001  0.00  0.00    +0.117 A 
ATOM      4  C   UNL     1       1.206   1.956  -0.009  0.00  0.00    +0.076 A 
ATOM      5  C   UNL     1       2.583   1.434  -0.025  0.00  0.00    -0.023 A 
ATOM      6  C   UNL     1       3.574   2.339  -0.031  0.00  0.00    -0.004 A 
ATOM      7  S   UNL     1       2.758   3.918  -0.013  0.00  0.00    -0.073 S 
ATOM      8  C   UNL     1       4.934   1.692  -0.052  0.00  0.00    +0.043 C 
ATOM      9  C   UNL     1       4.664   0.237  -0.494  0.00  0.00    +0.010 C 
ATOM     10  C   UNL     1       3.207   0.036  -0.034  0.00  0.00    +0.037 C 
ATOM     11  C   UNL     1      -0.017   1.213  -0.001  0.00  0.00    +0.263 A 
ATOM     12  O   UNL     1      -0.001  -0.006  -0.009  0.00  0.00    -0.267 OA
ATOM     13  N   UNL     1      -1.185   1.881   0.010  0.00  0.00    -0.285 N 
ENDROOT
BRANCH   1  14
ATOM     14  S   UNL     1      -2.775   4.074   0.042  0.00  0.00    -0.075 S 
BRANCH  14  16
ATOM     15  C   UNL     1      -1.464   6.084   1.349  0.00  0.00    +0.029 C 
ATOM     16  C   UNL     1      -2.214   5.795   0.047  0.00  0.00    +0.137 C 
BRANCH  16  17
ATOM     17  C   UNL     1      -3.405   6.712  -0.061  0.00  0.00    +0.231 C 
ATOM     18  O   UNL     1      -4.496   6.335   0.312  0.00  0.00    -0.274 OA
ATOM     19  N   UNL     1      -3.258   7.951  -0.571  0.00  0.00    -0.269 N 
ATOM     20  C   UNL     1      -4.376   8.761  -0.769  0.00  0.00    +0.125 A 
ATOM     21  C   UNL     1      -4.231   9.995  -1.393  0.00  0.00    +0.045 A 
ATOM     22  C   UNL     1      -5.348  10.788  -1.583  0.00  0.00    +0.025 A 
ATOM     23  C   UNL     1      -6.578  10.318  -1.141  0.00  0.00    +0.059 A 
ATOM     24  C   UNL     1      -6.649   9.081  -0.529  0.00  0.00    +0.132 A 
ATOM     25  N   UNL     1      -5.566   8.345  -0.366  0.00  0.00    -0.239 NA
ATOM     26 CL   UNL     1      -8.011  11.274  -1.355  0.00  0.00    -0.082 Cl
ATOM     27  H   UNL     1      -2.375   8.279  -0.800  0.00  0.00    +0.156 HD
ENDBRANCH  16  17
ENDBRANCH  14  16
ENDBRANCH   1  14
BRANCH  13  28
ATOM     28  C   UNL     1      -2.443   1.130   0.012  0.00  0.00    +0.159 C 
BRANCH  28  29
ATOM     29  C   UNL     1      -2.873   0.860   1.455  0.00  0.00    +0.138 C 
ATOM     30  C   UNL     1      -4.135  -0.030   1.468  0.00  0.00    +0.035 C 
ATOM     31  C   UNL     1      -4.960   0.587   2.630  0.00  0.00    +0.031 C 
ATOM     32  C   UNL     1      -4.588   2.084   2.493  0.00  0.00    +0.160 C 
ATOM     33  O   UNL     1      -3.206   2.093   2.102  0.00  0.00    -0.375 OA
ENDBRANCH  28  29
ENDBRANCH  13  28
TORSDOF 5
