REMARK  Name = ZINC63310900
REMARK  6 active torsions:
REMARK  status: ('A' for Active; 'I' for Inactive)
REMARK    1  A    between atoms: C_1  and  N_2
REMARK    2  A    between atoms: C_3  and  C_5
REMARK    3  A    between atoms: C_8  and  N_11
REMARK    4  A    between atoms: N_11  and  S_12
REMARK    5  A    between atoms: S_12  and  C_15
REMARK    6  A    between atoms: C_18  and  C_21
REMARK                            x       y       z     vdW  Elec       q    Type
REMARK                         _______ _______ _______ _____ _____    ______ ____
ROOT
ATOM      1  S   UNL     1       3.438  -6.991   1.549  0.00  0.00    +0.059 S 
ATOM      2  O   UNL     1       3.146  -8.376   1.429  0.00  0.00    -0.153 OA
ATOM      3  O   UNL     1       4.583  -6.399   0.949  0.00  0.00    -0.153 OA
ENDROOT
BRANCH   1   4
ATOM      4  C   UNL     1       3.536  -6.643   3.273  0.00  0.00    +0.105 A 
ATOM      5  C   UNL     1       4.261  -5.553   3.719  0.00  0.00    +0.029 A 
ATOM      6  C   UNL     1       4.338  -5.281   5.072  0.00  0.00    +0.006 A 
ATOM      7  C   UNL     1       3.690  -6.098   5.979  0.00  0.00    -0.044 A 
ATOM      8  C   UNL     1       2.965  -7.187   5.534  0.00  0.00    +0.006 A 
ATOM      9  C   UNL     1       2.884  -7.457   4.181  0.00  0.00    +0.029 A 
BRANCH   7  10
ATOM     10  C   UNL     1       3.775  -5.801   7.454  0.00  0.00    +0.019 C 
ATOM     11  C   UNL     1       4.411  -6.990   8.178  0.00  0.00    +0.008 C 
ATOM     12  C   UNL     1       4.497  -6.689   9.675  0.00  0.00    +0.001 C 
ATOM     13  C   UNL     1       3.091  -6.448  10.229  0.00  0.00    +0.000 C 
ATOM     14  C   UNL     1       2.455  -5.259   9.505  0.00  0.00    +0.001 C 
ATOM     15  C   UNL     1       2.369  -5.560   8.008  0.00  0.00    +0.008 C 
ENDBRANCH   7  10
ENDBRANCH   1   4
BRANCH   1  16
ATOM     16  N   UNL     1       2.122  -6.177   0.960  0.00  0.00    -0.187 NA
ATOM     17  H   UNL     1       1.363  -6.670   0.609  0.00  0.00    +0.148 HD
BRANCH  16  21
ATOM     18  C   UNL     1       0.625  -2.182   0.995  0.00  0.00    +0.075 C 
ATOM     19  C   UNL     1       1.341  -2.676  -0.264  0.00  0.00    +0.014 C 
ATOM     20  C   UNL     1       1.362  -4.205  -0.272  0.00  0.00    +0.021 C 
ATOM     21  C   UNL     1       2.102  -4.712   0.968  0.00  0.00    +0.077 C 
ATOM     22  C   UNL     1       1.386  -4.219   2.226  0.00  0.00    +0.021 C 
ATOM     23  C   UNL     1       1.365  -2.689   2.235  0.00  0.00    +0.014 C 
BRANCH  18  26
ATOM     24  C   UNL     1      -0.018   1.461   0.010  0.00  0.00    +0.128 C 
ATOM     25  N   UNL     1       0.002  -0.004   0.002  0.00  0.00    -0.318 N 
ATOM     26  C   UNL     1       0.604  -0.675   1.004  0.00  0.00    +0.216 C 
ATOM     27  O   UNL     1       1.130  -0.067   1.911  0.00  0.00    -0.276 OA
ATOM     28  H   UNL     1      -0.418  -0.491  -0.724  0.00  0.00    +0.148 HD
ENDBRANCH  18  26
ENDBRANCH  16  21
ENDBRANCH   1  16
TORSDOF 5
