REMARK  Name = ZINC65880254
REMARK  6 active torsions:
REMARK  status: ('A' for Active; 'I' for Inactive)
REMARK    1  A    between atoms: C_1  and  O_2
REMARK    2  A    between atoms: O_2  and  C_3
REMARK    3  A    between atoms: C_8  and  C_9
REMARK    4  A    between atoms: C_10  and  C_11
REMARK    5  A    between atoms: C_11  and  N_13
REMARK    6  A    between atoms: C_17  and  C_20
REMARK                            x       y       z     vdW  Elec       q    Type
REMARK                         _______ _______ _______ _____ _____    ______ ____
ROOT
ATOM      1  N   UNL     1      -0.408  -6.330   0.847  0.00  0.00    -0.142 NA
ATOM      2  C   UNL     1      -0.943  -7.074   1.810  0.00  0.00    +0.216 A 
ATOM      3  N   UNL     1      -1.582  -6.617   2.922  0.00  0.00    -0.308 N 
ATOM      4  H   UNL     1      -1.727  -5.686   3.153  0.00  0.00    +0.170 HD
ATOM      5  C   UNL     1      -1.986  -7.708   3.663  0.00  0.00    +0.179 A 
ATOM      6  N   UNL     1      -1.619  -8.796   3.047  0.00  0.00    -0.151 NA
ATOM      7  N   UNL     1      -0.960  -8.432   1.865  0.00  0.00    -0.246 N 
ATOM      8  H   UNL     1      -0.584  -9.038   1.207  0.00  0.00    +0.192 HD
ENDROOT
BRANCH   5   9
ATOM      9  C   UNL     1      -2.716  -7.651   4.949  0.00  0.00    +0.108 A 
ATOM     10  C   UNL     1      -3.062  -8.835   5.601  0.00  0.00    +0.031 A 
ATOM     11  C   UNL     1      -3.745  -8.766   6.803  0.00  0.00    +0.004 A 
ATOM     12  C   UNL     1      -4.060  -7.515   7.315  0.00  0.00    +0.020 A 
ATOM     13  C   UNL     1      -3.687  -6.382   6.616  0.00  0.00    +0.111 A 
ATOM     14  N   UNL     1      -3.033  -6.474   5.476  0.00  0.00    -0.252 NA
ENDBRANCH   5   9
BRANCH   1  15
ATOM     15  C   UNL     1      -0.465  -4.994   0.923  0.00  0.00    +0.263 C 
ATOM     16  O   UNL     1      -1.008  -4.460   1.876  0.00  0.00    -0.269 OA
BRANCH  15  18
ATOM     17  C   UNL     1       0.070  -2.829  -0.064  0.00  0.00    +0.016 C 
ATOM     18  C   UNL     1       0.127  -4.173  -0.140  0.00  0.00    +0.070 C 
BRANCH  17  24
ATOM     19  C   UNL     1       0.605  -0.606  -1.054  0.00  0.00    +0.127 A 
ATOM     20  C   UNL     1       1.172   0.159  -2.061  0.00  0.00    +0.046 A 
ATOM     21  C   UNL     1       1.785  -0.455  -3.136  0.00  0.00    +0.004 A 
ATOM     22  C   UNL     1       1.839  -1.837  -3.218  0.00  0.00    +0.001 A 
ATOM     23  C   UNL     1       1.281  -2.615  -2.226  0.00  0.00    +0.011 A 
ATOM     24  C   UNL     1       0.662  -2.006  -1.129  0.00  0.00    +0.017 A 
BRANCH  19  26
ATOM     25  C   UNL     1      -0.017   1.425   0.010  0.00  0.00    +0.277 C 
ATOM     26  O   UNL     1       0.002  -0.004   0.002  0.00  0.00    -0.495 OA
ENDBRANCH  19  26
ENDBRANCH  17  24
ENDBRANCH  15  18
ENDBRANCH   1  15
TORSDOF 5
