REMARK  Name = ZINC14480065
REMARK  6 active torsions:
REMARK  status: ('A' for Active; 'I' for Inactive)
REMARK    1  A    between atoms: C_1  and  C_2
REMARK    2  A    between atoms: C_6  and  C_8
REMARK    3  A    between atoms: C_19  and  S_24
REMARK    4  A    between atoms: S_24  and  N_27
REMARK    5  A    between atoms: N_27  and  C_28
REMARK    6  A    between atoms: C_28  and  C_29
REMARK                            x       y       z     vdW  Elec       q    Type
REMARK                         _______ _______ _______ _____ _____    ______ ____
ROOT
ATOM      1  C   UNL     1       2.351   5.277   0.445  0.00  0.00    +0.105 C 
ATOM      2  C   UNL     1       1.465   6.314  -0.254  0.00  0.00    +0.029 C 
ATOM      3  C   UNL     1       1.598   7.647   0.539  0.00  0.00    +0.033 C 
ATOM      4  C   UNL     1       0.629   7.469   1.692  0.00  0.00    -0.030 C 
ATOM      5  C   UNL     1      -0.269   6.560   1.399  0.00  0.00    -0.023 C 
ATOM      6  C   UNL     1      -0.020   6.004   0.018  0.00  0.00    +0.049 C 
ATOM      7  C   UNL     1      -0.333   4.543  -0.048  0.00  0.00    -0.018 A 
ATOM      8  C   UNL     1      -1.663   4.147  -0.074  0.00  0.00    +0.034 A 
ATOM      9  C   UNL     1      -1.996   2.809  -0.143  0.00  0.00    +0.106 A 
ATOM     10  C   UNL     1      -1.005   1.845  -0.175  0.00  0.00    +0.030 A 
ATOM     11  C   UNL     1       0.322   2.226  -0.148  0.00  0.00    +0.025 A 
ATOM     12  C   UNL     1       0.657   3.573  -0.085  0.00  0.00    +0.031 A 
ATOM     13  N   UNL     1       2.006   3.943  -0.056  0.00  0.00    -0.336 N 
ATOM     14  H   UNL     1       2.695   3.332  -0.359  0.00  0.00    +0.147 HD
ENDROOT
BRANCH   1  20
ATOM     15  C   UNL     1      -0.146   3.751   4.504  0.00  0.00    +0.044 C 
ATOM     16  C   UNL     1       0.926   4.603   3.875  0.00  0.00    -0.050 A 
ATOM     17  C   UNL     1       1.698   5.436   4.663  0.00  0.00    +0.003 A 
ATOM     18  C   UNL     1       2.681   6.218   4.086  0.00  0.00    +0.001 A 
ATOM     19  C   UNL     1       2.896   6.163   2.721  0.00  0.00    +0.005 A 
ATOM     20  C   UNL     1       2.120   5.334   1.933  0.00  0.00    -0.027 A 
ATOM     21  C   UNL     1       1.137   4.551   2.510  0.00  0.00    +0.008 A 
ENDBRANCH   1  20
BRANCH   9  22
ATOM     22  S   UNL     1      -3.690   2.328  -0.184  0.00  0.00    +0.059 S 
ATOM     23  O   UNL     1      -4.416   3.438  -0.694  0.00  0.00    -0.153 OA
ATOM     24  O   UNL     1      -3.733   1.045  -0.793  0.00  0.00    -0.153 OA
BRANCH  22  25
ATOM     25  N   UNL     1      -4.179   2.124   1.385  0.00  0.00    -0.186 NA
ATOM     26  H   UNL     1      -4.438   1.244   1.702  0.00  0.00    +0.148 HD
BRANCH  25  27
ATOM     27  C   UNL     1      -4.219   3.271   2.295  0.00  0.00    +0.132 C 
BRANCH  27  28
ATOM     28  C   UNL     1      -5.027   2.915   3.517  0.00  0.00    -0.018 C 
ATOM     29  C   UNL     1      -4.503   3.050   4.710  0.00  0.00    +0.005 C 
ENDBRANCH  27  28
ENDBRANCH  25  27
ENDBRANCH  22  25
ENDBRANCH   9  22
TORSDOF 5
