REMARK  Name = ZINC39898569
REMARK  11 active torsions:
REMARK  status: ('A' for Active; 'I' for Inactive)
REMARK    1  A    between atoms: C_1  and  C_2
REMARK    2  A    between atoms: C_2  and  C_3
REMARK    3  A    between atoms: C_3  and  C_4
REMARK    4  A    between atoms: C_4  and  C_5
REMARK    5  A    between atoms: C_5  and  N_6
REMARK    6  A    between atoms: C_7  and  C_25
REMARK    7  A    between atoms: C_10  and  C_17
REMARK    8  A    between atoms: C_22  and  O_23
REMARK    9  A    between atoms: C_27  and  O_33
REMARK   10  A    between atoms: C_28  and  O_32
REMARK   11  A    between atoms: O_33  and  C_34
REMARK                            x       y       z     vdW  Elec       q    Type
REMARK                         _______ _______ _______ _____ _____    ______ ____
ROOT
ATOM      1  N   UNL     1      -2.973  -4.385   0.228  0.00  0.00    -0.285 N 
ATOM      2  C   UNL     1      -2.906  -4.853  -1.162  0.00  0.00    +0.141 C 
ATOM      3  C   UNL     1      -2.644  -6.333  -1.091  0.00  0.00    +0.035 A 
ATOM      4  C   UNL     1      -2.440  -7.529  -1.786  0.00  0.00    +0.102 A 
ATOM      5  N   UNL     1      -2.262  -8.481  -0.891  0.00  0.00    -0.173 NA
ATOM      6  N   UNL     1      -2.332  -8.004   0.301  0.00  0.00    -0.272 N 
ATOM      7  H   UNL     1      -2.231  -8.521   1.115  0.00  0.00    +0.189 HD
ATOM      8  C   UNL     1      -2.571  -6.659   0.250  0.00  0.00    +0.126 A 
ATOM      9  C   UNL     1      -2.771  -5.439   1.039  0.00  0.00    +0.265 C 
ATOM     10  O   UNL     1      -2.760  -5.388   2.254  0.00  0.00    -0.268 OA
ENDROOT
BRANCH   4  11
ATOM     11  C   UNL     1      -2.428  -7.697  -3.261  0.00  0.00    +0.045 A 
ATOM     12  C   UNL     1      -2.489  -6.582  -4.092  0.00  0.00    +0.033 A 
ATOM     13  C   UNL     1      -2.477  -6.743  -5.464  0.00  0.00    +0.042 A 
ATOM     14  C   UNL     1      -2.404  -8.011  -6.016  0.00  0.00    +0.023 A 
ATOM     15  C   UNL     1      -2.343  -9.124  -5.199  0.00  0.00    +0.047 A 
ATOM     16  C   UNL     1      -2.349  -8.975  -3.821  0.00  0.00    +0.126 A 
ATOM     17 CL   UNL     1      -2.554  -5.352  -6.499  0.00  0.00    -0.084 Cl
BRANCH  16  18
ATOM     18  O   UNL     1      -2.283 -10.069  -3.017  0.00  0.00    -0.506 OA
ATOM     19  H   UNL     1      -3.145 -10.439  -2.786  0.00  0.00    +0.292 HD
ENDBRANCH  16  18
ENDBRANCH   4  11
BRANCH   2  20
ATOM     20  C   UNL     1      -4.215  -4.590  -1.861  0.00  0.00    -0.018 A 
ATOM     21  C   UNL     1      -5.406  -4.922  -1.243  0.00  0.00    +0.055 A 
ATOM     22  C   UNL     1      -6.610  -4.681  -1.884  0.00  0.00    +0.163 A 
ATOM     23  C   UNL     1      -6.618  -4.105  -3.151  0.00  0.00    +0.173 A 
ATOM     24  C   UNL     1      -5.420  -3.774  -3.765  0.00  0.00    +0.063 A 
ATOM     25  C   UNL     1      -4.221  -4.013  -3.117  0.00  0.00    +0.025 A 
ATOM     26 BR   UNL     1      -5.425  -2.991  -5.487  0.00  0.00    -0.046 Br
BRANCH  23  27
ATOM     27  O   UNL     1      -7.797  -3.867  -3.785  0.00  0.00    -0.503 OA
ATOM     28  H   UNL     1      -8.173  -2.995  -3.602  0.00  0.00    +0.292 HD
ENDBRANCH  23  27
BRANCH  22  29
ATOM     29  O   UNL     1      -7.783  -5.008  -1.278  0.00  0.00    -0.491 OA
ATOM     30  C   UNL     1      -7.707  -5.482   0.068  0.00  0.00    +0.277 C 
ENDBRANCH  22  29
ENDBRANCH   2  20
BRANCH   1  31
ATOM     31  C   UNL     1      -3.212  -3.005   0.658  0.00  0.00    +0.109 C 
BRANCH  31  32
ATOM     32  C   UNL     1      -1.875  -2.271   0.785  0.00  0.00    +0.019 C 
BRANCH  32  33
ATOM     33  C   UNL     1      -2.125  -0.830   1.234  0.00  0.00    +0.001 C 
BRANCH  33  35
ATOM     34  C   UNL     1      -1.038   1.345   1.809  0.00  0.00    +0.004 C 
ATOM     35  C   UNL     1      -0.788  -0.096   1.360  0.00  0.00    -0.003 C 
ENDBRANCH  33  35
ENDBRANCH  32  33
ENDBRANCH  31  32
ENDBRANCH   1  31
TORSDOF 9
