REMARK  Name = ZINC38943032
REMARK  11 active torsions:
REMARK  status: ('A' for Active; 'I' for Inactive)
REMARK    1  A    between atoms: C_1  and  C_2
REMARK    2  A    between atoms: C_3  and  S_9
REMARK    3  A    between atoms: C_4  and  C_8
REMARK    4  A    between atoms: S_9  and  N_12
REMARK    5  A    between atoms: N_12  and  C_13
REMARK    6  A    between atoms: C_21  and  C_29
REMARK    7  A    between atoms: C_21  and  C_30
REMARK    8  A    between atoms: N_24  and  C_25
REMARK    9  A    between atoms: C_25  and  C_26
REMARK   10  A    between atoms: C_26  and  C_27
REMARK   11  A    between atoms: C_26  and  C_28
REMARK                            x       y       z     vdW  Elec       q    Type
REMARK                         _______ _______ _______ _____ _____    ______ ____
ROOT
ATOM      1  C   UNL     1       2.995  -0.358  -3.667  0.00  0.00    +0.052 A 
ATOM      2  C   UNL     1       2.373  -1.370  -2.947  0.00  0.00    +0.026 A 
ATOM      3  C   UNL     1       2.795  -2.679  -3.084  0.00  0.00    +0.029 A 
ATOM      4  C   UNL     1       3.840  -2.982  -3.942  0.00  0.00    +0.078 A 
ATOM      5  C   UNL     1       4.469  -1.969  -4.664  0.00  0.00    +0.144 A 
ATOM      6  C   UNL     1       4.040  -0.660  -4.531  0.00  0.00    +0.072 A 
ATOM      7  O   UNL     1       5.500  -2.275  -5.495  0.00  0.00    -0.489 OA
ATOM      8  C   UNL     1       6.758  -2.568  -4.891  0.00  0.00    +0.244 C 
ATOM      9  C   UNL     1       6.570  -3.484  -3.683  0.00  0.00    +0.076 C 
ATOM     10  C   UNL     1       5.596  -4.584  -4.016  0.00  0.00    +0.229 C 
ATOM     11  O   UNL     1       5.995  -5.713  -4.210  0.00  0.00    -0.275 OA
ATOM     12  N   UNL     1       4.275  -4.308  -4.095  0.00  0.00    -0.267 N 
ATOM     13  C   UNL     1       7.917  -4.097  -3.298  0.00  0.00    +0.024 C 
ATOM     14  C   UNL     1       6.031  -2.668  -2.507  0.00  0.00    +0.024 C 
ENDROOT
BRANCH   1  15
ATOM     15  N   UNL     1       2.565   0.965  -3.527  0.00  0.00    -0.216 N 
ATOM     16  H   UNL     1       3.092   1.595  -3.011  0.00  0.00    +0.174 HD
BRANCH  15  17
ATOM     17  S   UNL     1       1.155   1.458  -4.244  0.00  0.00    +0.076 S 
ATOM     18  O   UNL     1       0.989   2.829  -3.913  0.00  0.00    -0.150 OA
ATOM     19  O   UNL     1       0.177   0.475  -3.932  0.00  0.00    -0.150 OA
BRANCH  17  22
ATOM     20  C   UNL     1       0.352  -0.904  -6.381  0.00  0.00    +0.067 C 
ATOM     21  C   UNL     1       1.040   0.369  -6.801  0.00  0.00    +0.060 A 
ATOM     22  C   UNL     1       1.404   1.386  -5.987  0.00  0.00    +0.151 A 
ATOM     23  C   UNL     1       2.011   2.371  -6.772  0.00  0.00    +0.087 A 
ATOM     24  N   UNL     1       2.012   1.960  -8.014  0.00  0.00    -0.177 NA
ATOM     25  N   UNL     1       1.409   0.696  -8.058  0.00  0.00    -0.280 N 
ATOM     26  H   UNL     1       1.278   0.153  -8.851  0.00  0.00    +0.189 HD
ATOM     27  C   UNL     1       2.568   3.680  -6.274  0.00  0.00    +0.069 C 
ENDBRANCH  17  22
ENDBRANCH  15  17
ENDBRANCH   1  15
BRANCH  12  28
ATOM     28  C   UNL     1       3.308  -5.381  -4.339  0.00  0.00    +0.116 C 
BRANCH  28  29
ATOM     29  C   UNL     1       3.100  -5.548  -5.846  0.00  0.00    +0.001 C 
ATOM     30  C   UNL     1       2.187  -6.748  -6.105  0.00  0.00    +0.009 C 
ATOM     31  C   UNL     1       2.453  -4.283  -6.414  0.00  0.00    +0.009 C 
ENDBRANCH  28  29
ENDBRANCH  12  28
TORSDOF 5
