REMARK  Name = ZINC59795279
REMARK  8 active torsions:
REMARK  status: ('A' for Active; 'I' for Inactive)
REMARK    1  A    between atoms: C_2  and  C_3
REMARK    2  A    between atoms: C_3  and  S_4
REMARK    3  A    between atoms: S_4  and  C_5
REMARK    4  A    between atoms: C_10  and  N_14
REMARK    5  A    between atoms: C_15  and  C_17
REMARK    6  A    between atoms: C_17  and  S_18
REMARK    7  A    between atoms: S_18  and  C_19
REMARK    8  A    between atoms: C_22  and  C_25
REMARK                            x       y       z     vdW  Elec       q    Type
REMARK                         _______ _______ _______ _____ _____    ______ ____
ROOT
ATOM      1  N   UNL     1      -8.488  -5.548  -0.865  0.00  0.00    -0.285 N 
ATOM      2  C   UNL     1      -9.363  -5.656   0.155  0.00  0.00    +0.227 C 
ATOM      3  O   UNL     1      -9.196  -5.011   1.168  0.00  0.00    -0.275 OA
ATOM      4  H   UNL     1      -8.658  -6.011  -1.700  0.00  0.00    +0.155 HD
ENDROOT
BRANCH   1  10
ATOM      5  C   UNL     1      -4.087  -1.282   0.518  0.00  0.00    +0.136 A 
ATOM      6  N   UNL     1      -3.966  -2.367  -0.213  0.00  0.00    -0.233 NA
ATOM      7  C   UNL     1      -4.999  -3.211  -0.436  0.00  0.00    +0.080 A 
ATOM      8  C   UNL     1      -5.001  -4.402  -1.198  0.00  0.00    +0.031 A 
ATOM      9  C   UNL     1      -6.142  -5.150  -1.327  0.00  0.00    +0.025 A 
ATOM     10  C   UNL     1      -7.334  -4.767  -0.718  0.00  0.00    +0.035 A 
ATOM     11  C   UNL     1      -7.365  -3.602   0.037  0.00  0.00    +0.040 A 
ATOM     12  C   UNL     1      -6.224  -2.851   0.169  0.00  0.00    +0.042 A 
ATOM     13  S   UNL     1      -5.804  -1.345   1.012  0.00  0.00    -0.061 S 
BRANCH   5  14
ATOM     14  S   UNL     1      -2.866  -0.076   0.916  0.00  0.00    -0.095 S 
BRANCH  14  15
ATOM     15  C   UNL     1      -1.374  -0.666   0.071  0.00  0.00    +0.103 C 
BRANCH  15  17
ATOM     16  C   UNL     1       0.808  -0.110   1.016  0.00  0.00    +0.005 C 
ATOM     17  C   UNL     1      -0.237   0.288   0.333  0.00  0.00    -0.023 C 
ENDBRANCH  15  17
ENDBRANCH  14  15
ENDBRANCH   5  14
ENDBRANCH   1  10
BRANCH   2  18
ATOM     18  C   UNL     1     -10.549  -6.578   0.035  0.00  0.00    +0.173 C 
BRANCH  18  19
ATOM     19  S   UNL     1     -11.530  -6.502   1.559  0.00  0.00    -0.077 S 
BRANCH  19  20
ATOM     20  C   UNL     1     -12.861  -7.618   1.266  0.00  0.00    +0.185 A 
ATOM     21  N   UNL     1     -13.052  -8.322   0.172  0.00  0.00    -0.201 NA
ATOM     22  H   UNL     1     -13.984  -7.540   3.018  0.00  0.00    +0.191 HD
ATOM     23  C   UNL     1     -14.163  -9.062   0.300  0.00  0.00    +0.182 A 
ATOM     24  N   UNL     1     -14.692  -8.834   1.481  0.00  0.00    -0.152 NA
ATOM     25  N   UNL     1     -13.862  -7.905   2.128  0.00  0.00    -0.253 N 
BRANCH  23  26
ATOM     26  C   UNL     1     -14.707  -9.986  -0.726  0.00  0.00    +0.021 A 
ATOM     27  C   UNL     1     -14.049 -10.146  -1.943  0.00  0.00    +0.013 A 
ATOM     28  C   UNL     1     -14.559 -11.006  -2.893  0.00  0.00    +0.021 A 
ATOM     29  C   UNL     1     -15.723 -11.711  -2.639  0.00  0.00    +0.041 A 
ATOM     30  C   UNL     1     -16.381 -11.556  -1.431  0.00  0.00    +0.021 A 
ATOM     31  C   UNL     1     -15.876 -10.702  -0.472  0.00  0.00    +0.013 A 
ATOM     32 CL   UNL     1     -16.360 -12.792  -3.839  0.00  0.00    -0.084 Cl
ENDBRANCH  23  26
ENDBRANCH  19  20
ENDBRANCH  18  19
ENDBRANCH   2  18
TORSDOF 8
