REMARK  Name = ZINC39722241
REMARK  8 active torsions:
REMARK  status: ('A' for Active; 'I' for Inactive)
REMARK    1  A    between atoms: C_1  and  O_2
REMARK    2  A    between atoms: O_2  and  C_3
REMARK    3  A    between atoms: C_6  and  C_9
REMARK    4  A    between atoms: C_13  and  S_21
REMARK    5  A    between atoms: N_14  and  C_15
REMARK    6  A    between atoms: S_21  and  C_22
REMARK    7  A    between atoms: C_22  and  C_23
REMARK    8  A    between atoms: C_31  and  C_35
REMARK                            x       y       z     vdW  Elec       q    Type
REMARK                         _______ _______ _______ _____ _____    ______ ____
ROOT
ATOM      1  C   UNL     1      -4.992  -2.636   0.044  0.00  0.00    +0.213 C 
ATOM      2  N   UNL     1      -6.014  -1.799  -0.608  0.00  0.00    -0.242 N 
ATOM      3  N   UNL     1      -6.460  -2.523  -1.721  0.00  0.00    -0.162 NA
ATOM      4  C   UNL     1      -5.853  -3.657  -1.820  0.00  0.00    +0.180 C 
ATOM      5  N   UNL     1      -4.931  -3.844  -0.796  0.00  0.00    -0.254 N 
ATOM      6  H   UNL     1      -6.318  -0.923  -0.323  0.00  0.00    +0.170 HD
ENDROOT
BRANCH   1  10
ATOM      7  C   UNL     1      -1.215  -0.637   0.073  0.00  0.00    +0.120 A 
ATOM      8  C   UNL     1      -2.390   0.099   0.048  0.00  0.00    +0.046 A 
ATOM      9  C   UNL     1      -3.610  -0.549   0.038  0.00  0.00    +0.011 A 
ATOM     10  C   UNL     1      -3.660  -1.931   0.054  0.00  0.00    -0.008 A 
ATOM     11  C   UNL     1      -2.490  -2.667   0.079  0.00  0.00    +0.011 A 
ATOM     12  C   UNL     1      -1.268  -2.023   0.083  0.00  0.00    +0.046 A 
BRANCH   7  14
ATOM     13  C   UNL     1      -0.035   1.427   0.071  0.00  0.00    +0.277 C 
ATOM     14  O   UNL     1      -0.014  -0.002   0.082  0.00  0.00    -0.495 OA
ENDBRANCH   7  14
ENDBRANCH   1  10
BRANCH   5  15
ATOM     15  C   UNL     1      -4.108  -4.956  -0.602  0.00  0.00    +0.038 A 
ATOM     16  C   UNL     1      -4.266  -5.751   0.527  0.00  0.00    +0.023 A 
ATOM     17  C   UNL     1      -3.451  -6.849   0.716  0.00  0.00    +0.002 A 
ATOM     18  C   UNL     1      -2.478  -7.158  -0.216  0.00  0.00    +0.000 A 
ATOM     19  C   UNL     1      -2.317  -6.369  -1.341  0.00  0.00    +0.002 A 
ATOM     20  C   UNL     1      -3.132  -5.273  -1.539  0.00  0.00    +0.023 A 
ENDBRANCH   5  15
BRANCH   4  21
ATOM     21  S   UNL     1      -6.159  -4.831  -3.099  0.00  0.00    -0.081 S 
BRANCH  21  22
ATOM     22  C   UNL     1      -7.439  -4.047  -4.117  0.00  0.00    +0.151 C 
BRANCH  22  23
ATOM     23  C   UNL     1      -7.797  -4.959  -5.262  0.00  0.00    +0.121 A 
ATOM     24  N   UNL     1      -8.742  -4.542  -6.146  0.00  0.00    -0.310 N 
ATOM     25  H   UNL     1      -9.164  -3.677  -6.026  0.00  0.00    +0.170 HD
ATOM     26  C   UNL     1      -9.098  -5.324  -7.192  0.00  0.00    +0.259 A 
ATOM     27  O   UNL     1      -9.942  -4.963  -7.991  0.00  0.00    -0.267 OA
ATOM     28  C   UNL     1      -8.425  -6.627  -7.326  0.00  0.00    +0.065 A 
ATOM     29  C   UNL     1      -8.722  -7.503  -8.368  0.00  0.00    +0.016 A 
ATOM     30  C   UNL     1      -8.074  -8.702  -8.455  0.00  0.00    +0.016 A 
ATOM     31  C   UNL     1      -7.110  -9.061  -7.503  0.00  0.00    +0.065 A 
ATOM     32  C   UNL     1      -6.800  -8.201  -6.455  0.00  0.00    +0.043 A 
ATOM     33  C   UNL     1      -7.457  -6.973  -6.358  0.00  0.00    +0.079 A 
ATOM     34  N   UNL     1      -7.184  -6.099  -5.357  0.00  0.00    -0.233 NA
BRANCH  31  35
ATOM     35  C   UNL     1      -6.419 -10.363  -7.614  0.00  0.00    +0.387 C 
ATOM     36  O   UNL     1      -6.689 -11.122  -8.533  0.00  0.00    -0.241 OA
ATOM     37  O   UNL     1      -5.578 -10.681  -6.785  0.00  0.00    -0.241 OA
ENDBRANCH  31  35
ENDBRANCH  22  23
ENDBRANCH  21  22
ENDBRANCH   4  21
TORSDOF 7
