REMARK  Name = ZINC51329801
REMARK  4 active torsions:
REMARK  status: ('A' for Active; 'I' for Inactive)
REMARK    1  A    between atoms: C_1  and  C_2
REMARK    2  A    between atoms: C_5  and  C_8
REMARK    3  A    between atoms: C_10  and  C_19
REMARK    4  A    between atoms: C_22  and  N_25
REMARK                            x       y       z     vdW  Elec       q    Type
REMARK                         _______ _______ _______ _____ _____    ______ ____
ROOT
ATOM      1  C   UNL     1       0.058  -4.256  -0.021  0.00  0.00    +0.072 C 
ATOM      2  C   UNL     1       0.067  -4.912   1.141  0.00  0.00    +0.029 C 
ATOM      3  C   UNL     1       0.020  -6.413   1.234  0.00  0.00    +0.138 C 
ATOM      4  N   UNL     1       0.442  -6.984  -0.073  0.00  0.00    -0.239 N 
ATOM      5  C   UNL     1       0.986  -8.199  -0.190  0.00  0.00    +0.232 C 
ATOM      6  O   UNL     1       1.212  -8.890   0.780  0.00  0.00    -0.274 OA
ATOM      7  C   UNL     1       1.306  -8.673  -1.599  0.00  0.00    +0.173 C 
ATOM      8  S   UNL     1       0.518  -7.317  -2.570  0.00  0.00    -0.081 S 
ATOM      9  C   UNL     1       0.287  -6.196  -1.214  0.00  0.00    +0.165 C 
ATOM     10  N   UNL     1       0.061  -4.917  -1.224  0.00  0.00    -0.225 NA
ENDROOT
BRANCH   1  15
ATOM     11  C   UNL     1      -0.018   1.503   0.010  0.00  0.00    +0.044 C 
ATOM     12  C   UNL     1       0.002  -0.004   0.002  0.00  0.00    -0.050 A 
ATOM     13  C   UNL     1       0.006  -0.686  -1.201  0.00  0.00    +0.004 A 
ATOM     14  C   UNL     1       0.024  -2.067  -1.215  0.00  0.00    +0.010 A 
ATOM     15  C   UNL     1       0.039  -2.772  -0.013  0.00  0.00    +0.000 A 
ATOM     16  C   UNL     1       0.036  -2.080   1.196  0.00  0.00    +0.010 A 
ATOM     17  C   UNL     1       0.023  -0.700   1.198  0.00  0.00    +0.004 A 
ENDBRANCH   1  15
BRANCH   3  18
ATOM     18  C   UNL     1      -1.384  -6.856   1.554  0.00  0.00    -0.023 A 
ATOM     19  C   UNL     1      -2.332  -6.930   0.550  0.00  0.00    +0.008 A 
ATOM     20  C   UNL     1      -3.620  -7.336   0.844  0.00  0.00    +0.033 A 
ATOM     21  C   UNL     1      -3.961  -7.670   2.142  0.00  0.00    +0.126 A 
ATOM     22  C   UNL     1      -3.013  -7.597   3.145  0.00  0.00    +0.033 A 
ATOM     23  C   UNL     1      -1.724  -7.194   2.851  0.00  0.00    +0.008 A 
BRANCH  21  24
ATOM     24  N   UNL     1      -5.340  -8.104   2.456  0.00  0.00    +0.056 N 
ATOM     25  O   UNL     1      -6.169  -8.167   1.578  0.00  0.00    -0.126 OA
ATOM     26  O   UNL     1      -5.638  -8.395   3.591  0.00  0.00    -0.126 OA
ENDBRANCH  21  24
ENDBRANCH   3  18
TORSDOF 3
