REMARK  Name = ZINC51711779
REMARK  6 active torsions:
REMARK  status: ('A' for Active; 'I' for Inactive)
REMARK    1  A    between atoms: C_1  and  C_2
REMARK    2  A    between atoms: C_2  and  C_4
REMARK    3  A    between atoms: C_2  and  N_13
REMARK    4  A    between atoms: C_4  and  C_5
REMARK    5  A    between atoms: C_5  and  C_6
REMARK    6  A    between atoms: C_20  and  C_23
REMARK                            x       y       z     vdW  Elec       q    Type
REMARK                         _______ _______ _______ _____ _____    ______ ____
ROOT
ATOM      1  N   UNL     1       0.709  -0.493   1.188  0.00  0.00    -0.297 N 
ATOM      2  C   UNL     1       0.051  -0.633   2.355  0.00  0.00    +0.303 C 
ATOM      3  O   UNL     1      -1.106  -0.272   2.448  0.00  0.00    -0.253 OA
ATOM      4  N   UNL     1       0.676  -1.174   3.420  0.00  0.00    -0.281 N 
ATOM      5  C   UNL     1       2.108  -1.508   3.369  0.00  0.00    +0.137 C 
ATOM      6  C   UNL     1       2.791  -0.896   4.597  0.00  0.00    +0.180 C 
ATOM      7  O   UNL     1       2.088  -1.296   5.776  0.00  0.00    -0.364 OA
ATOM      8  C   UNL     1       0.735  -0.838   5.833  0.00  0.00    +0.221 C 
ATOM      9  C   UNL     1      -0.053  -1.442   4.670  0.00  0.00    +0.150 C 
ATOM     10  H   UNL     1       1.652  -0.715   1.133  0.00  0.00    +0.151 HD
ENDROOT
BRANCH   8  11
ATOM     11  C   UNL     1       0.115  -1.263   7.139  0.00  0.00    +0.241 C 
ATOM     12  O   UNL     1       0.735  -1.972   7.903  0.00  0.00    -0.273 OA
ATOM     13  N   UNL     1      -1.130  -0.855   7.459  0.00  0.00    -0.327 N 
ATOM     14  H   UNL     1      -1.626  -0.288   6.848  0.00  0.00    +0.145 HD
ATOM     15  H   UNL     1      -1.529  -1.128   8.300  0.00  0.00    +0.145 HD
ENDBRANCH   8  11
BRANCH   1  17
ATOM     16  C   UNL     1      -0.015   1.522   0.007  0.00  0.00    +0.028 C 
ATOM     17  C   UNL     1       0.001  -0.007   0.001  0.00  0.00    +0.072 C 
BRANCH  17  18
ATOM     18  C   UNL     1       0.713  -0.505  -1.258  0.00  0.00    +0.026 C 
BRANCH  18  19
ATOM     19  C   UNL     1       0.620  -2.031  -1.327  0.00  0.00    +0.037 C 
BRANCH  19  20
ATOM     20  C   UNL     1       1.321  -2.521  -2.568  0.00  0.00    -0.047 A 
ATOM     21  C   UNL     1       0.621  -2.650  -3.753  0.00  0.00    +0.005 A 
ATOM     22  C   UNL     1       1.264  -3.099  -4.891  0.00  0.00    +0.015 A 
ATOM     23  C   UNL     1       2.609  -3.420  -4.843  0.00  0.00    +0.018 A 
ATOM     24  C   UNL     1       3.309  -3.291  -3.658  0.00  0.00    +0.015 A 
ATOM     25  C   UNL     1       2.666  -2.837  -2.522  0.00  0.00    +0.005 A 
ATOM     26 BR   UNL     1       3.489  -4.035  -6.400  0.00  0.00    -0.050 Br
ENDBRANCH  19  20
ENDBRANCH  18  19
ENDBRANCH  17  18
ENDBRANCH   1  17
TORSDOF 5
