REMARK  Name = ZINC08733749
REMARK  5 active torsions:
REMARK  status: ('A' for Active; 'I' for Inactive)
REMARK    1  A    between atoms: C_1  and  C_2
REMARK    2  A    between atoms: C_2  and  C_28
REMARK    3  A    between atoms: N_5  and  C_9
REMARK    4  A    between atoms: C_9  and  C_10
REMARK    5  A    between atoms: C_16  and  C_19
REMARK                            x       y       z     vdW  Elec       q    Type
REMARK                         _______ _______ _______ _____ _____    ______ ____
ROOT
ATOM      1  C   UNL     1      -5.779  -0.995  -5.853  0.00  0.00    +0.047 C 
ATOM      2  C   UNL     1      -4.262  -1.128  -5.993  0.00  0.00    +0.135 C 
ATOM      3  C   UNL     1      -3.559   0.007  -5.275  0.00  0.00    +0.251 C 
ATOM      4  O   UNL     1      -3.653   1.192  -5.510  0.00  0.00    -0.272 OA
ATOM      5  N   UNL     1      -2.808  -0.576  -4.320  0.00  0.00    -0.215 N 
ATOM      6  C   UNL     1      -2.933  -1.908  -4.338  0.00  0.00    +0.310 C 
ATOM      7  O   UNL     1      -2.350  -2.652  -3.574  0.00  0.00    -0.252 OA
ATOM      8  N   UNL     1      -3.780  -2.332  -5.294  0.00  0.00    -0.281 N 
ATOM      9  H   UNL     1      -4.023  -3.250  -5.487  0.00  0.00    +0.152 HD
ENDROOT
BRANCH   2  10
ATOM     10  C   UNL     1      -3.863  -1.163  -7.446  0.00  0.00    -0.015 A 
ATOM     11  C   UNL     1      -3.522   0.023  -8.093  0.00  0.00    +0.007 A 
ATOM     12  C   UNL     1      -3.152   0.025  -9.403  0.00  0.00    +0.009 A 
ATOM     13  C   UNL     1      -3.124  -1.183 -10.120  0.00  0.00    -0.018 A 
ATOM     14  C   UNL     1      -2.753  -1.220 -11.475  0.00  0.00    +0.008 A 
ATOM     15  C   UNL     1      -2.737  -2.409 -12.137  0.00  0.00    +0.001 A 
ATOM     16  C   UNL     1      -3.083  -3.595 -11.491  0.00  0.00    +0.001 A 
ATOM     17  C   UNL     1      -3.447  -3.598 -10.179  0.00  0.00    +0.008 A 
ATOM     18  C   UNL     1      -3.475  -2.389  -9.463  0.00  0.00    -0.018 A 
ATOM     19  C   UNL     1      -3.846  -2.352  -8.108  0.00  0.00    +0.014 A 
ENDBRANCH   2  10
BRANCH   5  20
ATOM     20  C   UNL     1      -1.954   0.157  -3.382  0.00  0.00    +0.213 C 
BRANCH  20  21
ATOM     21  C   UNL     1      -2.747   0.504  -2.148  0.00  0.00    +0.234 C 
ATOM     22  O   UNL     1      -3.910   0.172  -2.061  0.00  0.00    -0.274 OA
ATOM     23  N   UNL     1      -2.163   1.185  -1.141  0.00  0.00    -0.300 N 
ATOM     24  C   UNL     1      -0.755   1.594  -1.232  0.00  0.00    +0.108 C 
ATOM     25  C   UNL     1      -0.013   1.086   0.008  0.00  0.00    +0.020 C 
ATOM     26  C   UNL     1      -0.730   1.580   1.266  0.00  0.00    +0.013 C 
ATOM     27  C   UNL     1      -2.156   1.023   1.294  0.00  0.00    +0.062 C 
ATOM     28  C   UNL     1      -2.923   1.530   0.068  0.00  0.00    +0.118 C 
BRANCH  27  29
ATOM     29  C   UNL     1      -2.852   1.484   2.548  0.00  0.00    +0.084 A 
ATOM     30  N   UNL     1      -3.359   0.757   3.505  0.00  0.00    -0.244 NA
ATOM     31  C   UNL     1      -3.961   1.299   4.584  0.00  0.00    +0.078 A 
ATOM     32  C   UNL     1      -4.553   0.652   5.692  0.00  0.00    +0.029 A 
ATOM     33  C   UNL     1      -5.118   1.373   6.697  0.00  0.00    +0.002 A 
ATOM     34  C   UNL     1      -5.136   2.761   6.676  0.00  0.00    +0.001 A 
ATOM     35  C   UNL     1      -4.567   3.432   5.610  0.00  0.00    +0.017 A 
ATOM     36  C   UNL     1      -3.994   2.712   4.590  0.00  0.00    +0.039 A 
ATOM     37  S   UNL     1      -3.164   3.109   3.072  0.00  0.00    -0.072 S 
ENDBRANCH  27  29
ENDBRANCH  20  21
ENDBRANCH   5  20
TORSDOF 4
