REMARK  Name = ZINC31055934
REMARK  8 active torsions:
REMARK  status: ('A' for Active; 'I' for Inactive)
REMARK    1  A    between atoms: C_1  and  C_2
REMARK    2  A    between atoms: C_8  and  N_15
REMARK    3  A    between atoms: C_11  and  C_13
REMARK    4  A    between atoms: C_11  and  C_14
REMARK    5  A    between atoms: C_16  and  C_18
REMARK    6  A    between atoms: N_23  and  C_25
REMARK    7  A    between atoms: C_25  and  C_26
REMARK    8  A    between atoms: C_28  and  C_31
REMARK                            x       y       z     vdW  Elec       q    Type
REMARK                         _______ _______ _______ _____ _____    ______ ____
ROOT
ATOM      1  C   UNL     1      -2.206   1.108  -1.183  0.00  0.00    +0.058 C 
ATOM      2  C   UNL     1      -0.755   1.594  -1.231  0.00  0.00    +0.009 C 
ATOM      3  C   UNL     1      -0.013   1.086   0.008  0.00  0.00    -0.018 C 
ATOM      4  C   UNL     1      -0.731   1.580   1.266  0.00  0.00    -0.078 C 
ATOM      5  N   UNL     1      -2.115   1.088   1.265  0.00  0.00    +0.386 N 
ATOM      6  C   UNL     1      -2.861   1.601   0.109  0.00  0.00    -0.065 C 
ATOM      7  H   UNL     1      -2.082  -0.008   1.182  0.00  0.00    -0.081 HD
ENDROOT
BRANCH   1   9
ATOM      8  N   UNL     1      -2.556   1.349  -3.619  0.00  0.00    -0.308 N 
ATOM      9  C   UNL     1      -2.959   1.651  -2.369  0.00  0.00    +0.215 C 
ATOM     10  O   UNL     1      -3.927   2.362  -2.199  0.00  0.00    -0.276 OA
ATOM     11  H   UNL     1      -1.678   0.704  -3.773  0.00  0.00    +0.149 HD
BRANCH   8  19
ATOM     12  C   UNL     1      -7.109  -0.882  -3.135  0.00  0.00    +0.044 C 
ATOM     13  C   UNL     1      -6.290  -0.347  -4.281  0.00  0.00    -0.050 A 
ATOM     14  C   UNL     1      -6.619  -0.683  -5.582  0.00  0.00    +0.007 A 
ATOM     15  C   UNL     1      -5.870  -0.193  -6.630  0.00  0.00    +0.046 A 
ATOM     16  C   UNL     1      -4.781   0.638  -6.384  0.00  0.00    +0.126 A 
ATOM     17  C   UNL     1      -4.456   0.975  -5.083  0.00  0.00    +0.015 A 
ATOM     18  C   UNL     1      -5.212   0.479  -4.034  0.00  0.00    +0.012 A 
ATOM     19  C   UNL     1      -3.288   1.877  -4.773  0.00  0.00    +0.110 C 
ATOM     20  C   UNL     1      -2.353   1.943  -5.983  0.00  0.00    +0.074 C 
ATOM     21  C   UNL     1      -3.201   2.214  -7.232  0.00  0.00    +0.107 C 
ATOM     22  O   UNL     1      -4.063   1.095  -7.443  0.00  0.00    -0.486 OA
ATOM     23  C   UNL     1      -4.039   3.477  -7.022  0.00  0.00    +0.055 C 
ATOM     24  C   UNL     1      -2.288   2.398  -8.446  0.00  0.00    +0.055 C 
ENDBRANCH   8  19
ENDBRANCH   1   9
BRANCH   5  25
ATOM     25  C   UNL     1      -2.794   1.427   2.523  0.00  0.00    +0.022 C 
BRANCH  25  26
ATOM     26  C   UNL     1      -1.890   1.106   3.685  0.00  0.00    +0.211 A 
ATOM     27  N   UNL     1      -1.017   1.911   4.236  0.00  0.00    -0.193 NA
ATOM     28  C   UNL     1      -0.445   1.199   5.234  0.00  0.00    +0.203 A 
ATOM     29  N   UNL     1      -0.994   0.012   5.224  0.00  0.00    -0.056 NA
ATOM     30  O   UNL     1      -1.823  -0.056   4.342  0.00  0.00    -0.340 OA
BRANCH  28  31
ATOM     31  C   UNL     1       0.611   1.674   6.162  0.00  0.00    +0.041 A 
ATOM     32  C   UNL     1       1.108   2.971   6.050  0.00  0.00    +0.014 A 
ATOM     33  C   UNL     1       2.086   3.410   6.919  0.00  0.00    +0.021 A 
ATOM     34  C   UNL     1       2.582   2.561   7.894  0.00  0.00    +0.042 A 
ATOM     35  C   UNL     1       2.096   1.270   8.007  0.00  0.00    +0.040 A 
ATOM     36  C   UNL     1       1.112   0.823   7.146  0.00  0.00    +0.053 A 
ATOM     37 CL   UNL     1       0.503  -0.797   7.287  0.00  0.00    -0.083 Cl
ATOM     38 CL   UNL     1       3.817   3.117   8.979  0.00  0.00    -0.083 Cl
ENDBRANCH  28  31
ENDBRANCH  25  26
ENDBRANCH   5  25
TORSDOF 5
