REMARK  Name = ZINC40374787
REMARK  4 active torsions:
REMARK  status: ('A' for Active; 'I' for Inactive)
REMARK    1  A    between atoms: C_1  and  C_2
REMARK    2  A    between atoms: N_17  and  C_18
REMARK    3  A    between atoms: C_21  and  O_24
REMARK    4  A    between atoms: O_24  and  C_25
REMARK                            x       y       z     vdW  Elec       q    Type
REMARK                         _______ _______ _______ _____ _____    ______ ____
ROOT
ATOM      1  C   UNL     1      -0.799   1.615  -0.968  0.00  0.00    +0.079 C 
ATOM      2  C   UNL     1      -0.282   0.241  -0.537  0.00  0.00    +0.183 C 
ATOM      3  C   UNL     1       0.209  -0.529  -1.771  0.00  0.00    +0.096 C 
ATOM      4  C   UNL     1       0.588  -1.940  -1.294  0.00  0.00    +0.111 C 
ATOM      5  C   UNL     1       1.586  -1.807  -0.166  0.00  0.00    +0.016 A 
ATOM      6  C   UNL     1       2.440  -2.862   0.102  0.00  0.00    +0.024 A 
ATOM      7  C   UNL     1       3.357  -2.769   1.131  0.00  0.00    +0.018 A 
ATOM      8  C   UNL     1       3.421  -1.618   1.897  0.00  0.00    +0.019 A 
ATOM      9  C   UNL     1       2.573  -0.563   1.631  0.00  0.00    +0.047 A 
ATOM     10  C   UNL     1       1.650  -0.652   0.593  0.00  0.00    +0.128 A 
ATOM     11  O   UNL     1       0.810   0.408   0.362  0.00  0.00    -0.468 OA
ATOM     12 BR   UNL     1       4.523  -4.213   1.494  0.00  0.00    -0.050 Br
ATOM     13  N   UNL     1      -0.630  -2.568  -0.754  0.00  0.00    -0.319 N 
ATOM     14  C   UNL     1      -1.514  -1.826  -0.066  0.00  0.00    +0.141 C 
ATOM     15  S   UNL     1      -2.875  -2.597   0.628  0.00  0.00    -0.018 S 
ATOM     16  N   UNL     1      -1.365  -0.508   0.093  0.00  0.00    -0.244 N 
ATOM     17  H   UNL     1      -0.793  -3.514  -0.894  0.00  0.00    +0.148 HD
ENDROOT
BRANCH  16  18
ATOM     18  C   UNL     1      -2.289   0.177   0.893  0.00  0.00    +0.039 A 
ATOM     19  C   UNL     1      -2.003   0.426   2.228  0.00  0.00    +0.027 A 
ATOM     20  C   UNL     1      -2.914   1.102   3.016  0.00  0.00    +0.047 A 
ATOM     21  C   UNL     1      -4.115   1.532   2.473  0.00  0.00    +0.120 A 
ATOM     22  C   UNL     1      -4.403   1.284   1.139  0.00  0.00    +0.047 A 
ATOM     23  C   UNL     1      -3.490   0.614   0.349  0.00  0.00    +0.027 A 
BRANCH  21  24
ATOM     24  O   UNL     1      -5.012   2.198   3.249  0.00  0.00    -0.495 OA
ATOM     25  C   UNL     1      -6.229   2.612   2.624  0.00  0.00    +0.277 C 
ENDBRANCH  21  24
ENDBRANCH  16  18
TORSDOF 2
