REMARK  Name = ZINC36638384
REMARK  9 active torsions:
REMARK  status: ('A' for Active; 'I' for Inactive)
REMARK    1  A    between atoms: C_1  and  C_2
REMARK    2  A    between atoms: C_2  and  C_3
REMARK    3  A    between atoms: C_2  and  C_5
REMARK    4  A    between atoms: C_2  and  N_8
REMARK    5  A    between atoms: C_9  and  C_11
REMARK    6  A    between atoms: C_11  and  N_12
REMARK    7  A    between atoms: N_12  and  C_13
REMARK    8  A    between atoms: C_18  and  C_19
REMARK    9  A    between atoms: C_19  and  C_20
REMARK                            x       y       z     vdW  Elec       q    Type
REMARK                         _______ _______ _______ _____ _____    ______ ____
ROOT
ATOM      1  N   UNL     1      -4.296  -0.252   2.249  0.00  0.00    -0.335 N 
ATOM      2  H   UNL     1      -3.826   0.309   2.886  0.00  0.00    +0.147 HD
ENDROOT
BRANCH   1   3
ATOM      3  C   UNL     1      -5.627  -0.608   2.481  0.00  0.00    +0.031 A 
ATOM      4  C   UNL     1      -6.299  -1.416   1.572  0.00  0.00    +0.023 A 
ATOM      5  C   UNL     1      -7.614  -1.767   1.805  0.00  0.00    +0.002 A 
ATOM      6  C   UNL     1      -8.262  -1.315   2.940  0.00  0.00    +0.000 A 
ATOM      7  C   UNL     1      -7.596  -0.511   3.846  0.00  0.00    +0.006 A 
ATOM      8  C   UNL     1      -6.278  -0.161   3.623  0.00  0.00    -0.022 A 
BRANCH   8   9
ATOM      9  C   UNL     1      -5.551   0.710   4.614  0.00  0.00    +0.072 C 
BRANCH   9  10
ATOM     10  C   UNL     1      -5.638   2.149   4.177  0.00  0.00    -0.043 A 
ATOM     11  C   UNL     1      -4.670   2.678   3.344  0.00  0.00    +0.004 A 
ATOM     12  C   UNL     1      -4.749   3.999   2.942  0.00  0.00    +0.000 A 
ATOM     13  C   UNL     1      -5.797   4.790   3.374  0.00  0.00    +0.000 A 
ATOM     14  C   UNL     1      -6.766   4.261   4.206  0.00  0.00    +0.000 A 
ATOM     15  C   UNL     1      -6.688   2.939   4.604  0.00  0.00    +0.004 A 
ENDBRANCH   9  10
ENDBRANCH   8   9
ENDBRANCH   1   3
BRANCH   1  16
ATOM     16  C   UNL     1      -3.611  -0.724   1.044  0.00  0.00    +0.197 C 
BRANCH  16  18
ATOM     17  N   UNL     1      -1.372  -0.511   0.012  0.00  0.00    -0.296 N 
ATOM     18  C   UNL     1      -2.197  -0.202   1.033  0.00  0.00    +0.231 C 
ATOM     19  O   UNL     1      -1.801   0.495   1.942  0.00  0.00    -0.274 OA
ATOM     20  H   UNL     1      -1.689  -1.069  -0.715  0.00  0.00    +0.150 HD
BRANCH  17  22
ATOM     21  C   UNL     1      -0.019   1.526   0.010  0.00  0.00    +0.048 C 
ATOM     22  C   UNL     1       0.002  -0.004   0.002  0.00  0.00    +0.121 C 
BRANCH  22  23
ATOM     23  C   UNL     1       0.718  -0.497  -1.257  0.00  0.00    +0.026 C 
ATOM     24  C   UNL     1       1.919  -1.426  -1.068  0.00  0.00    +0.007 C 
ATOM     25  C   UNL     1       2.134   0.022  -1.513  0.00  0.00    +0.007 C 
ENDBRANCH  22  23
BRANCH  22  26
ATOM     26  C   UNL     1       0.714  -0.492   1.195  0.00  0.00    +0.088 C 
ATOM     27  N   UNL     1       1.263  -0.868   2.115  0.00  0.00    -0.194 NA
ENDBRANCH  22  26
ENDBRANCH  17  22
ENDBRANCH  16  18
ENDBRANCH   1  16
TORSDOF 8
