REMARK  Name = ZINC04393184
REMARK  5 active torsions:
REMARK  status: ('A' for Active; 'I' for Inactive)
REMARK    1  A    between atoms: C_1  and  C_2
REMARK    2  A    between atoms: C_2  and  O_3
REMARK    3  A    between atoms: O_3  and  C_4
REMARK    4  A    between atoms: C_9  and  C_10
REMARK    5  A    between atoms: C_16  and  C_18
REMARK                            x       y       z     vdW  Elec       q    Type
REMARK                         _______ _______ _______ _____ _____    ______ ____
ROOT
ATOM      1  C   UNL     1      -1.966   2.446   3.536  0.00  0.00    +0.084 A 
ATOM      2  C   UNL     1      -2.554   2.858   4.699  0.00  0.00    +0.077 A 
ATOM      3  S   UNL     1      -3.927   3.807   4.058  0.00  0.00    -0.060 S 
ATOM      4  C   UNL     1      -3.579   3.559   2.323  0.00  0.00    +0.165 A 
ATOM      5  N   UNL     1      -2.492   2.812   2.377  0.00  0.00    -0.224 NA
ATOM      6  N   UNL     1      -4.267   4.031   1.213  0.00  0.00    -0.259 N 
ATOM      7  C   UNL     1      -5.366   4.794   1.375  0.00  0.00    +0.266 C 
ATOM      8  O   UNL     1      -5.756   5.068   2.494  0.00  0.00    -0.268 OA
ATOM      9  H   UNL     1      -3.956   3.813   0.321  0.00  0.00    +0.157 HD
ENDROOT
BRANCH   7  10
ATOM     10  C   UNL     1      -6.094   5.293   0.200  0.00  0.00    +0.103 A 
ATOM     11  C   UNL     1      -7.211   6.067   0.235  0.00  0.00    +0.040 A 
ATOM     12  C   UNL     1      -7.596   6.329  -1.102  0.00  0.00    +0.000 A 
ATOM     13  C   UNL     1      -8.648   7.056  -1.675  0.00  0.00    +0.010 A 
ATOM     14  C   UNL     1      -8.761   7.129  -3.033  0.00  0.00    +0.001 A 
ATOM     15  C   UNL     1      -7.842   6.489  -3.855  0.00  0.00    +0.002 A 
ATOM     16  C   UNL     1      -6.800   5.769  -3.316  0.00  0.00    +0.026 A 
ATOM     17  C   UNL     1      -6.663   5.680  -1.933  0.00  0.00    +0.047 A 
ATOM     18  N   UNL     1      -5.749   5.057  -1.117  0.00  0.00    -0.351 N 
ATOM     19  H   UNL     1      -4.988   4.535  -1.416  0.00  0.00    +0.166 HD
ENDBRANCH   7  10
BRANCH   1  25
ATOM     20  C   UNL     1      -0.149   1.182   2.380  0.00  0.00    +0.130 A 
ATOM     21  C   UNL     1       0.992   0.398   2.422  0.00  0.00    +0.046 A 
ATOM     22  C   UNL     1       1.534   0.028   3.639  0.00  0.00    +0.004 A 
ATOM     23  C   UNL     1       0.941   0.438   4.820  0.00  0.00    +0.001 A 
ATOM     24  C   UNL     1      -0.197   1.219   4.792  0.00  0.00    +0.013 A 
ATOM     25  C   UNL     1      -0.747   1.602   3.571  0.00  0.00    +0.043 A 
BRANCH  20  26
ATOM     26  O   UNL     1      -0.682   1.547   1.184  0.00  0.00    -0.492 OA
BRANCH  26  28
ATOM     27  C   UNL     1      -0.753   1.593  -1.232  0.00  0.00    +0.048 C 
ATOM     28  C   UNL     1      -0.013   1.086   0.008  0.00  0.00    +0.226 C 
ENDBRANCH  26  28
ENDBRANCH  20  26
ENDBRANCH   1  25
TORSDOF 4
