REMARK  Name = ZINC20206127
REMARK  11 active torsions:
REMARK  status: ('A' for Active; 'I' for Inactive)
REMARK    1  A    between atoms: C_1  and  C_2
REMARK    2  A    between atoms: C_2  and  C_3
REMARK    3  A    between atoms: C_6  and  O_9
REMARK    4  A    between atoms: O_9  and  C_10
REMARK    5  A    between atoms: C_10  and  C_11
REMARK    6  A    between atoms: C_11  and  C_12
REMARK    7  A    between atoms: C_12  and  O_13
REMARK    8  A    between atoms: O_13  and  C_14
REMARK    9  A    between atoms: C_17  and  C_20
REMARK   10  A    between atoms: C_31  and  S_32
REMARK   11  A    between atoms: S_32  and  C_35
REMARK                            x       y       z     vdW  Elec       q    Type
REMARK                         _______ _______ _______ _____ _____    ______ ____
ROOT
ATOM      1  C   UNL     1     -10.466  -3.023  -3.192  0.00  0.00    +0.121 A 
ATOM      2  C   UNL     1      -9.689  -3.139  -4.340  0.00  0.00    +0.046 A 
ATOM      3  C   UNL     1     -10.260  -3.542  -5.519  0.00  0.00    +0.011 A 
ATOM      4  C   UNL     1     -11.630  -3.837  -5.567  0.00  0.00    -0.024 A 
ATOM      5  C   UNL     1     -12.408  -3.718  -4.406  0.00  0.00    +0.011 A 
ATOM      6  C   UNL     1     -11.824  -3.319  -3.231  0.00  0.00    +0.046 A 
ENDROOT
BRANCH   4   7
ATOM      7  C   UNL     1     -12.246  -4.267  -6.824  0.00  0.00    +0.024 C 
ATOM      8  C   UNL     1     -13.200  -5.261  -6.819  0.00  0.00    +0.078 C 
ATOM      9  C   UNL     1     -13.989  -5.601  -8.037  0.00  0.00    +0.117 C 
ATOM     10  N   UNL     1     -13.515  -5.507  -9.250  0.00  0.00    -0.386 N 
ATOM     11  N   UNL     1     -15.298  -6.036  -7.747  0.00  0.00    -0.203 N 
ATOM     12  C   UNL     1     -15.553  -6.560  -6.497  0.00  0.00    +0.183 C 
ATOM     13  N   UNL     1     -14.717  -6.613  -5.484  0.00  0.00    -0.152 NA
ATOM     14  C   UNL     1     -13.495  -6.057  -5.601  0.00  0.00    +0.273 C 
ATOM     15  O   UNL     1     -12.654  -6.199  -4.729  0.00  0.00    -0.268 OA
ATOM     16  S   UNL     1     -17.138  -7.064  -6.611  0.00  0.00    +0.049 S 
ATOM     17  N   UNL     1     -17.485  -6.522  -8.159  0.00  0.00    -0.174 NA
ATOM     18  C   UNL     1     -16.368  -6.009  -8.575  0.00  0.00    +0.257 C 
ATOM     19  H   UNL     1     -12.643  -5.111  -9.401  0.00  0.00    +0.157 HD
ATOM     20  H   UNL     1     -14.036  -5.833 -10.001  0.00  0.00    +0.157 HD
BRANCH  18  21
ATOM     21  S   UNL     1     -16.248  -5.294 -10.181  0.00  0.00    +0.026 S 
ATOM     22  O   UNL     1     -17.585  -4.971 -10.535  0.00  0.00    -0.167 OA
ATOM     23  O   UNL     1     -15.266  -4.275 -10.052  0.00  0.00    -0.167 OA
ATOM     24  C   UNL     1     -15.626  -6.629 -11.240  0.00  0.00    +0.203 C 
ENDBRANCH  18  21
ENDBRANCH   4   7
BRANCH   1  25
ATOM     25  O   UNL     1      -9.895  -2.624  -2.027  0.00  0.00    -0.492 OA
BRANCH  25  26
ATOM     26  C   UNL     1      -8.495  -2.336  -2.056  0.00  0.00    +0.232 C 
BRANCH  26  27
ATOM     27  C   UNL     1      -8.035  -1.906  -0.662  0.00  0.00    +0.082 C 
BRANCH  27  28
ATOM     28  C   UNL     1      -6.536  -1.597  -0.693  0.00  0.00    +0.232 C 
BRANCH  28  29
ATOM     29  O   UNL     1      -6.106  -1.195   0.609  0.00  0.00    -0.492 OA
BRANCH  29  33
ATOM     30  C   UNL     1      -2.115  -0.248   1.053  0.00  0.00    -0.047 A 
ATOM     31  C   UNL     1      -2.968  -0.168   2.138  0.00  0.00    +0.007 A 
ATOM     32  C   UNL     1      -4.305  -0.485   1.992  0.00  0.00    +0.046 A 
ATOM     33  C   UNL     1      -4.791  -0.883   0.755  0.00  0.00    +0.121 A 
ATOM     34  C   UNL     1      -3.933  -0.962  -0.332  0.00  0.00    +0.046 A 
ATOM     35  C   UNL     1      -2.599  -0.639  -0.182  0.00  0.00    +0.007 A 
BRANCH  30  37
ATOM     36  C   UNL     1      -0.454   1.589   0.948  0.00  0.00    +0.009 C 
ATOM     37  C   UNL     1      -0.657   0.097   1.215  0.00  0.00    +0.032 C 
ENDBRANCH  30  37
ENDBRANCH  29  33
ENDBRANCH  28  29
ENDBRANCH  27  28
ENDBRANCH  26  27
ENDBRANCH  25  26
ENDBRANCH   1  25
TORSDOF 9
