REMARK  Name = ZINC39211368
REMARK  13 active torsions:
REMARK  status: ('A' for Active; 'I' for Inactive)
REMARK    1  A    between atoms: C_1  and  C_2
REMARK    2  A    between atoms: C_5  and  S_8
REMARK    3  A    between atoms: S_8  and  N_11
REMARK    4  A    between atoms: N_11  and  C_12
REMARK    5  A    between atoms: C_12  and  C_14
REMARK    6  A    between atoms: C_12  and  C_17
REMARK    7  A    between atoms: C_14  and  C_15
REMARK    8  A    between atoms: C_14  and  C_16
REMARK    9  A    between atoms: C_17  and  O_19
REMARK   10  A    between atoms: O_19  and  C_20
REMARK   11  A    between atoms: C_20  and  C_22
REMARK   12  A    between atoms: C_20  and  C_28
REMARK   13  A    between atoms: N_33  and  C_34
REMARK                            x       y       z     vdW  Elec       q    Type
REMARK                         _______ _______ _______ _____ _____    ______ ____
ROOT
ATOM      1  C   UNL     1       3.659  -5.682   0.952  0.00  0.00    +0.327 C 
ATOM      2  O   UNL     1       3.662  -6.586   0.151  0.00  0.00    -0.249 OA
ENDROOT
BRANCH   1   3
ATOM      3  C   UNL     1       2.560  -4.652   0.922  0.00  0.00    +0.187 C 
BRANCH   3   4
ATOM      4  C   UNL     1       3.165  -3.266   0.686  0.00  0.00    +0.012 C 
ATOM      5  C   UNL     1       3.878  -3.245  -0.667  0.00  0.00    +0.009 C 
ATOM      6  C   UNL     1       2.052  -2.216   0.693  0.00  0.00    +0.009 C 
ENDBRANCH   3   4
BRANCH   3   7
ATOM      7  N   UNL     1       1.624  -4.967  -0.160  0.00  0.00    -0.176 NA
ATOM      8  H   UNL     1       1.810  -4.669  -1.064  0.00  0.00    +0.149 HD
BRANCH   7   9
ATOM      9  S   UNL     1       0.249  -5.832   0.160  0.00  0.00    +0.059 S 
ATOM     10  O   UNL     1       0.655  -6.987   0.883  0.00  0.00    -0.153 OA
ATOM     11  O   UNL     1      -0.474  -5.913  -1.061  0.00  0.00    -0.153 OA
BRANCH   9  16
ATOM     12  C   UNL     1      -3.104  -2.527   3.933  0.00  0.00    +0.044 C 
ATOM     13  C   UNL     1      -2.267  -3.352   2.991  0.00  0.00    -0.050 A 
ATOM     14  C   UNL     1      -2.346  -3.138   1.627  0.00  0.00    +0.005 A 
ATOM     15  C   UNL     1      -1.577  -3.895   0.763  0.00  0.00    +0.029 A 
ATOM     16  C   UNL     1      -0.730  -4.866   1.262  0.00  0.00    +0.105 A 
ATOM     17  C   UNL     1      -0.650  -5.080   2.626  0.00  0.00    +0.029 A 
ATOM     18  C   UNL     1      -1.415  -4.320   3.490  0.00  0.00    +0.005 A 
ENDBRANCH   9  16
ENDBRANCH   7   9
ENDBRANCH   3   7
ENDBRANCH   1   3
BRANCH   1  19
ATOM     19  O   UNL     1       4.637  -5.594   1.868  0.00  0.00    -0.446 OA
BRANCH  19  20
ATOM     20  C   UNL     1       5.647  -6.604   1.838  0.00  0.00    +0.292 C 
BRANCH  20  21
ATOM     21  C   UNL     1       6.180  -6.823   3.230  0.00  0.00    +0.266 C 
ATOM     22  O   UNL     1       5.739  -6.177   4.157  0.00  0.00    -0.271 OA
ATOM     23  N   UNL     1       7.148  -7.736   3.446  0.00  0.00    -0.237 N 
ATOM     24  C   UNL     1       7.625  -7.931   4.691  0.00  0.00    +0.306 C 
ATOM     25  O   UNL     1       7.183  -7.284   5.620  0.00  0.00    -0.252 OA
ATOM     26  N   UNL     1       8.592  -8.845   4.906  0.00  0.00    -0.302 N 
ATOM     27  C   UNL     1       9.111  -9.057   6.260  0.00  0.00    +0.129 C 
ATOM     28  H   UNL     1       7.500  -8.253   2.704  0.00  0.00    +0.159 HD
ATOM     29  H   UNL     1       8.945  -9.362   4.165  0.00  0.00    +0.150 HD
ENDBRANCH  20  21
BRANCH  20  30
ATOM     30  C   UNL     1       6.769  -6.166   0.933  0.00  0.00    +0.002 A 
ATOM     31  C   UNL     1       7.193  -4.851   0.945  0.00  0.00    +0.008 A 
ATOM     32  C   UNL     1       8.223  -4.449   0.115  0.00  0.00    +0.000 A 
ATOM     33  C   UNL     1       8.828  -5.362  -0.727  0.00  0.00    +0.000 A 
ATOM     34  C   UNL     1       8.405  -6.678  -0.739  0.00  0.00    +0.000 A 
ATOM     35  C   UNL     1       7.378  -7.081   0.095  0.00  0.00    +0.008 A 
ENDBRANCH  20  30
ENDBRANCH  19  20
ENDBRANCH   1  19
TORSDOF 9
