REMARK  Name = ZINC44324180
REMARK  11 active torsions:
REMARK  status: ('A' for Active; 'I' for Inactive)
REMARK    1  A    between atoms: C_1  and  C_2
REMARK    2  A    between atoms: C_4  and  C_11
REMARK    3  A    between atoms: C_5  and  O_10
REMARK    4  A    between atoms: C_6  and  O_8
REMARK    5  A    between atoms: O_8  and  C_9
REMARK    6  A    between atoms: C_11  and  CA_12
REMARK    7  A    between atoms: CA_12  and  C_14
REMARK    8  A    between atoms: CA_12  and  N_17
REMARK    9  A    between atoms: C_18  and  O_20
REMARK   10  A    between atoms: O_20  and  C_21
REMARK   11  A    between atoms: C_21  and  C_22
REMARK                            x       y       z     vdW  Elec       q    Type
REMARK                         _______ _______ _______ _____ _____    ______ ____
ROOT
ATOM      1  N   UNL     1      -1.932  -4.143  -1.917  0.00  0.00    -0.267 N 
ATOM      2  C   UNL     1      -3.261  -4.242  -1.719  0.00  0.00    +0.401 C 
ATOM      3  O   UNL     1      -4.024  -3.541  -2.354  0.00  0.00    -0.226 OA
ATOM      4  H   UNL     1      -1.323  -4.702  -1.410  0.00  0.00    +0.153 HD
ENDROOT
BRANCH   1   5
ATOM      5  CA  UNL     1      -1.407  -3.191  -2.899  0.00  0.00    +0.193 C 
BRANCH   5   6
ATOM      6  C   UNL     1      -1.418  -3.822  -4.268  0.00  0.00    +0.376 C 
ATOM      7  O   UNL     1      -1.651  -5.013  -4.387  0.00  0.00    -0.244 OA
ATOM      8  OXT UNL     1      -1.194  -3.143  -5.255  0.00  0.00    -0.244 OA
ENDBRANCH   5   6
BRANCH   5   9
ATOM      9  C   UNL     1       0.027  -2.811  -2.525  0.00  0.00    +0.073 C 
BRANCH   9  13
ATOM     10  C   UNL     1      -0.018   1.503   0.010  0.00  0.00    +0.044 C 
ATOM     11  C   UNL     1       0.002  -0.004   0.002  0.00  0.00    -0.047 A 
ATOM     12  C   UNL     1       0.006  -0.687  -1.200  0.00  0.00    +0.011 A 
ATOM     13  C   UNL     1       0.025  -2.069  -1.213  0.00  0.00    +0.000 A 
ATOM     14  C   UNL     1       0.040  -2.773  -0.019  0.00  0.00    +0.162 A 
ATOM     15  C   UNL     1       0.037  -2.086   1.190  0.00  0.00    +0.162 A 
ATOM     16  C   UNL     1       0.023  -0.700   1.196  0.00  0.00    +0.052 A 
BRANCH  15  17
ATOM     17  O   UNL     1       0.052  -2.772   2.364  0.00  0.00    -0.491 OA
ATOM     18  C   UNL     1       0.048  -2.000   3.567  0.00  0.00    +0.277 C 
ENDBRANCH  15  17
BRANCH  14  19
ATOM     19  O   UNL     1       0.058  -4.133  -0.030  0.00  0.00    -0.503 OA
ATOM     20  H   UNL     1       0.947  -4.515  -0.038  0.00  0.00    +0.292 HD
ENDBRANCH  14  19
ENDBRANCH   9  13
ENDBRANCH   5   9
ENDBRANCH   1   5
BRANCH   2  21
ATOM     21  O   UNL     1      -3.744  -5.117  -0.817  0.00  0.00    -0.449 OA
BRANCH  21  22
ATOM     22  C   UNL     1      -5.163  -5.168  -0.658  0.00  0.00    +0.246 C 
BRANCH  22  23
ATOM     23  C   UNL     1      -5.520  -6.212   0.402  0.00  0.00    +0.088 C 
ATOM     24  C   UNL     1      -5.205  -7.598  -0.106  0.00  0.00    -0.029 A 
ATOM     25  C   UNL     1      -4.027  -8.191  -0.508  0.00  0.00    +0.005 A 
ATOM     26  C   UNL     1      -4.026  -9.506  -0.939  0.00  0.00    +0.000 A 
ATOM     27  C   UNL     1      -5.205 -10.228  -0.967  0.00  0.00    +0.001 A 
ATOM     28  C   UNL     1      -6.388  -9.643  -0.566  0.00  0.00    +0.009 A 
ATOM     29  C   UNL     1      -6.397  -8.316  -0.131  0.00  0.00    -0.014 A 
ATOM     30  C   UNL     1      -7.505  -7.452   0.347  0.00  0.00    -0.014 A 
ATOM     31  C   UNL     1      -7.005  -6.194   0.670  0.00  0.00    -0.029 A 
ATOM     32  C   UNL     1      -7.848  -5.210   1.141  0.00  0.00    +0.005 A 
ATOM     33  C   UNL     1      -9.199  -5.470   1.294  0.00  0.00    +0.000 A 
ATOM     34  C   UNL     1      -9.705  -6.717   0.976  0.00  0.00    +0.001 A 
ATOM     35  C   UNL     1      -8.868  -7.707   0.504  0.00  0.00    +0.009 A 
ENDBRANCH  22  23
ENDBRANCH  21  22
ENDBRANCH   2  21
TORSDOF 9
