REMARK  Name = ZINC02316346
REMARK  6 active torsions:
REMARK  status: ('A' for Active; 'I' for Inactive)
REMARK    1  A    between atoms: C_3  and  C_6
REMARK    2  A    between atoms: C_7  and  C_8
REMARK    3  A    between atoms: N_10  and  C_11
REMARK    4  A    between atoms: C_11  and  N_13
REMARK    5  A    between atoms: N_13  and  N_14
REMARK    6  A    between atoms: C_15  and  C_17
REMARK                            x       y       z     vdW  Elec       q    Type
REMARK                         _______ _______ _______ _____ _____    ______ ____
ROOT
ATOM      1  C   UNL     1      -4.776   2.560   0.041  0.00  0.00    +0.153 C 
ATOM      2  S   UNL     1      -6.120   3.620   0.053  0.00  0.00    -0.017 S 
ENDROOT
BRANCH   1   5
ATOM      3  C   UNL     1      -6.223   0.728   0.039  0.00  0.00    +0.242 C 
ATOM      4  O   UNL     1      -7.179   1.482   0.048  0.00  0.00    -0.270 OA
ATOM      5  N   UNL     1      -4.971   1.226   0.035  0.00  0.00    -0.263 N 
ATOM      6  H   UNL     1      -4.210   0.625   0.028  0.00  0.00    +0.157 HD
BRANCH   3   8
ATOM      7  C   UNL     1      -7.688  -1.173   0.037  0.00  0.00    +0.020 C 
ATOM      8  C   UNL     1      -6.427  -0.671   0.033  0.00  0.00    +0.069 C 
BRANCH   7  11
ATOM      9  C   UNL     1      -8.996  -4.654   0.027  0.00  0.00    +0.008 A 
ATOM     10  C   UNL     1      -9.087  -3.285   0.034  0.00  0.00    +0.015 A 
ATOM     11  C   UNL     1      -7.893  -2.573   0.031  0.00  0.00    +0.012 A 
ATOM     12  S   UNL     1      -6.684  -3.886   0.010  0.00  0.00    -0.097 S 
ATOM     13  C   UNL     1      -7.769  -5.238   0.017  0.00  0.00    +0.046 A 
ENDBRANCH   7  11
ENDBRANCH   3   8
ENDBRANCH   1   5
BRANCH   1  14
ATOM     14  N   UNL     1      -3.524   3.058   0.037  0.00  0.00    -0.245 N 
ATOM     15  H   UNL     1      -3.384   4.018   0.041  0.00  0.00    +0.172 HD
BRANCH  14  16
ATOM     16  N   UNL     1      -2.425   2.190   0.027  0.00  0.00    -0.231 N 
ATOM     17  C   UNL     1      -1.173   2.688   0.022  0.00  0.00    +0.267 C 
ATOM     18  O   UNL     1      -0.997   3.893   0.028  0.00  0.00    -0.268 OA
ATOM     19  H   UNL     1      -2.565   1.230   0.022  0.00  0.00    +0.173 HD
BRANCH  17  20
ATOM     20  C   UNL     1      -0.022   1.780   0.012  0.00  0.00    +0.075 A 
ATOM     21  C   UNL     1       1.330   2.083   0.001  0.00  0.00    +0.021 A 
ATOM     22  C   UNL     1       2.208   1.027  -0.013  0.00  0.00    +0.008 A 
ATOM     23  C   UNL     1       1.719  -0.241  -0.016  0.00  0.00    +0.046 A 
ATOM     24  S   UNL     1       0.002  -0.004   0.002  0.00  0.00    -0.092 S 
ENDBRANCH  17  20
ENDBRANCH  14  16
ENDBRANCH   1  14
TORSDOF 6
