REMARK  Name = ZINC20394296
REMARK  9 active torsions:
REMARK  status: ('A' for Active; 'I' for Inactive)
REMARK    1  A    between atoms: C_1  and  C_2
REMARK    2  A    between atoms: C_5  and  N_8
REMARK    3  A    between atoms: C_17  and  C_21
REMARK    4  A    between atoms: C_17  and  N_25
REMARK    5  A    between atoms: C_26  and  C_28
REMARK    6  A    between atoms: C_31  and  C_34
REMARK    7  A    between atoms: C_34  and  C_35
REMARK    8  A    between atoms: C_34  and  C_36
REMARK    9  A    between atoms: C_34  and  C_37
REMARK                            x       y       z     vdW  Elec       q    Type
REMARK                         _______ _______ _______ _____ _____    ______ ____
ROOT
ATOM      1  N   UNL     1      -1.588   4.455   0.040  0.00  0.00    -0.277 N 
ATOM      2  C   UNL     1      -0.788   3.443   0.532  0.00  0.00    +0.123 A 
ATOM      3  C   UNL     1       0.564   3.617   0.507  0.00  0.00    +0.096 A 
ATOM      4  C   UNL     1       1.113   4.798  -0.009  0.00  0.00    +0.260 A 
ATOM      5  O   UNL     1       2.322   4.956  -0.034  0.00  0.00    -0.267 OA
ATOM      6  N   UNL     1       0.291   5.759  -0.479  0.00  0.00    -0.302 N 
ATOM      7  H   UNL     1       0.710   6.691  -0.886  0.00  0.00    +0.171 HD
ATOM      8  C   UNL     1      -1.043   5.581  -0.451  0.00  0.00    +0.166 A 
ATOM      9  S   UNL     1      -2.066   6.815  -1.052  0.00  0.00    -0.012 S 
ATOM     10  C   UNL     1       1.171   2.368   1.099  0.00  0.00    +0.240 C 
ATOM     11  C   UNL     1      -0.035   1.515   1.440  0.00  0.00    +0.256 C 
ATOM     12  O   UNL     1      -0.025   0.411   1.942  0.00  0.00    -0.272 OA
ATOM     13  N   UNL     1      -1.117   2.222   1.069  0.00  0.00    -0.269 N 
ATOM     14  H   UNL     1      -2.172   1.924   1.154  0.00  0.00    +0.156 HD
ENDROOT
BRANCH   1  19
ATOM     15  C   UNL     1      -7.230   3.851   0.090  0.00  0.00    +0.044 C 
ATOM     16  C   UNL     1      -5.732   4.012   0.077  0.00  0.00    -0.050 A 
ATOM     17  C   UNL     1      -5.003   3.588  -1.019  0.00  0.00    +0.005 A 
ATOM     18  C   UNL     1      -3.629   3.733  -1.034  0.00  0.00    +0.026 A 
ATOM     19  C   UNL     1      -2.981   4.306   0.052  0.00  0.00    +0.050 A 
ATOM     20  C   UNL     1      -3.716   4.727   1.153  0.00  0.00    +0.026 A 
ATOM     21  C   UNL     1      -5.090   4.584   1.160  0.00  0.00    +0.005 A 
ENDBRANCH   1  19
BRANCH  10  22
ATOM     22  C   UNL     1       2.059   1.661   0.073  0.00  0.00    +0.424 C 
ATOM     23  F   UNL     1       1.316   1.397  -1.083  0.00  0.00    -0.167 F 
ATOM     24  F   UNL     1       3.145   2.482  -0.248  0.00  0.00    -0.167 F 
ATOM     25  F   UNL     1       2.527   0.457   0.611  0.00  0.00    -0.167 F 
ENDBRANCH  10  22
BRANCH  10  26
ATOM     26  N   UNL     1       1.936   2.686   2.308  0.00  0.00    -0.287 N 
ATOM     27  C   UNL     1       2.485   1.694   3.038  0.00  0.00    +0.245 C 
ATOM     28  O   UNL     1       2.346   0.537   2.694  0.00  0.00    -0.270 OA
ATOM     29  H   UNL     1       2.062   3.733   2.620  0.00  0.00    +0.151 HD
BRANCH  27  30
ATOM     30  C   UNL     1       3.257   2.015   4.258  0.00  0.00    +0.037 A 
ATOM     31  C   UNL     1       3.423   3.344   4.653  0.00  0.00    +0.013 A 
ATOM     32  C   UNL     1       4.140   3.636   5.795  0.00  0.00    +0.005 A 
ATOM     33  C   UNL     1       4.702   2.616   6.542  0.00  0.00    -0.042 A 
ATOM     34  C   UNL     1       4.546   1.297   6.153  0.00  0.00    +0.005 A 
ATOM     35  C   UNL     1       3.826   0.991   5.016  0.00  0.00    +0.013 A 
BRANCH  33  36
ATOM     36  C   UNL     1       5.489   2.943   7.785  0.00  0.00    -0.013 C 
ATOM     37  C   UNL     1       6.922   2.428   7.632  0.00  0.00    +0.015 C 
ATOM     38  C   UNL     1       5.512   4.459   7.990  0.00  0.00    +0.015 C 
ATOM     39  C   UNL     1       4.833   2.274   8.995  0.00  0.00    +0.015 C 
ENDBRANCH  33  36
ENDBRANCH  27  30
ENDBRANCH  10  26
TORSDOF 5
