REMARK  Name = ZINC27247474
REMARK  8 active torsions:
REMARK  status: ('A' for Active; 'I' for Inactive)
REMARK    1  A    between atoms: C_2  and  C_3
REMARK    2  A    between atoms: C_3  and  C_4
REMARK    3  A    between atoms: C_4  and  C_5
REMARK    4  A    between atoms: C_4  and  C_12
REMARK    5  A    between atoms: C_4  and  O_28
REMARK    6  A    between atoms: C_12  and  C_14
REMARK    7  A    between atoms: C_12  and  C_21
REMARK    8  A    between atoms: C_14  and  N_15
REMARK                            x       y       z     vdW  Elec       q    Type
REMARK                         _______ _______ _______ _____ _____    ______ ____
ROOT
ATOM      1  C   UNL     1       3.722   1.966   0.250  0.00  0.00    +0.069 C 
ENDROOT
BRANCH   1   2
ATOM      2  C   UNL     1       5.093   1.426  -0.066  0.00  0.00    -0.040 A 
ATOM      3  C   UNL     1       5.455   1.188  -1.379  0.00  0.00    +0.005 A 
ATOM      4  C   UNL     1       6.715   0.698  -1.670  0.00  0.00    +0.020 A 
ATOM      5  C   UNL     1       7.608   0.435  -0.646  0.00  0.00    +0.041 A 
ATOM      6  C   UNL     1       7.243   0.669   0.667  0.00  0.00    +0.020 A 
ATOM      7  C   UNL     1       5.985   1.164   0.957  0.00  0.00    +0.005 A 
ATOM      8 CL   UNL     1       9.187  -0.187  -1.011  0.00  0.00    -0.084 Cl
ENDBRANCH   1   2
BRANCH   1   9
ATOM      9  C   UNL     1       2.673   0.885  -0.019  0.00  0.00    +0.102 C 
BRANCH   9  10
ATOM     10  C   UNL     1       3.001  -0.345   0.787  0.00  0.00    -0.015 A 
ATOM     11  C   UNL     1       3.186  -1.559   0.151  0.00  0.00    +0.008 A 
ATOM     12  C   UNL     1       3.481  -2.689   0.890  0.00  0.00    +0.020 A 
ATOM     13  C   UNL     1       3.603  -2.603   2.265  0.00  0.00    +0.041 A 
ATOM     14  C   UNL     1       3.419  -1.388   2.901  0.00  0.00    +0.020 A 
ATOM     15  C   UNL     1       3.118  -0.260   2.161  0.00  0.00    +0.008 A 
ATOM     16 CL   UNL     1       3.980  -4.020   3.194  0.00  0.00    -0.084 Cl
ENDBRANCH   9  10
BRANCH   9  17
ATOM     17  O   UNL     1       2.674   0.557  -1.410  0.00  0.00    -0.383 OA
ATOM     18  H   UNL     1       3.587   0.166  -1.883  0.00  0.00    +0.211 HD
ENDBRANCH   9  17
BRANCH   9  19
ATOM     19  C   UNL     1       1.291   1.404   0.382  0.00  0.00    +0.066 C 
BRANCH  19  21
ATOM     20  C   UNL     1      -0.546  -0.064   1.038  0.00  0.00    +0.004 C 
ATOM     21  C   UNL     1       0.254   0.350   0.088  0.00  0.00    -0.031 C 
ENDBRANCH  19  21
ENDBRANCH   9  19
ENDBRANCH   1   9
BRANCH   1  22
ATOM     22  C   UNL     1       3.437   3.184  -0.631  0.00  0.00    +0.096 C 
BRANCH  22  23
ATOM     23  N   UNL     1       4.399   4.250  -0.319  0.00  0.00    -0.297 NA
ATOM     24  C   UNL     1       4.095   4.870   0.978  0.00  0.00    +0.112 C 
ATOM     25  C   UNL     1       5.153   5.932   1.291  0.00  0.00    +0.175 C 
ATOM     26  O   UNL     1       5.190   6.888   0.228  0.00  0.00    -0.377 OA
ATOM     27  C   UNL     1       5.484   6.318  -1.050  0.00  0.00    +0.175 C 
ATOM     28  C   UNL     1       4.429   5.261  -1.386  0.00  0.00    +0.112 C 
ENDBRANCH  22  23
ENDBRANCH   1  22
TORSDOF 8
