REMARK  Name = ZINC59937928
REMARK  14 active torsions:
REMARK  status: ('A' for Active; 'I' for Inactive)
REMARK    1  A    between atoms: C_1  and  O_2
REMARK    2  A    between atoms: O_2  and  C_3
REMARK    3  A    between atoms: C_5  and  C_13
REMARK    4  A    between atoms: C_7  and  O_11
REMARK    5  A    between atoms: C_8  and  O_9
REMARK    6  A    between atoms: O_9  and  C_10
REMARK    7  A    between atoms: O_11  and  C_12
REMARK    8  A    between atoms: N_14  and  N_15
REMARK    9  A    between atoms: C_22  and  S_23
REMARK   10  A    between atoms: S_23  and  C_24
REMARK   11  A    between atoms: C_24  and  C_25
REMARK   12  A    between atoms: C_25  and  C_26
REMARK   13  A    between atoms: C_26  and  C_27
REMARK   14  A    between atoms: C_27  and  C_32
REMARK                            x       y       z     vdW  Elec       q    Type
REMARK                         _______ _______ _______ _____ _____    ______ ____
ROOT
ATOM      1  N   UNL     1       3.313   0.524   6.405  0.00  0.00    -0.184 N 
ATOM      2  C   UNL     1       3.234   1.885   6.550  0.00  0.00    +0.249 A 
ATOM      3  N   UNL     1       3.875   2.243   7.618  0.00  0.00    -0.150 NA
ATOM      4  N   UNL     1       4.409   1.105   8.226  0.00  0.00    -0.169 N 
ATOM      5  C   UNL     1       4.047   0.026   7.461  0.00  0.00    +0.275 A 
ATOM      6  N   UNL     1       4.545  -1.040   8.039  0.00  0.00    -0.106 NA
ATOM      7  N   UNL     1       5.184  -0.703   9.104  0.00  0.00    -0.119 NA
ATOM      8  C   UNL     1       5.139   0.599   9.262  0.00  0.00    +0.214 A 
ENDROOT
BRANCH   1  10
ATOM      9  C   UNL     1       2.071   0.363   4.430  0.00  0.00    +0.141 C 
ATOM     10  N   UNL     1       2.743  -0.229   5.370  0.00  0.00    -0.170 NA
BRANCH   9  13
ATOM     11  C   UNL     1       0.188  -0.539   1.308  0.00  0.00    +0.166 A 
ATOM     12  C   UNL     1       0.749   0.207   2.329  0.00  0.00    +0.059 A 
ATOM     13  C   UNL     1       1.472  -0.429   3.341  0.00  0.00    +0.002 A 
ATOM     14  C   UNL     1       1.626  -1.818   3.319  0.00  0.00    +0.059 A 
ATOM     15  C   UNL     1       1.063  -2.558   2.295  0.00  0.00    +0.166 A 
ATOM     16  C   UNL     1       0.339  -1.922   1.291  0.00  0.00    +0.204 A 
BRANCH  11  18
ATOM     17  C   UNL     1      -0.631   1.501   0.402  0.00  0.00    +0.277 C 
ATOM     18  O   UNL     1      -0.516   0.079   0.322  0.00  0.00    -0.491 OA
ENDBRANCH  11  18
BRANCH  16  19
ATOM     19  O   UNL     1      -0.218  -2.654   0.289  0.00  0.00    -0.488 OA
ATOM     20  C   UNL     1       0.583  -2.878  -0.873  0.00  0.00    +0.277 C 
ENDBRANCH  16  19
BRANCH  15  21
ATOM     21  O   UNL     1       1.213  -3.910   2.273  0.00  0.00    -0.491 OA
ATOM     22  C   UNL     1       1.964  -4.497   3.337  0.00  0.00    +0.277 C 
ENDBRANCH  15  21
ENDBRANCH   9  13
ENDBRANCH   1  10
BRANCH   8  23
ATOM     23  S   UNL     1       5.868   1.519  10.577  0.00  0.00    -0.084 S 
BRANCH  23  24
ATOM     24  C   UNL     1       6.682   0.259  11.596  0.00  0.00    +0.077 C 
BRANCH  24  25
ATOM     25  C   UNL     1       7.364   0.931  12.789  0.00  0.00    +0.017 C 
BRANCH  25  26
ATOM     26  C   UNL     1       8.051  -0.132  13.649  0.00  0.00    +0.071 C 
BRANCH  26  27
ATOM     27  C   UNL     1       8.841   0.550  14.768  0.00  0.00    +0.197 C 
ATOM     28  O   UNL     1       9.845   1.401  14.200  0.00  0.00    -0.342 OA
ATOM     29  C   UNL     1      11.125   0.916  14.653  0.00  0.00    +0.191 C 
ATOM     30  C   UNL     1      10.825  -0.553  15.044  0.00  0.00    +0.191 C 
ATOM     31  O   UNL     1       9.485  -0.446  15.581  0.00  0.00    -0.342 OA
BRANCH  27  32
ATOM     32  C   UNL     1       7.907   1.371  15.619  0.00  0.00    +0.011 A 
ATOM     33  C   UNL     1       7.662   2.693  15.297  0.00  0.00    +0.009 A 
ATOM     34  C   UNL     1       6.806   3.447  16.078  0.00  0.00    +0.000 A 
ATOM     35  C   UNL     1       6.194   2.879  17.180  0.00  0.00    +0.000 A 
ATOM     36  C   UNL     1       6.439   1.557  17.501  0.00  0.00    +0.000 A 
ATOM     37  C   UNL     1       7.292   0.802  16.718  0.00  0.00    +0.009 A 
ENDBRANCH  27  32
ENDBRANCH  26  27
ENDBRANCH  25  26
ENDBRANCH  24  25
ENDBRANCH  23  24
ENDBRANCH   8  23
TORSDOF 11
