REMARK  Name = ZINC47080716
REMARK  4 active torsions:
REMARK  status: ('A' for Active; 'I' for Inactive)
REMARK    1  A    between atoms: C_1  and  C_2
REMARK    2  A    between atoms: C_6  and  N_8
REMARK    3  A    between atoms: C_12  and  C_13
REMARK    4  A    between atoms: C_16  and  C_19
REMARK                            x       y       z     vdW  Elec       q    Type
REMARK                         _______ _______ _______ _____ _____    ______ ____
ROOT
ATOM      1  N   UNL     1      -0.155  -2.795   2.399  0.00  0.00    -0.224 N 
ATOM      2  C   UNL     1      -0.212  -4.116   2.378  0.00  0.00    +0.263 C 
ATOM      3  O   UNL     1      -0.384  -4.733   1.343  0.00  0.00    -0.269 OA
ATOM      4  C   UNL     1      -0.056  -4.805   3.678  0.00  0.00    +0.077 C 
ATOM      5  C   UNL     1      -0.070  -6.132   3.961  0.00  0.00    +0.028 C 
ATOM      6  S   UNL     1       0.157  -3.408   4.773  0.00  0.00    -0.061 S 
ATOM      7  C   UNL     1       0.042  -2.116   3.547  0.00  0.00    +0.125 C 
ATOM      8  S   UNL     1       0.151  -0.422   3.775  0.00  0.00    -0.027 S 
ENDROOT
BRANCH   1  14
ATOM      9  C   UNL     1      -3.022  -0.357  -0.767  0.00  0.00    +0.044 C 
ATOM     10  C   UNL     1      -1.674  -0.893  -0.359  0.00  0.00    -0.049 A 
ATOM     11  C   UNL     1      -0.573  -0.683  -1.170  0.00  0.00    +0.003 A 
ATOM     12  C   UNL     1       0.665  -1.173  -0.800  0.00  0.00    +0.002 A 
ATOM     13  C   UNL     1       0.807  -1.873   0.383  0.00  0.00    +0.024 A 
ATOM     14  C   UNL     1      -0.295  -2.085   1.199  0.00  0.00    +0.043 A 
ATOM     15  C   UNL     1      -1.537  -1.587   0.827  0.00  0.00    +0.027 A 
ENDBRANCH   1  14
BRANCH   5  16
ATOM     16  C   UNL     1      -0.066  -7.115   2.870  0.00  0.00    -0.024 A 
ATOM     17  C   UNL     1       0.690  -6.878   1.715  0.00  0.00    +0.009 A 
ATOM     18  C   UNL     1       0.692  -7.794   0.702  0.00  0.00    +0.019 A 
ATOM     19  C   UNL     1      -0.059  -8.968   0.817  0.00  0.00    +0.052 A 
ATOM     20  C   UNL     1      -0.814  -9.206   1.970  0.00  0.00    +0.019 A 
ATOM     21  C   UNL     1      -0.814  -8.294   2.987  0.00  0.00    +0.009 A 
BRANCH  19  22
ATOM     22  C   UNL     1      -0.056  -9.927  -0.246  0.00  0.00    +0.099 C 
ATOM     23  N   UNL     1      -0.053 -10.687  -1.090  0.00  0.00    -0.191 NA
ENDBRANCH  19  22
ENDBRANCH   5  16
TORSDOF 3
