REMARK  Name = ZINC20547150
REMARK  2 active torsions:
REMARK  status: ('A' for Active; 'I' for Inactive)
REMARK    1  A    between atoms: C_1  and  C_2
REMARK    2  A    between atoms: N_21  and  C_23
REMARK                            x       y       z     vdW  Elec       q    Type
REMARK                         _______ _______ _______ _____ _____    ______ ____
ROOT
ATOM      1  C   UNL     1      -1.446   1.008  -1.461  0.00  0.00    +0.007 C 
ATOM      2  C   UNL     1      -0.766   0.119  -0.418  0.00  0.00    -0.011 C 
ATOM      3  C   UNL     1      -0.783  -1.334  -0.896  0.00  0.00    +0.022 C 
ATOM      4  C   UNL     1      -0.070  -2.216   0.134  0.00  0.00    +0.107 C 
ATOM      5  N   UNL     1      -0.693  -2.005   1.448  0.00  0.00    -0.315 N 
ATOM      6  C   UNL     1      -0.810  -0.634   1.963  0.00  0.00    +0.107 C 
ATOM      7  C   UNL     1      -1.514   0.230   0.912  0.00  0.00    +0.022 C 
ATOM      8  C   UNL     1      -1.164  -3.081   2.189  0.00  0.00    +0.125 A 
ATOM      9  C   UNL     1      -0.281  -3.770   3.031  0.00  0.00    -0.020 A 
ATOM     10  C   UNL     1      -0.741  -4.824   3.759  0.00  0.00    -0.030 A 
ATOM     11  C   UNL     1      -2.090  -5.186   3.633  0.00  0.00    +0.063 A 
ATOM     12  C   UNL     1      -2.922  -6.231   4.230  0.00  0.00    +0.147 A 
ATOM     13  N   UNL     1      -4.128  -6.099   3.743  0.00  0.00    -0.157 NA
ATOM     14  N   UNL     1      -4.168  -5.025   2.848  0.00  0.00    -0.258 N 
ATOM     15  H   UNL     1      -4.952  -4.730   2.360  0.00  0.00    +0.191 HD
ATOM     16  C   UNL     1      -2.927  -4.455   2.770  0.00  0.00    +0.160 A 
ATOM     17  N   UNL     1      -2.433  -3.428   2.086  0.00  0.00    -0.213 NA
ATOM     18  N   UNL     1      -2.504  -7.194   5.151  0.00  0.00    -0.341 N 
ATOM     19  C   UNL     1       0.153  -5.598   4.689  0.00  0.00    +0.018 C 
ATOM     20  C   UNL     1       1.618  -5.299   4.368  0.00  0.00    -0.073 C 
ATOM     21  N   UNL     1       1.796  -3.839   4.316  0.00  0.00    +0.385 N 
ATOM     22  C   UNL     1       1.155  -3.323   3.104  0.00  0.00    -0.039 C 
ATOM     23  H   UNL     1      -1.582  -7.209   5.452  0.00  0.00    +0.144 HD
ATOM     24  H   UNL     1      -3.136  -7.848   5.490  0.00  0.00    +0.144 HD
ATOM     25  H   UNL     1       1.372  -3.418   5.129  0.00  0.00    -0.081 HD
ENDROOT
BRANCH  21  26
ATOM     26  C   UNL     1       3.230  -3.520   4.287  0.00  0.00    -0.068 C 
ATOM     27  C   UNL     1       3.875  -3.951   5.606  0.00  0.00    -0.015 C 
ATOM     28  C   UNL     1       5.368  -3.618   5.576  0.00  0.00    -0.002 C 
ATOM     29  C   UNL     1       5.551  -2.111   5.387  0.00  0.00    -0.000 C 
ATOM     30  C   UNL     1       4.906  -1.680   4.068  0.00  0.00    -0.002 C 
ATOM     31  C   UNL     1       3.413  -2.013   4.098  0.00  0.00    -0.015 C 
ENDBRANCH  21  26
TORSDOF 1
