REMARK  Name = ZINC09509995
REMARK  11 active torsions:
REMARK  status: ('A' for Active; 'I' for Inactive)
REMARK    1  A    between atoms: C_1  and  C_2
REMARK    2  A    between atoms: C_3  and  C_36
REMARK    3  A    between atoms: C_11  and  C_13
REMARK    4  A    between atoms: C_13  and  O_14
REMARK    5  A    between atoms: O_14  and  C_15
REMARK    6  A    between atoms: C_15  and  C_17
REMARK    7  A    between atoms: C_20  and  O_35
REMARK    8  A    between atoms: N_23  and  S_24
REMARK    9  A    between atoms: S_24  and  C_27
REMARK   10  A    between atoms: C_30  and  O_33
REMARK   11  A    between atoms: O_33  and  C_34
REMARK                            x       y       z     vdW  Elec       q    Type
REMARK                         _______ _______ _______ _____ _____    ______ ____
ROOT
ATOM      1  C   UNL     1       0.057  -7.025   4.686  0.00  0.00    +0.191 C 
ATOM      2  C   UNL     1      -1.226  -7.416   3.922  0.00  0.00    +0.064 C 
ATOM      3  C   UNL     1      -1.339  -8.941   4.189  0.00  0.00    +0.132 C 
ATOM      4  C   UNL     1      -0.807  -9.042   5.640  0.00  0.00    +0.141 C 
ATOM      5  N   UNL     1       0.286  -8.052   5.713  0.00  0.00    -0.160 NA
ENDROOT
BRANCH   5   6
ATOM      6  S   UNL     1       1.558  -8.088   6.773  0.00  0.00    +0.062 S 
ATOM      7  O   UNL     1       2.111  -6.779   6.790  0.00  0.00    -0.153 OA
ATOM      8  O   UNL     1       1.089  -8.732   7.949  0.00  0.00    -0.153 OA
BRANCH   6   9
ATOM      9  C   UNL     1       2.786  -9.144   6.077  0.00  0.00    +0.106 A 
ATOM     10  C   UNL     1       2.723 -10.509   6.289  0.00  0.00    +0.032 A 
ATOM     11  C   UNL     1       3.684 -11.339   5.745  0.00  0.00    +0.047 A 
ATOM     12  C   UNL     1       4.713 -10.801   4.985  0.00  0.00    +0.120 A 
ATOM     13  C   UNL     1       4.774  -9.431   4.774  0.00  0.00    +0.047 A 
ATOM     14  C   UNL     1       3.807  -8.607   5.316  0.00  0.00    +0.032 A 
BRANCH  12  15
ATOM     15  O   UNL     1       5.660 -11.615   4.449  0.00  0.00    -0.495 OA
ATOM     16  C   UNL     1       6.690 -10.993   3.679  0.00  0.00    +0.277 C 
ENDBRANCH  12  15
ENDBRANCH   6   9
ENDBRANCH   5   6
BRANCH   1  17
ATOM     17  C   UNL     1      -0.126  -5.679   5.338  0.00  0.00    +0.327 C 
ATOM     18  O   UNL     1      -0.544  -5.607   6.469  0.00  0.00    -0.249 OA
BRANCH  17  19
ATOM     19  O   UNL     1       0.177  -4.559   4.662  0.00  0.00    -0.456 OA
BRANCH  19  20
ATOM     20  C   UNL     1      -0.020  -3.318   5.342  0.00  0.00    +0.306 C 
BRANCH  20  31
ATOM     21  C   UNL     1       1.470   2.317   2.029  0.00  0.00    +0.045 C 
ATOM     22  C   UNL     1       1.504   0.835   1.757  0.00  0.00    -0.026 A 
ATOM     23  C   UNL     1       1.931   0.371   0.572  0.00  0.00    -0.008 A 
ATOM     24  S   UNL     1       1.785  -1.398   0.743  0.00  0.00    -0.073 S 
ATOM     25  C   UNL     1       1.156  -1.462   2.401  0.00  0.00    +0.116 A 
ATOM     26  C   UNL     1       1.082  -0.108   2.776  0.00  0.00    +0.075 A 
ATOM     27  C   UNL     1       0.599   0.142   4.102  0.00  0.00    +0.260 A 
ATOM     28  O   UNL     1       0.495   1.283   4.518  0.00  0.00    -0.267 OA
ATOM     29  N   UNL     1       0.262  -0.903   4.880  0.00  0.00    -0.308 N 
ATOM     30  H   UNL     1      -0.066  -0.740   5.779  0.00  0.00    +0.170 HD
ATOM     31  C   UNL     1       0.370  -2.181   4.434  0.00  0.00    +0.149 A 
ATOM     32  N   UNL     1       0.799  -2.441   3.227  0.00  0.00    -0.223 NA
ATOM     33  C   UNL     1       2.416   1.157  -0.619  0.00  0.00    +0.052 C 
ENDBRANCH  20  31
ENDBRANCH  19  20
ENDBRANCH  17  19
ENDBRANCH   1  17
BRANCH   3  34
ATOM     34  O   UNL     1      -0.513  -9.681   3.287  0.00  0.00    -0.390 OA
ATOM     35  H   UNL     1      -0.550 -10.638   3.416  0.00  0.00    +0.210 HD
ENDBRANCH   3  34
TORSDOF 8
