REMARK  Name = ZINC07185785
REMARK  6 active torsions:
REMARK  status: ('A' for Active; 'I' for Inactive)
REMARK    1  A    between atoms: C_1  and  O_2
REMARK    2  A    between atoms: O_2  and  C_3
REMARK    3  A    between atoms: C_6  and  O_26
REMARK    4  A    between atoms: C_7  and  C_9
REMARK    5  A    between atoms: C_9  and  N_10
REMARK    6  A    between atoms: O_26  and  C_27
REMARK                            x       y       z     vdW  Elec       q    Type
REMARK                         _______ _______ _______ _____ _____    ______ ____
ROOT
ATOM      1  N   UNL     1      -3.591   5.728   3.493  0.00  0.00    -0.219 N 
ATOM      2  C   UNL     1      -4.660   4.909   3.575  0.00  0.00    +0.251 C 
ATOM      3  O   UNL     1      -4.672   3.753   3.942  0.00  0.00    -0.272 OA
ATOM      4  C   UNL     1      -5.839   5.735   3.114  0.00  0.00    +0.138 C 
ATOM      5  C   UNL     1      -6.861   5.870   4.237  0.00  0.00    +0.040 C 
ATOM      6  C   UNL     1      -7.579   4.526   4.406  0.00  0.00    +0.008 C 
ATOM      7  C   UNL     1      -8.454   4.287   3.178  0.00  0.00    +0.035 C 
ATOM      8  C   UNL     1      -7.653   4.453   1.913  0.00  0.00    -0.042 A 
ATOM      9  C   UNL     1      -6.450   5.126   1.884  0.00  0.00    -0.012 A 
ATOM     10  C   UNL     1      -5.765   5.256   0.683  0.00  0.00    +0.006 A 
ATOM     11  C   UNL     1      -6.276   4.713  -0.478  0.00  0.00    +0.000 A 
ATOM     12  C   UNL     1      -7.480   4.035  -0.447  0.00  0.00    +0.000 A 
ATOM     13  C   UNL     1      -8.164   3.906   0.744  0.00  0.00    +0.004 A 
ATOM     14  N   UNL     1      -5.252   7.044   2.796  0.00  0.00    -0.281 N 
ATOM     15  C   UNL     1      -3.934   6.944   3.054  0.00  0.00    +0.310 C 
ATOM     16  O   UNL     1      -3.145   7.856   2.903  0.00  0.00    -0.252 OA
ATOM     17  H   UNL     1      -5.722   7.827   2.469  0.00  0.00    +0.152 HD
ENDROOT
BRANCH   1  18
ATOM     18  C   UNL     1      -2.224   5.335   3.846  0.00  0.00    +0.157 C 
BRANCH  18  23
ATOM     19  C   UNL     1      -0.787   2.893   1.346  0.00  0.00    +0.121 A 
ATOM     20  C   UNL     1      -0.258   3.750   0.393  0.00  0.00    +0.049 A 
ATOM     21  C   UNL     1      -0.365   5.117   0.558  0.00  0.00    +0.049 A 
ATOM     22  C   UNL     1      -1.003   5.633   1.677  0.00  0.00    +0.125 A 
ATOM     23  C   UNL     1      -1.532   4.775   2.630  0.00  0.00    +0.015 A 
ATOM     24  C   UNL     1      -1.430   3.408   2.462  0.00  0.00    +0.054 A 
BRANCH  19  26
ATOM     25  C   UNL     1      -0.013   1.086   0.008  0.00  0.00    +0.277 C 
ATOM     26  O   UNL     1      -0.682   1.547   1.184  0.00  0.00    -0.495 OA
ENDBRANCH  19  26
BRANCH  22  27
ATOM     27  O   UNL     1      -1.108   6.979   1.840  0.00  0.00    -0.495 OA
ATOM     28  C   UNL     1      -0.540   7.802   0.820  0.00  0.00    +0.277 C 
ENDBRANCH  22  27
ENDBRANCH  18  23
ENDBRANCH   1  18
TORSDOF 4
