REMARK  Name = ZINC20158835
REMARK  5 active torsions:
REMARK  status: ('A' for Active; 'I' for Inactive)
REMARK    1  A    between atoms: C_1  and  C_2
REMARK    2  A    between atoms: C_2  and  C_18
REMARK    3  A    between atoms: N_3  and  N_4
REMARK    4  A    between atoms: C_5  and  C_7
REMARK    5  A    between atoms: C_16  and  O_17
REMARK                            x       y       z     vdW  Elec       q    Type
REMARK                         _______ _______ _______ _____ _____    ______ ____
ROOT
ATOM      1  N   UNL     1      -3.754   3.417   0.060  0.00  0.00    -0.203 N 
ATOM      2  C   UNL     1      -3.721   2.070   0.052  0.00  0.00    +0.267 C 
ATOM      3  O   UNL     1      -4.758   1.435   0.059  0.00  0.00    -0.268 OA
ATOM      4  H   UNL     1      -2.816   3.990   0.053  0.00  0.00    +0.178 HD
ENDROOT
BRANCH   2   5
ATOM      5  C   UNL     1      -2.425   1.364   0.034  0.00  0.00    +0.080 A 
ATOM      6  C   UNL     1      -1.245   2.091   0.031  0.00  0.00    +0.025 A 
ATOM      7  C   UNL     1      -0.017   1.415   0.010  0.00  0.00    -0.017 A 
ATOM      8  C   UNL     1       1.200   2.121   0.002  0.00  0.00    +0.008 A 
ATOM      9  C   UNL     1       2.376   1.436  -0.013  0.00  0.00    +0.001 A 
ATOM     10  C   UNL     1       2.394   0.043  -0.021  0.00  0.00    +0.001 A 
ATOM     11  C   UNL     1       1.238  -0.674  -0.013  0.00  0.00    +0.008 A 
ATOM     12  C   UNL     1       0.002  -0.004   0.002  0.00  0.00    -0.014 A 
ATOM     13  C   UNL     1      -1.208  -0.718   0.010  0.00  0.00    +0.054 A 
ATOM     14  C   UNL     1      -2.395  -0.047   0.026  0.00  0.00    +0.130 A 
BRANCH  14  15
ATOM     15  O   UNL     1      -3.560  -0.743   0.033  0.00  0.00    -0.506 OA
ATOM     16  H   UNL     1      -3.543  -1.843   0.027  0.00  0.00    +0.292 HD
ENDBRANCH  14  15
ENDBRANCH   2   5
BRANCH   1  19
ATOM     17  C   UNL     1      -3.731   6.173   0.075  0.00  0.00    +0.068 C 
ATOM     18  C   UNL     1      -5.017   5.388   0.084  0.00  0.00    +0.070 C 
ATOM     19  N   UNL     1      -4.984   4.087   0.076  0.00  0.00    -0.184 NA
BRANCH  18  20
ATOM     20  C   UNL     1      -6.304   6.089   0.102  0.00  0.00    +0.036 A 
ATOM     21  C   UNL     1      -7.584   5.562   0.106  0.00  0.00    +0.019 A 
ATOM     22  C   UNL     1      -8.649   6.433   0.129  0.00  0.00    +0.028 A 
ATOM     23  C   UNL     1      -8.413   7.772   0.133  0.00  0.00    +0.079 A 
ATOM     24  S   UNL     1      -6.630   7.844   0.114  0.00  0.00    -0.076 S 
ATOM     25 CL   UNL     1      -9.555   9.079   0.152  0.00  0.00    -0.076 Cl
ENDBRANCH  18  20
ENDBRANCH   1  19
TORSDOF 4
