REMARK  Name = ZINC24711909
REMARK  10 active torsions:
REMARK  status: ('A' for Active; 'I' for Inactive)
REMARK    1  A    between atoms: C_1  and  C_2
REMARK    2  A    between atoms: C_3  and  C_12
REMARK    3  A    between atoms: C_12  and  C_14
REMARK    4  A    between atoms: C_14  and  O_15
REMARK    5  A    between atoms: O_15  and  C_16
REMARK    6  A    between atoms: C_16  and  C_18
REMARK    7  A    between atoms: C_21  and  O_28
REMARK    8  A    between atoms: C_22  and  S_24
REMARK    9  A    between atoms: S_24  and  N_27
REMARK   10  A    between atoms: O_28  and  C_29
REMARK                            x       y       z     vdW  Elec       q    Type
REMARK                         _______ _______ _______ _____ _____    ______ ____
ROOT
ATOM      1  C   UNL     1      -2.517   3.916   0.037  0.00  0.00    +0.340 C 
ATOM      2  O   UNL     1      -2.541   5.131   0.028  0.00  0.00    -0.245 OA
ENDROOT
BRANCH   1   3
ATOM      3  C   UNL     1      -1.226   3.204   0.030  0.00  0.00    +0.061 A 
ATOM      4  C   UNL     1      -1.197   1.806   0.034  0.00  0.00    +0.018 A 
ATOM      5  C   UNL     1       0.011   1.145   0.033  0.00  0.00    +0.048 A 
ATOM      6  C   UNL     1       1.200   1.865   0.017  0.00  0.00    +0.146 A 
ATOM      7  C   UNL     1       1.175   3.255   0.006  0.00  0.00    +0.147 A 
ATOM      8  C   UNL     1      -0.029   3.924   0.013  0.00  0.00    +0.047 A 
BRANCH   7   9
ATOM      9  S   UNL     1       2.686   4.162  -0.015  0.00  0.00    +0.059 S 
ATOM     10  O   UNL     1       3.485   3.595  -1.044  0.00  0.00    -0.153 OA
ATOM     11  O   UNL     1       2.333   5.538   0.004  0.00  0.00    -0.153 OA
BRANCH   9  12
ATOM     12  N   UNL     1       3.463   3.852   1.413  0.00  0.00    -0.203 NA
ATOM     13  H   UNL     1       4.415   4.402   1.440  0.00  0.00    +0.144 HD
ATOM     14  H   UNL     1       3.661   2.773   1.497  0.00  0.00    +0.144 HD
ENDBRANCH   9  12
ENDBRANCH   7   9
BRANCH   6  15
ATOM     15  O   UNL     1       2.388   1.210   0.010  0.00  0.00    -0.493 OA
ATOM     16  C   UNL     1       2.341  -0.218   0.021  0.00  0.00    +0.277 C 
ENDBRANCH   6  15
ENDBRANCH   1   3
BRANCH   1  17
ATOM     17  O   UNL     1      -3.671   3.220   0.053  0.00  0.00    -0.453 OA
BRANCH  17  18
ATOM     18  C   UNL     1      -4.904   3.986   0.060  0.00  0.00    +0.312 C 
BRANCH  18  19
ATOM     19  C   UNL     1      -6.081   3.045   0.078  0.00  0.00    +0.203 C 
ATOM     20  O   UNL     1      -5.902   1.848  -0.013  0.00  0.00    -0.288 OA
BRANCH  19  23
ATOM     21  C   UNL     1      -7.499   3.689   2.758  0.00  0.00    +0.064 C 
ATOM     22  C   UNL     1      -8.062   3.857   1.371  0.00  0.00    +0.025 A 
ATOM     23  C   UNL     1      -7.396   3.558   0.201  0.00  0.00    +0.049 A 
ATOM     24  C   UNL     1      -8.331   3.873  -0.896  0.00  0.00    +0.011 A 
ATOM     25  C   UNL     1      -8.258   3.787  -2.284  0.00  0.00    +0.011 A 
ATOM     26  C   UNL     1      -9.337   4.171  -3.049  0.00  0.00    +0.001 A 
ATOM     27  C   UNL     1     -10.493   4.641  -2.443  0.00  0.00    +0.002 A 
ATOM     28  C   UNL     1     -10.579   4.732  -1.071  0.00  0.00    +0.026 A 
ATOM     29  C   UNL     1      -9.499   4.349  -0.280  0.00  0.00    +0.047 A 
ATOM     30  N   UNL     1      -9.292   4.326   1.084  0.00  0.00    -0.358 N 
ATOM     31  H   UNL     1      -9.970   4.625   1.897  0.00  0.00    +0.166 HD
ENDBRANCH  19  23
ENDBRANCH  18  19
ENDBRANCH  17  18
ENDBRANCH   1  17
TORSDOF 8
