REMARK  Name = ZINC04564694
REMARK  10 active torsions:
REMARK  status: ('A' for Active; 'I' for Inactive)
REMARK    1  A    between atoms: C_1  and  C_2
REMARK    2  A    between atoms: C_2  and  C_4
REMARK    3  A    between atoms: C_2  and  O_16
REMARK    4  A    between atoms: N_6  and  C_7
REMARK    5  A    between atoms: C_12  and  N_13
REMARK    6  A    between atoms: O_16  and  C_17
REMARK    7  A    between atoms: C_17  and  C_19
REMARK    8  A    between atoms: C_19  and  N_27
REMARK    9  A    between atoms: C_20  and  C_21
REMARK   10  A    between atoms: C_28  and  C_30
REMARK                            x       y       z     vdW  Elec       q    Type
REMARK                         _______ _______ _______ _____ _____    ______ ____
ROOT
ATOM      1  O   UNL     1      -0.869   2.058   0.133  0.00  0.00    -0.448 OA
ENDROOT
BRANCH   1   3
ATOM      2  C   UNL     1      -1.395   0.137   1.535  0.00  0.00    +0.062 C 
ATOM      3  C   UNL     1      -1.296   0.670   0.104  0.00  0.00    +0.259 C 
BRANCH   3   4
ATOM      4  C   UNL     1      -2.643   0.572  -0.563  0.00  0.00    +0.258 C 
ATOM      5  O   UNL     1      -3.191   1.574  -0.973  0.00  0.00    -0.271 OA
ATOM      6  N   UNL     1      -3.241  -0.628  -0.703  0.00  0.00    -0.281 N 
ATOM      7  H   UNL     1      -2.767  -1.437  -0.454  0.00  0.00    +0.155 HD
BRANCH   6   8
ATOM      8  C   UNL     1      -4.543  -0.706  -1.207  0.00  0.00    +0.064 A 
ATOM      9  C   UNL     1      -5.408   0.373  -1.074  0.00  0.00    +0.025 A 
ATOM     10  C   UNL     1      -6.691   0.294  -1.576  0.00  0.00    +0.002 A 
ATOM     11  C   UNL     1      -7.120  -0.862  -2.203  0.00  0.00    +0.002 A 
ATOM     12  C   UNL     1      -6.264  -1.940  -2.334  0.00  0.00    +0.034 A 
ATOM     13  C   UNL     1      -4.977  -1.865  -1.837  0.00  0.00    +0.147 A 
BRANCH  13  14
ATOM     14  N   UNL     1      -4.061  -3.020  -1.977  0.00  0.00    +0.058 N 
ATOM     15  O   UNL     1      -4.411  -4.002  -2.607  0.00  0.00    -0.126 OA
ATOM     16  O   UNL     1      -2.958  -2.988  -1.461  0.00  0.00    -0.126 OA
ENDBRANCH  13  14
ENDBRANCH   6   8
ENDBRANCH   3   4
ENDBRANCH   1   3
BRANCH   1  17
ATOM     17  C   UNL     1       0.459   2.291   0.093  0.00  0.00    +0.354 C 
ATOM     18  O   UNL     1       1.238   1.360   0.036  0.00  0.00    -0.244 OA
BRANCH  17  19
ATOM     19  C   UNL     1       0.963   3.670   0.119  0.00  0.00    +0.119 C 
ATOM     20  C   UNL     1       2.295   3.905   0.080  0.00  0.00    +0.038 C 
BRANCH  20  21
ATOM     21  C   UNL     1       2.797   5.285   0.003  0.00  0.00    -0.023 A 
ATOM     22  C   UNL     1       3.970   5.568  -0.705  0.00  0.00    +0.008 A 
ATOM     23  C   UNL     1       4.430   6.866  -0.778  0.00  0.00    +0.001 A 
ATOM     24  C   UNL     1       3.742   7.885  -0.143  0.00  0.00    +0.000 A 
ATOM     25  C   UNL     1       2.584   7.612   0.565  0.00  0.00    +0.001 A 
ATOM     26  C   UNL     1       2.107   6.321   0.642  0.00  0.00    +0.008 A 
ENDBRANCH  20  21
BRANCH  19  27
ATOM     27  N   UNL     1       0.066   4.742   0.185  0.00  0.00    -0.280 N 
ATOM     28  C   UNL     1      -0.786   4.845   1.224  0.00  0.00    +0.214 C 
ATOM     29  O   UNL     1      -0.713   4.062   2.148  0.00  0.00    -0.276 OA
ATOM     30  C   UNL     1      -1.830   5.932   1.238  0.00  0.00    +0.109 C 
ATOM     31  H   UNL     1       0.057   5.410  -0.517  0.00  0.00    +0.155 HD
ENDBRANCH  19  27
ENDBRANCH  17  19
ENDBRANCH   1  17
TORSDOF 8
