REMARK  Name = ZINC09468959
REMARK  7 active torsions:
REMARK  status: ('A' for Active; 'I' for Inactive)
REMARK    1  A    between atoms: C_1  and  C_2
REMARK    2  A    between atoms: C_3  and  C_31
REMARK    3  A    between atoms: C_11  and  C_13
REMARK    4  A    between atoms: C_13  and  S_14
REMARK    5  A    between atoms: S_14  and  C_15
REMARK    6  A    between atoms: C_18  and  S_21
REMARK    7  A    between atoms: S_21  and  N_24
REMARK                            x       y       z     vdW  Elec       q    Type
REMARK                         _______ _______ _______ _____ _____    ______ ____
ROOT
ATOM      1  C   UNL     1      -1.809   2.932   3.919  0.00  0.00    +0.097 A 
ATOM      2  C   UNL     1      -0.429   2.762   3.848  0.00  0.00    +0.037 A 
ATOM      3  C   UNL     1       0.140   2.368   2.651  0.00  0.00    +0.032 A 
ATOM      4  C   UNL     1      -0.694   2.155   1.560  0.00  0.00    +0.124 A 
ATOM      5  C   UNL     1      -2.053   2.348   1.699  0.00  0.00    +0.140 A 
ATOM      6  N   UNL     1      -2.569   2.719   2.856  0.00  0.00    -0.247 NA
ENDROOT
BRANCH   4   7
ATOM      7  S   UNL     1      -0.020   1.652   0.011  0.00  0.00    +0.062 S 
ATOM      8  O   UNL     1       1.336   2.076   0.001  0.00  0.00    -0.153 OA
ATOM      9  O   UNL     1      -0.952   2.051  -0.985  0.00  0.00    -0.153 OA
BRANCH   7  10
ATOM     10  N   UNL     1       0.002  -0.004   0.002  0.00  0.00    -0.177 NA
ATOM     11  C   UNL     1       1.179  -0.684   0.495  0.00  0.00    +0.109 C 
ATOM     12  C   UNL     1       2.184  -0.897  -0.656  0.00  0.00    +0.017 C 
ATOM     13  C   UNL     1       1.684  -1.920  -1.587  0.00  0.00    +0.001 C 
ATOM     14  C   UNL     1       0.379  -1.550  -2.286  0.00  0.00    +0.001 C 
ATOM     15  C   UNL     1      -0.785  -1.921  -1.401  0.00  0.00    +0.017 C 
ATOM     16  C   UNL     1      -1.178  -0.725  -0.515  0.00  0.00    +0.109 C 
ENDBRANCH   7  10
ENDBRANCH   4   7
BRANCH   1  17
ATOM     17  S   UNL     1      -2.550   3.434   5.437  0.00  0.00    -0.098 S 
BRANCH  17  18
ATOM     18  C   UNL     1      -4.321   3.519   5.053  0.00  0.00    +0.150 C 
BRANCH  18  29
ATOM     19  C   UNL     1      -8.490   5.340   9.977  0.00  0.00    +0.045 C 
ATOM     20  C   UNL     1      -7.007   5.132   9.807  0.00  0.00    -0.026 A 
ATOM     21  C   UNL     1      -6.170   5.328  10.839  0.00  0.00    -0.008 A 
ATOM     22  S   UNL     1      -4.569   4.962  10.147  0.00  0.00    -0.073 S 
ATOM     23  C   UNL     1      -5.069   4.556   8.493  0.00  0.00    +0.116 A 
ATOM     24  C   UNL     1      -6.466   4.717   8.526  0.00  0.00    +0.075 A 
ATOM     25  C   UNL     1      -7.149   4.449   7.295  0.00  0.00    +0.260 A 
ATOM     26  O   UNL     1      -8.361   4.560   7.222  0.00  0.00    -0.267 OA
ATOM     27  N   UNL     1      -6.431   4.078   6.219  0.00  0.00    -0.310 N 
ATOM     28  H   UNL     1      -6.887   3.899   5.382  0.00  0.00    +0.170 HD
ATOM     29  C   UNL     1      -5.081   3.944   6.283  0.00  0.00    +0.121 A 
ATOM     30  N   UNL     1      -4.430   4.181   7.390  0.00  0.00    -0.226 NA
ATOM     31  C   UNL     1      -6.505   5.755  12.245  0.00  0.00    +0.052 C 
ENDBRANCH  18  29
ENDBRANCH  17  18
ENDBRANCH   1  17
TORSDOF 5
