REMARK  Name = ZINC20176954
REMARK  10 active torsions:
REMARK  status: ('A' for Active; 'I' for Inactive)
REMARK    1  A    between atoms: C_1  and  C_2
REMARK    2  A    between atoms: C_2  and  O_3
REMARK    3  A    between atoms: O_3  and  C_4
REMARK    4  A    between atoms: C_7  and  C_10
REMARK    5  A    between atoms: N_15  and  C_29
REMARK    6  A    between atoms: C_19  and  C_27
REMARK    7  A    between atoms: C_20  and  N_26
REMARK    8  A    between atoms: C_21  and  C_22
REMARK    9  A    between atoms: C_21  and  C_24
REMARK   10  A    between atoms: C_29  and  C_30
REMARK                            x       y       z     vdW  Elec       q    Type
REMARK                         _______ _______ _______ _____ _____    ______ ____
ROOT
ATOM      1  C   UNL     1       2.490   1.045  -0.016  0.00  0.00    +0.067 C 
ATOM      2  C   UNL     1       3.354   1.513   1.156  0.00  0.00    +0.044 C 
ATOM      3  C   UNL     1       2.604   1.456   2.468  0.00  0.00    +0.094 C 
ATOM      4  N   UNL     1       2.934   0.254   3.237  0.00  0.00    -0.294 NA
ATOM      5  C   UNL     1       4.375   0.224   3.541  0.00  0.00    +0.112 C 
ATOM      6  C   UNL     1       5.118   0.137   2.231  0.00  0.00    -0.006 C 
ATOM      7  C   UNL     1       4.624   0.711   1.150  0.00  0.00    -0.026 C 
ATOM      8  C   UNL     1       5.303   0.528  -0.158  0.00  0.00    +0.074 C 
ATOM      9  C   UNL     1       4.630   0.816  -1.301  0.00  0.00    +0.054 C 
ATOM     10  C   UNL     1       3.224   1.337  -1.325  0.00  0.00    +0.188 C 
ENDROOT
BRANCH   1  14
ATOM     11  C   UNL     1      -1.237   3.137   0.031  0.00  0.00    +0.121 A 
ATOM     12  C   UNL     1      -1.211   1.768  -0.196  0.00  0.00    +0.046 A 
ATOM     13  C   UNL     1      -0.005   1.094  -0.205  0.00  0.00    +0.007 A 
ATOM     14  C   UNL     1       1.176   1.783   0.000  0.00  0.00    -0.041 A 
ATOM     15  C   UNL     1       1.153   3.147   0.221  0.00  0.00    +0.007 A 
ATOM     16  C   UNL     1      -0.050   3.826   0.237  0.00  0.00    +0.046 A 
BRANCH  11  17
ATOM     17  O   UNL     1      -2.422   3.802   0.046  0.00  0.00    -0.492 OA
BRANCH  17  19
ATOM     18  C   UNL     1      -4.829   3.942  -0.121  0.00  0.00    +0.048 C 
ATOM     19  C   UNL     1      -3.603   3.028  -0.174  0.00  0.00    +0.225 C 
ENDBRANCH  17  19
ENDBRANCH  11  17
ENDBRANCH   1  14
BRANCH   9  20
ATOM     20  N   UNL     1       5.266   0.617  -2.494  0.00  0.00    -0.358 N 
ATOM     21  H   UNL     1       4.747   0.841  -3.438  0.00  0.00    +0.142 HD
ATOM     22  H   UNL     1       6.297   0.233  -2.510  0.00  0.00    +0.142 HD
ENDBRANCH   9  20
BRANCH  10  23
ATOM     23  C   UNL     1       2.494   0.705  -2.436  0.00  0.00    +0.091 C 
ATOM     24  N   UNL     1       1.931   0.217  -3.293  0.00  0.00    -0.194 NA
ENDBRANCH  10  23
BRANCH  10  25
ATOM     25  C   UNL     1       3.258   2.792  -1.542  0.00  0.00    +0.091 C 
ATOM     26  N   UNL     1       3.284   3.916  -1.710  0.00  0.00    -0.194 NA
ENDBRANCH  10  25
BRANCH   8  27
ATOM     27  C   UNL     1       6.653   0.053  -0.212  0.00  0.00    +0.101 C 
ATOM     28  N   UNL     1       7.724  -0.323  -0.256  0.00  0.00    -0.191 NA
ENDBRANCH   8  27
BRANCH   4  29
ATOM     29  C   UNL     1       2.135   0.181   4.468  0.00  0.00    +0.120 C 
BRANCH  29  30
ATOM     30  C   UNL     1       2.336  -1.164   5.119  0.00  0.00    -0.033 A 
ATOM     31  C   UNL     1       1.504  -2.219   4.797  0.00  0.00    +0.005 A 
ATOM     32  C   UNL     1       1.692  -3.454   5.390  0.00  0.00    +0.000 A 
ATOM     33  C   UNL     1       2.706  -3.630   6.313  0.00  0.00    +0.000 A 
ATOM     34  C   UNL     1       3.535  -2.573   6.638  0.00  0.00    +0.000 A 
ATOM     35  C   UNL     1       3.350  -1.340   6.041  0.00  0.00    +0.005 A 
ENDBRANCH  29  30
ENDBRANCH   4  29
TORSDOF 9
