REMARK  Name = ZINC41584856
REMARK  9 active torsions:
REMARK  status: ('A' for Active; 'I' for Inactive)
REMARK    1  A    between atoms: C_1  and  C_2
REMARK    2  A    between atoms: C_2  and  C_3
REMARK    3  A    between atoms: C_6  and  C_9
REMARK    4  A    between atoms: C_14  and  C_35
REMARK    5  A    between atoms: C_16  and  O_34
REMARK    6  A    between atoms: C_17  and  C_20
REMARK    7  A    between atoms: C_20  and  N_21
REMARK    8  A    between atoms: N_24  and  C_27
REMARK    9  A    between atoms: C_27  and  C_28
REMARK                            x       y       z     vdW  Elec       q    Type
REMARK                         _______ _______ _______ _____ _____    ______ ____
ROOT
ATOM      1  C   UNL     1      -5.390  -1.994   0.043  0.00  0.00    +0.058 C 
ATOM      2  C   UNL     1      -6.070  -2.131  -1.122  0.00  0.00    +0.176 C 
ATOM      3  C   UNL     1      -7.483  -2.521  -1.263  0.00  0.00    +0.232 C 
ATOM      4  O   UNL     1      -8.276  -2.785  -0.377  0.00  0.00    -0.283 OA
ATOM      5  C   UNL     1      -7.722  -2.521  -2.718  0.00  0.00    +0.071 A 
ATOM      6  C   UNL     1      -8.844  -2.799  -3.500  0.00  0.00    -0.033 A 
ATOM      7  C   UNL     1      -8.762  -2.714  -4.861  0.00  0.00    +0.050 A 
ATOM      8  C   UNL     1      -7.563  -2.349  -5.469  0.00  0.00    +0.122 A 
ATOM      9  C   UNL     1      -6.442  -2.070  -4.704  0.00  0.00    +0.020 A 
ATOM     10  C   UNL     1      -6.508  -2.152  -3.319  0.00  0.00    +0.145 A 
ATOM     11  O   UNL     1      -5.577  -1.930  -2.366  0.00  0.00    -0.451 OA
ATOM     12  C   UNL     1     -10.142  -3.195  -2.845  0.00  0.00    +0.045 C 
ENDROOT
BRANCH   1  16
ATOM     13  C   UNL     1      -1.417  -0.511   0.014  0.00  0.00    -0.048 A 
ATOM     14  C   UNL     1      -2.064  -0.771  -1.182  0.00  0.00    +0.004 A 
ATOM     15  C   UNL     1      -3.355  -1.253  -1.182  0.00  0.00    +0.008 A 
ATOM     16  C   UNL     1      -4.012  -1.480   0.033  0.00  0.00    -0.021 A 
ATOM     17  C   UNL     1      -3.352  -1.216   1.238  0.00  0.00    +0.008 A 
ATOM     18  C   UNL     1      -2.058  -0.739   1.220  0.00  0.00    +0.004 A 
BRANCH  13  20
ATOM     19  C   UNL     1       0.977  -1.157   0.013  0.00  0.00    +0.009 C 
ATOM     20  C   UNL     1      -0.005   0.016   0.004  0.00  0.00    +0.032 C 
ENDBRANCH  13  20
ENDBRANCH   1  16
BRANCH   8  21
ATOM     21  O   UNL     1      -7.492  -2.267  -6.822  0.00  0.00    -0.506 OA
ATOM     22  H   UNL     1      -7.710  -1.394  -7.175  0.00  0.00    +0.292 HD
ENDBRANCH   8  21
BRANCH   9  23
ATOM     23  C   UNL     1      -5.151  -1.677  -5.375  0.00  0.00    -0.035 C 
BRANCH  23  24
ATOM     24  N   UNL     1      -5.106  -0.217  -5.532  0.00  0.00    +0.384 N 
ATOM     25  C   UNL     1      -6.169   0.210  -6.451  0.00  0.00    -0.063 C 
ATOM     26  C   UNL     1      -6.134   1.733  -6.600  0.00  0.00    +0.066 C 
ATOM     27  N   UNL     1      -4.821   2.141  -7.119  0.00  0.00    -0.302 NA
ATOM     28  C   UNL     1      -3.744   1.698  -6.222  0.00  0.00    +0.066 C 
ATOM     29  C   UNL     1      -3.799   0.176  -6.076  0.00  0.00    -0.063 C 
ATOM     30  H   UNL     1      -5.242   0.222  -4.634  0.00  0.00    -0.081 HD
BRANCH  27  31
ATOM     31  C   UNL     1      -4.766   3.594  -7.330  0.00  0.00    +0.119 C 
BRANCH  31  32
ATOM     32  C   UNL     1      -3.510   3.945  -8.085  0.00  0.00    -0.033 A 
ATOM     33  C   UNL     1      -2.346   4.229  -7.396  0.00  0.00    +0.005 A 
ATOM     34  C   UNL     1      -1.194   4.552  -8.089  0.00  0.00    +0.000 A 
ATOM     35  C   UNL     1      -1.206   4.589  -9.470  0.00  0.00    +0.000 A 
ATOM     36  C   UNL     1      -2.370   4.304 -10.160  0.00  0.00    +0.000 A 
ATOM     37  C   UNL     1      -3.521   3.978  -9.467  0.00  0.00    +0.005 A 
ENDBRANCH  31  32
ENDBRANCH  27  31
ENDBRANCH  23  24
ENDBRANCH   9  23
TORSDOF 7
