REMARK  Name = ZINC41302987
REMARK  10 active torsions:
REMARK  status: ('A' for Active; 'I' for Inactive)
REMARK    1  A    between atoms: C_1  and  C_2
REMARK    2  A    between atoms: C_5  and  N_9
REMARK    3  A    between atoms: C_6  and  O_8
REMARK    4  A    between atoms: C_10  and  C_12
REMARK    5  A    between atoms: C_21  and  O_22
REMARK    6  A    between atoms: O_22  and  C_23
REMARK    7  A    between atoms: C_23  and  C_24
REMARK    8  A    between atoms: N_26  and  C_27
REMARK    9  A    between atoms: C_27  and  C_28
REMARK   10  A    between atoms: C_27  and  C_29
REMARK                            x       y       z     vdW  Elec       q    Type
REMARK                         _______ _______ _______ _____ _____    ______ ____
ROOT
ATOM      1  C   UNL     1      -0.134  -6.313  -1.202  0.00  0.00    +0.079 A 
ATOM      2  C   UNL     1      -0.124  -7.006  -0.003  0.00  0.00    +0.025 A 
ATOM      3  C   UNL     1      -0.212  -8.405  -0.013  0.00  0.00    -0.017 A 
ATOM      4  C   UNL     1      -0.206  -9.142   1.186  0.00  0.00    +0.008 A 
ATOM      5  C   UNL     1      -0.293 -10.499   1.143  0.00  0.00    +0.001 A 
ATOM      6  C   UNL     1      -0.390 -11.174  -0.072  0.00  0.00    +0.001 A 
ATOM      7  C   UNL     1      -0.399 -10.496  -1.252  0.00  0.00    +0.008 A 
ATOM      8  C   UNL     1      -0.311  -9.093  -1.251  0.00  0.00    -0.014 A 
ATOM      9  C   UNL     1      -0.319  -8.366  -2.453  0.00  0.00    +0.055 A 
ATOM     10  C   UNL     1      -0.238  -7.005  -2.427  0.00  0.00    +0.134 A 
ENDROOT
BRANCH   1  12
ATOM     11  N   UNL     1       0.057  -4.174  -0.031  0.00  0.00    -0.278 N 
ATOM     12  C   UNL     1      -0.042  -4.840  -1.198  0.00  0.00    +0.252 C 
ATOM     13  O   UNL     1      -0.055  -4.227  -2.249  0.00  0.00    -0.270 OA
ATOM     14  H   UNL     1       0.149  -4.665   0.801  0.00  0.00    +0.155 HD
BRANCH  11  19
ATOM     15  C   UNL     1      -0.067   1.502   0.017  0.00  0.00    +0.044 C 
ATOM     16  C   UNL     1      -0.032  -0.005   0.006  0.00  0.00    -0.047 A 
ATOM     17  C   UNL     1      -0.622  -0.701  -1.033  0.00  0.00    +0.005 A 
ATOM     18  C   UNL     1      -0.594  -2.082  -1.048  0.00  0.00    +0.027 A 
ATOM     19  C   UNL     1       0.028  -2.774  -0.018  0.00  0.00    +0.076 A 
ATOM     20  C   UNL     1       0.622  -2.072   1.028  0.00  0.00    +0.138 A 
ATOM     21  C   UNL     1       0.594  -0.687   1.032  0.00  0.00    +0.050 A 
BRANCH  20  22
ATOM     22  O   UNL     1       1.233  -2.745   2.040  0.00  0.00    -0.505 OA
ATOM     23  H   UNL     1       2.171  -2.919   1.886  0.00  0.00    +0.292 HD
ENDBRANCH  20  22
ENDBRANCH  11  19
ENDBRANCH   1  12
BRANCH  10  24
ATOM     24  O   UNL     1      -0.251  -6.310  -3.593  0.00  0.00    -0.482 OA
BRANCH  24  25
ATOM     25  C   UNL     1      -0.358  -7.068  -4.800  0.00  0.00    +0.324 C 
BRANCH  25  26
ATOM     26  C   UNL     1      -0.357  -6.133  -5.982  0.00  0.00    +0.251 C 
ATOM     27  O   UNL     1      -0.274  -4.936  -5.808  0.00  0.00    -0.272 OA
ATOM     28  N   UNL     1      -0.450  -6.628  -7.232  0.00  0.00    -0.310 N 
ATOM     29  H   UNL     1      -0.517  -7.585  -7.371  0.00  0.00    +0.149 HD
BRANCH  28  30
ATOM     30  C   UNL     1      -0.449  -5.719  -8.381  0.00  0.00    +0.067 C 
ATOM     31  C   UNL     1       0.994  -5.394  -8.774  0.00  0.00    +0.027 C 
ATOM     32  C   UNL     1      -1.161  -6.387  -9.560  0.00  0.00    +0.027 C 
ENDBRANCH  28  30
ENDBRANCH  25  26
ENDBRANCH  24  25
ENDBRANCH  10  24
TORSDOF 7
