REMARK  Name = ZINC06786078
REMARK  6 active torsions:
REMARK  status: ('A' for Active; 'I' for Inactive)
REMARK    1  A    between atoms: C_10  and  C_11
REMARK    2  A    between atoms: C_11  and  C_12
REMARK    3  A    between atoms: N_14  and  C_15
REMARK    4  A    between atoms: C_15  and  C_16
REMARK    5  A    between atoms: N_18  and  C_19
REMARK    6  A    between atoms: C_19  and  C_20
REMARK                            x       y       z     vdW  Elec       q    Type
REMARK                         _______ _______ _______ _____ _____    ______ ____
ROOT
ATOM      1  C   UNL     1      -0.014   1.209   0.009  0.00  0.00    +0.218 C 
ATOM      2  O   UNL     1       0.002  -0.004   0.002  0.00  0.00    -0.275 OA
ATOM      3  N   UNL     1       1.143   1.898   0.001  0.00  0.00    -0.306 N 
ATOM      4  H   UNL     1       1.130   2.868   0.007  0.00  0.00    +0.149 HD
ENDROOT
BRANCH   1   5
ATOM      5  C   UNL     1      -1.330   1.944   0.019  0.00  0.00    +0.131 C 
BRANCH   5  15
ATOM      6  C   UNL     1      -3.849  -0.722   3.589  0.00  0.00    +0.001 A 
ATOM      7  C   UNL     1      -2.801   0.196   3.608  0.00  0.00    +0.001 A 
ATOM      8  C   UNL     1      -2.334   0.751   2.457  0.00  0.00    +0.009 A 
ATOM      9  C   UNL     1      -2.913   0.393   1.228  0.00  0.00    -0.014 A 
ATOM     10  C   UNL     1      -3.982  -0.537   1.208  0.00  0.00    -0.018 A 
ATOM     11  C   UNL     1      -4.437  -1.090   2.418  0.00  0.00    +0.008 A 
ATOM     12  C   UNL     1      -4.563  -0.893  -0.021  0.00  0.00    +0.008 A 
ATOM     13  C   UNL     1      -4.097  -0.337  -1.173  0.00  0.00    +0.001 A 
ATOM     14  C   UNL     1      -3.049   0.581  -1.153  0.00  0.00    +0.005 A 
ATOM     15  C   UNL     1      -2.462   0.950   0.019  0.00  0.00    -0.031 A 
ENDBRANCH   5  15
ENDBRANCH   1   5
BRANCH   3  16
ATOM     16  C   UNL     1       2.422   1.183  -0.015  0.00  0.00    +0.200 C 
BRANCH  16  17
ATOM     17  C   UNL     1       3.554   2.178  -0.020  0.00  0.00    +0.230 C 
ATOM     18  O   UNL     1       3.316   3.367  -0.011  0.00  0.00    -0.274 OA
ATOM     19  N   UNL     1       4.831   1.746  -0.035  0.00  0.00    -0.310 N 
ATOM     20  H   UNL     1       5.021   0.795  -0.042  0.00  0.00    +0.149 HD
BRANCH  19  21
ATOM     21  C   UNL     1       5.931   2.713  -0.040  0.00  0.00    +0.141 C 
BRANCH  21  22
ATOM     22  C   UNL     1       7.246   1.977  -0.057  0.00  0.00    -0.012 A 
ATOM     23  C   UNL     1       7.965   1.820   1.114  0.00  0.00    +0.006 A 
ATOM     24  C   UNL     1       9.169   1.142   1.099  0.00  0.00    +0.000 A 
ATOM     25  C   UNL     1       9.660   0.628  -0.087  0.00  0.00    +0.001 A 
ATOM     26  C   UNL     1       8.945   0.790  -1.258  0.00  0.00    +0.020 A 
ATOM     27  C   UNL     1       7.737   1.464  -1.244  0.00  0.00    +0.046 A 
ATOM     28 CL   UNL     1       6.838   1.668  -2.715  0.00  0.00    -0.083 Cl
ENDBRANCH  21  22
ENDBRANCH  19  21
ENDBRANCH  16  17
ENDBRANCH   3  16
TORSDOF 6
