REMARK  Name = ZINC43619885
REMARK  10 active torsions:
REMARK  status: ('A' for Active; 'I' for Inactive)
REMARK    1  A    between atoms: C_1  and  C_2
REMARK    2  A    between atoms: C_2  and  C_3
REMARK    3  A    between atoms: C_2  and  C_4
REMARK    4  A    between atoms: C_4  and  C_5
REMARK    5  A    between atoms: C_5  and  C_6
REMARK    6  A    between atoms: C_6  and  C_13
REMARK    7  A    between atoms: N_16  and  C_19
REMARK    8  A    between atoms: C_19  and  C_20
REMARK    9  A    between atoms: C_28  and  C_29
REMARK   10  A    between atoms: C_28  and  C_30
REMARK                            x       y       z     vdW  Elec       q    Type
REMARK                         _______ _______ _______ _____ _____    ______ ____
ROOT
ATOM      1  C   UNL     1      -4.274  -0.333  -2.594  0.00  0.00    +0.018 C 
ATOM      2  C   UNL     1      -4.205   1.175  -2.849  0.00  0.00    -0.013 C 
ATOM      3  C   UNL     1      -4.978   1.506  -4.128  0.00  0.00    -0.078 C 
ATOM      4  N   UNL     1      -6.380   1.097  -3.977  0.00  0.00    +0.382 N 
ATOM      5  C   UNL     1      -6.457  -0.359  -3.803  0.00  0.00    -0.078 C 
ATOM      6  C   UNL     1      -5.742  -0.761  -2.512  0.00  0.00    -0.013 C 
ATOM      7  H   UNL     1      -6.777   1.552  -3.169  0.00  0.00    -0.081 HD
ENDROOT
BRANCH   1   8
ATOM      8  C   UNL     1      -3.571  -0.661  -1.275  0.00  0.00    +0.115 C 
ATOM      9  C   UNL     1      -4.341  -0.090  -0.100  0.00  0.00    +0.244 C 
ATOM     10  O   UNL     1      -4.584   1.077   0.118  0.00  0.00    -0.273 OA
ATOM     11  N   UNL     1      -4.699  -1.151   0.650  0.00  0.00    -0.238 N 
ATOM     12  C   UNL     1      -4.266  -2.300   0.119  0.00  0.00    +0.307 C 
ATOM     13  O   UNL     1      -4.466  -3.392   0.615  0.00  0.00    -0.252 OA
ATOM     14  N   UNL     1      -3.586  -2.113  -1.026  0.00  0.00    -0.285 N 
ATOM     15  H   UNL     1      -5.206  -1.089   1.474  0.00  0.00    +0.159 HD
ATOM     16  H   UNL     1      -3.183  -2.800  -1.581  0.00  0.00    +0.151 HD
BRANCH   8  17
ATOM     17  C   UNL     1      -2.135  -0.131  -1.286  0.00  0.00    +0.036 C 
BRANCH  17  18
ATOM     18  C   UNL     1      -1.433  -0.534   0.013  0.00  0.00    +0.005 C 
BRANCH  18  20
ATOM     19  C   UNL     1      -0.019   1.526   0.010  0.00  0.00    +0.007 C 
ATOM     20  C   UNL     1       0.002  -0.004   0.002  0.00  0.00    -0.017 C 
ATOM     21  C   UNL     1       0.742  -0.511   1.242  0.00  0.00    +0.007 C 
ENDBRANCH  18  20
ENDBRANCH  17  18
ENDBRANCH   8  17
ENDBRANCH   1   8
BRANCH   4  22
ATOM     22  C   UNL     1      -7.134   1.486  -5.175  0.00  0.00    -0.047 C 
BRANCH  22  23
ATOM     23  C   UNL     1      -8.595   1.178  -4.971  0.00  0.00    -0.086 C 
ATOM     24  C   UNL     1      -9.432   2.095  -4.544  0.00  0.00    -0.029 C 
ATOM     25  C   UNL     1     -10.890   1.747  -4.361  0.00  0.00    +0.031 C 
ATOM     26  C   UNL     1     -11.109   0.259  -4.664  0.00  0.00    -0.000 C 
ATOM     27  C   UNL     1     -10.040  -0.644  -4.023  0.00  0.00    +0.012 C 
ATOM     28  C   UNL     1      -9.157  -0.203  -5.258  0.00  0.00    +0.019 C 
ATOM     29  C   UNL     1     -10.487  -0.122  -6.023  0.00  0.00    -0.025 C 
ATOM     30  C   UNL     1     -10.970  -1.466  -6.571  0.00  0.00    +0.012 C 
ATOM     31  C   UNL     1     -10.532   1.001  -7.061  0.00  0.00    +0.012 C 
ENDBRANCH  22  23
ENDBRANCH   4  22
TORSDOF 6
