REMARK  Name = ZINC00919140
REMARK  7 active torsions:
REMARK  status: ('A' for Active; 'I' for Inactive)
REMARK    1  A    between atoms: C_1  and  C_2
REMARK    2  A    between atoms: C_5  and  S_9
REMARK    3  A    between atoms: S_9  and  N_12
REMARK    4  A    between atoms: N_12  and  C_13
REMARK    5  A    between atoms: N_12  and  C_20
REMARK    6  A    between atoms: C_13  and  C_14
REMARK    7  A    between atoms: C_20  and  C_21
REMARK                            x       y       z     vdW  Elec       q    Type
REMARK                         _______ _______ _______ _____ _____    ______ ____
ROOT
ATOM      1  N   UNL     1       2.562   4.371  -1.702  0.00  0.00    -0.168 NA
ENDROOT
BRANCH   1   2
ATOM      2  S   UNL     1       2.051   5.899  -2.086  0.00  0.00    +0.061 S 
ATOM      3  O   UNL     1       1.531   5.834  -3.407  0.00  0.00    -0.153 OA
ATOM      4  O   UNL     1       1.278   6.357  -0.985  0.00  0.00    -0.153 OA
BRANCH   2   9
ATOM      5  C   UNL     1       6.951   9.412  -2.330  0.00  0.00    +0.045 C 
ATOM      6  C   UNL     1       5.727   8.535  -2.270  0.00  0.00    -0.032 A 
ATOM      7  C   UNL     1       4.990   8.456  -1.103  0.00  0.00    +0.007 A 
ATOM      8  C   UNL     1       3.865   7.655  -1.049  0.00  0.00    +0.029 A 
ATOM      9  C   UNL     1       3.482   6.925  -2.158  0.00  0.00    +0.107 A 
ATOM     10  C   UNL     1       4.218   7.002  -3.325  0.00  0.00    +0.048 A 
ATOM     11  C   UNL     1       5.341   7.808  -3.382  0.00  0.00    +0.046 A 
ATOM     12 CL   UNL     1       6.267   7.906  -4.847  0.00  0.00    -0.083 Cl
ENDBRANCH   2   9
ENDBRANCH   1   2
BRANCH   1  13
ATOM     13  C   UNL     1       2.546   3.922  -0.308  0.00  0.00    +0.146 C 
BRANCH  13  14
ATOM     14  C   UNL     1       3.904   4.144   0.306  0.00  0.00    -0.014 A 
ATOM     15  C   UNL     1       4.170   5.300   1.025  0.00  0.00    +0.008 A 
ATOM     16  C   UNL     1       5.433   5.461   1.572  0.00  0.00    +0.020 A 
ATOM     17  C   UNL     1       6.381   4.474   1.380  0.00  0.00    +0.111 A 
ATOM     18  N   UNL     1       6.092   3.385   0.696  0.00  0.00    -0.263 NA
ATOM     19  C   UNL     1       4.901   3.198   0.161  0.00  0.00    +0.115 A 
ENDBRANCH  13  14
ENDBRANCH   1  13
BRANCH   1  20
ATOM     20  C   UNL     1       3.030   3.469  -2.757  0.00  0.00    +0.150 C 
BRANCH  20  21
ATOM     21  C   UNL     1       1.890   2.594  -3.212  0.00  0.00    +0.033 A 
ATOM     22  C   UNL     1       1.151   2.954  -4.293  0.00  0.00    +0.020 A 
ATOM     23  C   UNL     1       0.052   2.084  -4.710  0.00  0.00    +0.003 A 
ATOM     24  C   UNL     1      -0.742   2.404  -5.818  0.00  0.00    +0.059 A 
ATOM     25  C   UNL     1      -1.770   1.565  -6.187  0.00  0.00    +0.167 A 
ATOM     26  C   UNL     1      -2.021   0.395  -5.459  0.00  0.00    +0.168 A 
ATOM     27  C   UNL     1      -1.242   0.071  -4.364  0.00  0.00    +0.075 A 
ATOM     28  C   UNL     1      -0.201   0.907  -3.979  0.00  0.00    +0.053 A 
ATOM     29  N   UNL     1       0.588   0.599  -2.889  0.00  0.00    -0.322 N 
ATOM     30  H   UNL     1       0.404  -0.235  -2.368  0.00  0.00    +0.169 HD
ATOM     31  C   UNL     1       1.599   1.403  -2.518  0.00  0.00    +0.254 A 
ATOM     32  O   UNL     1       2.279   1.096  -1.553  0.00  0.00    -0.268 OA
ATOM     33  O   UNL     1      -3.080  -0.250  -6.029  0.00  0.00    -0.453 OA
ATOM     34  C   UNL     1      -3.213   0.315  -7.346  0.00  0.00    +0.466 C 
ATOM     35  O   UNL     1      -2.674   1.643  -7.208  0.00  0.00    -0.453 OA
ENDBRANCH  20  21
ENDBRANCH   1  20
TORSDOF 6
