REMARK  Name = ZINC15866366
REMARK  4 active torsions:
REMARK  status: ('A' for Active; 'I' for Inactive)
REMARK    1  A    between atoms: C_1  and  C_2
REMARK    2  A    between atoms: C_5  and  C_9
REMARK    3  A    between atoms: C_7  and  C_8
REMARK    4  A    between atoms: C_12  and  C_20
REMARK                            x       y       z     vdW  Elec       q    Type
REMARK                         _______ _______ _______ _____ _____    ______ ____
ROOT
ATOM      1  C   UNL     1      -4.788   3.985   1.184  0.00  0.00    +0.106 C 
ATOM      2  C   UNL     1      -3.349   3.467   1.297  0.00  0.00    +0.059 C 
ATOM      3  C   UNL     1      -2.553   3.868   0.049  0.00  0.00    +0.144 C 
ATOM      4  N   UNL     1      -3.328   3.513  -1.137  0.00  0.00    -0.206 N 
ATOM      5  C   UNL     1      -4.663   3.271  -1.137  0.00  0.00    +0.236 A 
ATOM      6  N   UNL     1      -5.006   2.984  -2.361  0.00  0.00    -0.092 NA
ATOM      7  N   UNL     1      -3.976   3.030  -3.135  0.00  0.00    -0.021 NA
ATOM      8  N   UNL     1      -2.919   3.346  -2.460  0.00  0.00    -0.042 NA
ATOM      9  N   UNL     1      -5.429   3.346   0.018  0.00  0.00    -0.305 N 
ATOM     10  H   UNL     1      -6.335   3.000   0.057  0.00  0.00    +0.150 HD
ENDROOT
BRANCH   1  15
ATOM     11  C   UNL     1      -7.716   2.645   5.982  0.00  0.00    +0.044 C 
ATOM     12  C   UNL     1      -6.952   2.994   4.731  0.00  0.00    -0.048 A 
ATOM     13  C   UNL     1      -6.749   2.036   3.755  0.00  0.00    +0.004 A 
ATOM     14  C   UNL     1      -6.052   2.358   2.606  0.00  0.00    +0.006 A 
ATOM     15  C   UNL     1      -5.551   3.635   2.436  0.00  0.00    -0.027 A 
ATOM     16  C   UNL     1      -5.755   4.593   3.411  0.00  0.00    +0.009 A 
ATOM     17  C   UNL     1      -6.456   4.272   4.559  0.00  0.00    -0.047 A 
ATOM     18  C   UNL     1      -6.678   5.317   5.622  0.00  0.00    +0.044 C 
ENDBRANCH   1  15
BRANCH   3  19
ATOM     19  C   UNL     1      -1.238   3.133   0.031  0.00  0.00    -0.023 A 
ATOM     20  C   UNL     1      -1.218   1.751   0.017  0.00  0.00    +0.008 A 
ATOM     21  C   UNL     1      -0.013   1.076   0.008  0.00  0.00    +0.038 A 
ATOM     22  C   UNL     1       1.177   1.785   0.000  0.00  0.00    +0.123 A 
ATOM     23  C   UNL     1       1.157   3.169   0.008  0.00  0.00    +0.038 A 
ATOM     24  C   UNL     1      -0.051   3.842   0.023  0.00  0.00    +0.008 A 
ATOM     25  F   UNL     1       2.356   1.126  -0.015  0.00  0.00    -0.205 F 
ENDBRANCH   3  19
TORSDOF 2
