REMARK  Name = ZINC40947720
REMARK  6 active torsions:
REMARK  status: ('A' for Active; 'I' for Inactive)
REMARK    1  A    between atoms: C_4  and  C_7
REMARK    2  A    between atoms: C_10  and  S_12
REMARK    3  A    between atoms: S_12  and  C_13
REMARK    4  A    between atoms: C_13  and  C_14
REMARK    5  A    between atoms: N_16  and  N_17
REMARK    6  A    between atoms: C_18  and  C_19
REMARK                            x       y       z     vdW  Elec       q    Type
REMARK                         _______ _______ _______ _____ _____    ______ ____
ROOT
ATOM      1  C   UNL     1       9.775  -3.582  -0.127  0.00  0.00    +0.242 C 
ATOM      2  O   UNL     1       9.569  -4.777  -0.145  0.00  0.00    -0.273 OA
ATOM      3  N   UNL     1      11.040  -3.116  -0.124  0.00  0.00    -0.206 N 
ATOM      4  H   UNL     1      11.204  -2.160  -0.109  0.00  0.00    +0.177 HD
ENDROOT
BRANCH   3   5
ATOM      5  N   UNL     1      12.116  -4.013  -0.141  0.00  0.00    -0.188 NA
ATOM      6  C   UNL     1      13.335  -3.564  -0.137  0.00  0.00    +0.139 C 
BRANCH   6   7
ATOM      7  C   UNL     1      14.466  -4.505  -0.155  0.00  0.00    +0.002 A 
ATOM      8  C   UNL     1      15.772  -4.043  -0.264  0.00  0.00    +0.010 A 
ATOM      9  C   UNL     1      16.836  -4.934  -0.281  0.00  0.00    +0.001 A 
ATOM     10  C   UNL     1      16.649  -6.279  -0.192  0.00  0.00    +0.008 A 
ATOM     11  C   UNL     1      15.356  -6.817  -0.079  0.00  0.00    -0.017 A 
ATOM     12  C   UNL     1      14.239  -5.945  -0.052  0.00  0.00    -0.009 A 
ATOM     13  C   UNL     1      12.949  -6.477   0.065  0.00  0.00    +0.009 A 
ATOM     14  C   UNL     1      12.783  -7.826   0.159  0.00  0.00    +0.001 A 
ATOM     15  C   UNL     1      13.879  -8.686   0.139  0.00  0.00    +0.001 A 
ATOM     16  C   UNL     1      15.146  -8.204   0.013  0.00  0.00    +0.008 A 
ENDBRANCH   6   7
ENDBRANCH   3   5
BRANCH   1  17
ATOM     17  C   UNL     1       8.617  -2.618  -0.109  0.00  0.00    +0.173 C 
BRANCH  17  18
ATOM     18  S   UNL     1       7.058  -3.545  -0.119  0.00  0.00    -0.088 S 
BRANCH  18  22
ATOM     19  C   UNL     1       3.695  -0.684  -0.066  0.00  0.00    +0.133 A 
ATOM     20  N   UNL     1       4.934  -0.210  -0.062  0.00  0.00    -0.140 NA
ATOM     21  N   UNL     1       5.940  -0.971  -0.076  0.00  0.00    -0.134 NA
ATOM     22  C   UNL     1       5.817  -2.293  -0.096  0.00  0.00    +0.159 A 
ATOM     23  S   UNL     1       4.033  -2.442  -0.086  0.00  0.00    -0.039 S 
BRANCH  19  27
ATOM     24  C   UNL     1      -0.017   1.380  -0.023  0.00  0.00    +0.000 A 
ATOM     25  C   UNL     1       1.168   2.094  -0.022  0.00  0.00    +0.001 A 
ATOM     26  C   UNL     1       2.377   1.430  -0.035  0.00  0.00    +0.010 A 
ATOM     27  C   UNL     1       2.403   0.034  -0.051  0.00  0.00    +0.009 A 
ATOM     28  C   UNL     1       1.204  -0.680  -0.052  0.00  0.00    +0.010 A 
ATOM     29  C   UNL     1       0.002  -0.004  -0.038  0.00  0.00    +0.001 A 
ENDBRANCH  19  27
ENDBRANCH  18  22
ENDBRANCH  17  18
ENDBRANCH   1  17
TORSDOF 6
