REMARK  Name = ZINC27550337
REMARK  11 active torsions:
REMARK  status: ('A' for Active; 'I' for Inactive)
REMARK    1  A    between atoms: C_1  and  C_2
REMARK    2  A    between atoms: C_2  and  N_3
REMARK    3  A    between atoms: C_14  and  C_16
REMARK    4  A    between atoms: C_20  and  C_32
REMARK    5  A    between atoms: C_21  and  N_23
REMARK    6  A    between atoms: N_23  and  C_24
REMARK    7  A    between atoms: C_27  and  O_30
REMARK    8  A    between atoms: O_30  and  C_31
REMARK    9  A    between atoms: C_32  and  O_34
REMARK   10  A    between atoms: O_34  and  C_35
REMARK   11  A    between atoms: C_35  and  C_36
REMARK                            x       y       z     vdW  Elec       q    Type
REMARK                         _______ _______ _______ _____ _____    ______ ____
ROOT
ATOM      1  C   UNL     1      -0.752   9.024  -0.525  0.00  0.00    +0.027 C 
ATOM      2  C   UNL     1      -0.138  10.196  -0.224  0.00  0.00    +0.062 C 
ATOM      3  C   UNL     1      -0.741  11.456   0.242  0.00  0.00    +0.209 C 
ATOM      4  O   UNL     1      -1.942  11.579   0.419  0.00  0.00    -0.286 OA
ATOM      5  C   UNL     1       0.186  12.533   0.481  0.00  0.00    +0.134 C 
ATOM      6  C   UNL     1       1.542  12.290   0.241  0.00  0.00    +0.088 C 
ATOM      7  S   UNL     1       1.597  10.596  -0.305  0.00  0.00    -0.069 S 
ENDROOT
BRANCH   1  19
ATOM      8  N   UNL     1       1.989   4.706  -2.828  0.00  0.00    -0.340 N 
ATOM      9  C   UNL     1       1.150   3.649  -2.525  0.00  0.00    +0.050 A 
ATOM     10  C   UNL     1       1.224   2.286  -2.798  0.00  0.00    +0.026 A 
ATOM     11  C   UNL     1       0.225   1.441  -2.368  0.00  0.00    +0.002 A 
ATOM     12  C   UNL     1      -0.864   1.935  -1.666  0.00  0.00    +0.001 A 
ATOM     13  C   UNL     1      -0.952   3.281  -1.380  0.00  0.00    +0.010 A 
ATOM     14  C   UNL     1       0.051   4.147  -1.810  0.00  0.00    +0.008 A 
ATOM     15  C   UNL     1       0.260   5.601  -1.683  0.00  0.00    +0.008 A 
ATOM     16  C   UNL     1       1.474   5.887  -2.332  0.00  0.00    +0.050 A 
ATOM     17  C   UNL     1       1.939   7.201  -2.377  0.00  0.00    +0.027 A 
ATOM     18  C   UNL     1       1.224   8.206  -1.796  0.00  0.00    +0.010 A 
ATOM     19  C   UNL     1       0.010   7.934  -1.146  0.00  0.00    -0.023 A 
ATOM     20  C   UNL     1      -0.470   6.623  -1.091  0.00  0.00    +0.018 A 
BRANCH   8  22
ATOM     21  C   UNL     1       2.975   4.758  -5.065  0.00  0.00    +0.027 C 
ATOM     22  C   UNL     1       3.248   4.589  -3.569  0.00  0.00    +0.119 C 
ENDBRANCH   8  22
ENDBRANCH   1  19
BRANCH   6  23
ATOM     23  N   UNL     1       2.590  13.157   0.392  0.00  0.00    -0.308 N 
ATOM     24  H   UNL     1       2.400  14.210   0.645  0.00  0.00    +0.153 HD
BRANCH  23  25
ATOM     25  C   UNL     1       3.903  12.704   0.224  0.00  0.00    +0.032 A 
ATOM     26  C   UNL     1       4.273  11.454   0.703  0.00  0.00    +0.027 A 
ATOM     27  C   UNL     1       5.568  11.005   0.533  0.00  0.00    +0.047 A 
ATOM     28  C   UNL     1       6.502  11.807  -0.107  0.00  0.00    +0.120 A 
ATOM     29  C   UNL     1       6.135  13.058  -0.581  0.00  0.00    +0.047 A 
ATOM     30  C   UNL     1       4.839  13.506  -0.416  0.00  0.00    +0.027 A 
BRANCH  28  31
ATOM     31  O   UNL     1       7.778  11.367  -0.269  0.00  0.00    -0.495 OA
ATOM     32  C   UNL     1       8.087  10.069   0.243  0.00  0.00    +0.277 C 
ENDBRANCH  28  31
ENDBRANCH  23  25
ENDBRANCH   6  23
BRANCH   5  33
ATOM     33  C   UNL     1      -0.263  13.799   0.937  0.00  0.00    +0.345 C 
ATOM     34  O   UNL     1       0.538  14.696   1.127  0.00  0.00    -0.245 OA
BRANCH  33  35
ATOM     35  O   UNL     1      -1.576  14.009   1.161  0.00  0.00    -0.461 OA
BRANCH  35  36
ATOM     36  C   UNL     1      -1.957  15.307   1.620  0.00  0.00    +0.229 C 
ATOM     37  C   UNL     1      -3.474  15.354   1.817  0.00  0.00    +0.048 C 
ENDBRANCH  35  36
ENDBRANCH  33  35
ENDBRANCH   5  33
TORSDOF 8
