REMARK  Name = ZINC61975944
REMARK  9 active torsions:
REMARK  status: ('A' for Active; 'I' for Inactive)
REMARK    1  A    between atoms: C_1  and  C_2
REMARK    2  A    between atoms: C_2  and  C_3
REMARK    3  A    between atoms: C_2  and  C_11
REMARK    4  A    between atoms: C_2  and  O_26
REMARK    5  A    between atoms: C_3  and  C_4
REMARK    6  A    between atoms: C_4  and  C_5
REMARK    7  A    between atoms: C_11  and  N_12
REMARK    8  A    between atoms: N_12  and  S_13
REMARK    9  A    between atoms: S_13  and  C_16
REMARK                            x       y       z     vdW  Elec       q    Type
REMARK                         _______ _______ _______ _____ _____    ______ ____
ROOT
ATOM      1  N   UNL     1       0.081   0.085  -2.441  0.00  0.00    -0.187 NA
ATOM      2  H   UNL     1      -0.792   0.499  -2.367  0.00  0.00    +0.148 HD
ENDROOT
BRANCH   1   3
ATOM      3  S   UNL     1       0.853   0.035  -3.905  0.00  0.00    +0.058 S 
ATOM      4  O   UNL     1      -0.019   0.647  -4.845  0.00  0.00    -0.153 OA
ATOM      5  O   UNL     1       2.178   0.497  -3.682  0.00  0.00    -0.153 OA
BRANCH   3   6
ATOM      6  C   UNL     1       0.983  -1.660  -4.368  0.00  0.00    +0.106 A 
ATOM      7  C   UNL     1       2.087  -2.401  -3.987  0.00  0.00    +0.029 A 
ATOM      8  C   UNL     1       2.183  -3.727  -4.356  0.00  0.00    +0.006 A 
ATOM      9  C   UNL     1       1.178  -4.325  -5.107  0.00  0.00    -0.044 A 
ATOM     10  C   UNL     1       0.077  -3.588  -5.482  0.00  0.00    -0.042 A 
ATOM     11  C   UNL     1      -0.018  -2.254  -5.107  0.00  0.00    +0.032 A 
ATOM     12  C   UNL     1      -1.056  -4.176  -6.282  0.00  0.00    +0.035 C 
ATOM     13  C   UNL     1      -0.620  -5.473  -6.960  0.00  0.00    +0.005 C 
ATOM     14  C   UNL     1       0.015  -6.382  -5.901  0.00  0.00    +0.005 C 
ATOM     15  C   UNL     1       1.351  -5.773  -5.481  0.00  0.00    +0.035 C 
ENDBRANCH   3   6
ENDBRANCH   1   3
BRANCH   1  16
ATOM     16  C   UNL     1       0.718  -0.497  -1.257  0.00  0.00    +0.140 C 
BRANCH  16  18
ATOM     17  C   UNL     1      -0.019   1.526   0.010  0.00  0.00    +0.042 C 
ATOM     18  C   UNL     1       0.002  -0.004   0.002  0.00  0.00    +0.078 C 
BRANCH  18  19
ATOM     19  O   UNL     1      -1.339  -0.499   0.012  0.00  0.00    -0.388 OA
ATOM     20  H   UNL     1      -1.402  -1.464   0.008  0.00  0.00    +0.210 HD
ENDBRANCH  18  19
BRANCH  18  21
ATOM     21  C   UNL     1       0.742  -0.511   1.242  0.00  0.00    +0.040 C 
BRANCH  21  22
ATOM     22  C   UNL     1       0.026  -0.018   2.500  0.00  0.00    +0.038 C 
BRANCH  22  23
ATOM     23  C   UNL     1       0.755  -0.517   3.721  0.00  0.00    -0.047 A 
ATOM     24  C   UNL     1       0.415  -1.735   4.279  0.00  0.00    +0.003 A 
ATOM     25  C   UNL     1       1.084  -2.193   5.399  0.00  0.00    +0.000 A 
ATOM     26  C   UNL     1       2.092  -1.433   5.961  0.00  0.00    +0.000 A 
ATOM     27  C   UNL     1       2.433  -0.215   5.402  0.00  0.00    +0.000 A 
ATOM     28  C   UNL     1       1.767   0.241   4.280  0.00  0.00    +0.003 A 
ENDBRANCH  22  23
ENDBRANCH  21  22
ENDBRANCH  18  21
ENDBRANCH  16  18
ENDBRANCH   1  16
TORSDOF 8
