REMARK  Name = ZINC00846331
REMARK  5 active torsions:
REMARK  status: ('A' for Active; 'I' for Inactive)
REMARK    1  A    between atoms: C_3  and  C_10
REMARK    2  A    between atoms: C_5  and  N_7
REMARK    3  A    between atoms: C_17  and  N_30
REMARK    4  A    between atoms: C_18  and  C_28
REMARK    5  A    between atoms: C_19  and  C_21
REMARK                            x       y       z     vdW  Elec       q    Type
REMARK                         _______ _______ _______ _____ _____    ______ ____
ROOT
ATOM      1  C   UNL     1       3.660   2.164  -0.022  0.00  0.00    +0.100 A 
ATOM      2  C   UNL     1       3.888   3.386  -0.662  0.00  0.00    +0.054 A 
ATOM      3  C   UNL     1       5.183   3.749  -0.431  0.00  0.00    +0.223 A 
ATOM      4  N   UNL     1       5.750   2.787   0.326  0.00  0.00    -0.246 N 
ATOM      5  H   UNL     1       6.667   2.778   0.644  0.00  0.00    +0.192 HD
ATOM      6  N   UNL     1       4.779   1.806   0.578  0.00  0.00    -0.171 NA
ATOM      7  O   UNL     1       5.720   4.896  -0.917  0.00  0.00    -0.423 OA
ATOM      8  C   UNL     1       4.873   5.821  -1.413  0.00  0.00    +0.200 C 
ATOM      9  C   UNL     1       3.573   5.578  -1.693  0.00  0.00    +0.098 C 
ATOM     10  C   UNL     1       2.940   4.225  -1.480  0.00  0.00    +0.102 C 
ENDROOT
BRANCH  10  11
ATOM     11  C   UNL     1       2.694   3.563  -2.811  0.00  0.00    -0.034 A 
ATOM     12  C   UNL     1       3.752   3.320  -3.667  0.00  0.00    +0.007 A 
ATOM     13  C   UNL     1       3.528   2.712  -4.888  0.00  0.00    +0.038 A 
ATOM     14  C   UNL     1       2.243   2.347  -5.253  0.00  0.00    +0.123 A 
ATOM     15  C   UNL     1       1.185   2.590  -4.394  0.00  0.00    +0.038 A 
ATOM     16  C   UNL     1       1.412   3.194  -3.172  0.00  0.00    +0.007 A 
ATOM     17  F   UNL     1       2.022   1.753  -6.446  0.00  0.00    -0.205 F 
ENDBRANCH  10  11
BRANCH   1  20
ATOM     18  C   UNL     1      -0.017   1.379   0.010  0.00  0.00    +0.003 A 
ATOM     19  C   UNL     1       1.168   2.088   0.002  0.00  0.00    +0.010 A 
ATOM     20  C   UNL     1       2.384   1.408  -0.013  0.00  0.00    +0.005 A 
ATOM     21  C   UNL     1       2.397   0.014  -0.021  0.00  0.00    +0.042 A 
ATOM     22  C   UNL     1       1.206  -0.684  -0.013  0.00  0.00    +0.127 A 
ATOM     23  C   UNL     1       0.002  -0.004   0.002  0.00  0.00    +0.033 A 
BRANCH  22  24
ATOM     24  N   UNL     1       1.219  -2.165  -0.022  0.00  0.00    +0.056 N 
ATOM     25  O   UNL     1       2.271  -2.760  -0.035  0.00  0.00    -0.126 OA
ATOM     26  O   UNL     1       0.177  -2.778  -0.015  0.00  0.00    -0.126 OA
ENDBRANCH  22  24
ENDBRANCH   1  20
BRANCH   8  27
ATOM     27  N   UNL     1       5.359   7.084  -1.645  0.00  0.00    -0.328 N 
ATOM     28  H   UNL     1       6.287   7.290  -1.454  0.00  0.00    +0.145 HD
ATOM     29  H   UNL     1       4.773   7.771  -2.001  0.00  0.00    +0.145 HD
ENDBRANCH   8  27
BRANCH   9  30
ATOM     30  C   UNL     1       2.768   6.642  -2.211  0.00  0.00    +0.101 C 
ATOM     31  N   UNL     1       2.129   7.487  -2.622  0.00  0.00    -0.191 NA
ENDBRANCH   9  30
TORSDOF 5
