REMARK  Name = ZINC58847751
REMARK  6 active torsions:
REMARK  status: ('A' for Active; 'I' for Inactive)
REMARK    1  A    between atoms: C_1  and  C_2
REMARK    2  A    between atoms: C_5  and  C_36
REMARK    3  A    between atoms: C_6  and  C_8
REMARK    4  A    between atoms: C_19  and  S_24
REMARK    5  A    between atoms: S_24  and  N_27
REMARK    6  A    between atoms: N_27  and  C_28
REMARK                            x       y       z     vdW  Elec       q    Type
REMARK                         _______ _______ _______ _____ _____    ______ ____
ROOT
ATOM      1  C   UNL     1      -0.041  -2.306   2.514  0.00  0.00    +0.105 C 
ATOM      2  C   UNL     1      -1.418  -2.847   2.754  0.00  0.00    +0.029 C 
ATOM      3  C   UNL     1      -2.515  -1.792   2.502  0.00  0.00    +0.033 C 
ATOM      4  C   UNL     1      -3.647  -2.224   3.411  0.00  0.00    -0.030 C 
ATOM      5  C   UNL     1      -3.219  -3.049   4.330  0.00  0.00    -0.023 C 
ATOM      6  C   UNL     1      -1.733  -3.265   4.189  0.00  0.00    +0.049 C 
ATOM      7  C   UNL     1      -1.040  -2.415   5.217  0.00  0.00    -0.018 A 
ATOM      8  C   UNL     1      -1.473  -2.490   6.533  0.00  0.00    +0.034 A 
ATOM      9  C   UNL     1      -0.876  -1.722   7.511  0.00  0.00    +0.109 A 
ATOM     10  C   UNL     1       0.162  -0.867   7.185  0.00  0.00    +0.030 A 
ATOM     11  C   UNL     1       0.602  -0.788   5.880  0.00  0.00    +0.025 A 
ATOM     12  C   UNL     1       0.004  -1.568   4.893  0.00  0.00    +0.031 A 
ATOM     13  N   UNL     1       0.490  -1.511   3.601  0.00  0.00    -0.336 N 
ATOM     14  H   UNL     1       1.207  -0.885   3.412  0.00  0.00    +0.147 HD
ENDROOT
BRANCH   1  20
ATOM     15  C   UNL     1      -0.146   2.210   0.358  0.00  0.00    +0.044 C 
ATOM     16  C   UNL     1      -0.125   0.708   0.240  0.00  0.00    -0.050 A 
ATOM     17  C   UNL     1      -0.137   0.112  -1.007  0.00  0.00    +0.003 A 
ATOM     18  C   UNL     1      -0.117  -1.266  -1.115  0.00  0.00    +0.004 A 
ATOM     19  C   UNL     1      -0.086  -2.049   0.024  0.00  0.00    -0.045 A 
ATOM     20  C   UNL     1      -0.074  -1.453   1.271  0.00  0.00    -0.024 A 
ATOM     21  C   UNL     1      -0.089  -0.075   1.379  0.00  0.00    +0.009 A 
ATOM     22  C   UNL     1      -0.066  -3.551  -0.093  0.00  0.00    +0.044 C 
ENDBRANCH   1  20
BRANCH   9  23
ATOM     23  S   UNL     1      -1.436  -1.829   9.178  0.00  0.00    +0.072 S 
ATOM     24  O   UNL     1      -1.078  -0.606   9.806  0.00  0.00    -0.150 OA
ATOM     25  O   UNL     1      -2.778  -2.294   9.126  0.00  0.00    -0.150 OA
BRANCH  23  26
ATOM     26  N   UNL     1      -0.551  -3.017   9.917  0.00  0.00    -0.215 N 
ATOM     27  H   UNL     1      -0.997  -3.796  10.286  0.00  0.00    +0.174 HD
BRANCH  26  28
ATOM     28  C   UNL     1       0.838  -2.899  10.008  0.00  0.00    +0.068 A 
ATOM     29  C   UNL     1       1.419  -1.653  10.200  0.00  0.00    +0.046 A 
ATOM     30  C   UNL     1       2.794  -1.540  10.290  0.00  0.00    +0.043 A 
ATOM     31  C   UNL     1       3.591  -2.667  10.189  0.00  0.00    +0.021 A 
ATOM     32  C   UNL     1       3.015  -3.909   9.998  0.00  0.00    +0.023 A 
ATOM     33  C   UNL     1       1.641  -4.030   9.914  0.00  0.00    +0.063 A 
ATOM     34 CL   UNL     1       0.918  -5.592   9.682  0.00  0.00    -0.082 Cl
ATOM     35 CL   UNL     1       3.522   0.018  10.528  0.00  0.00    -0.083 Cl
ENDBRANCH  26  28
ENDBRANCH  23  26
ENDBRANCH   9  23
TORSDOF 4
