REMARK  Name = ZINC14831976
REMARK  13 active torsions:
REMARK  status: ('A' for Active; 'I' for Inactive)
REMARK    1  A    between atoms: C_1  and  C_2
REMARK    2  A    between atoms: C_2  and  C_3
REMARK    3  A    between atoms: C_3  and  C_5
REMARK    4  A    between atoms: C_3  and  C_6
REMARK    5  A    between atoms: C_9  and  O_13
REMARK    6  A    between atoms: O_13  and  C_14
REMARK    7  A    between atoms: C_14  and  C_15
REMARK    8  A    between atoms: N_17  and  C_18
REMARK    9  A    between atoms: C_23  and  C_24
REMARK   10  A    between atoms: N_26  and  C_27
REMARK   11  A    between atoms: C_27  and  C_28
REMARK   12  A    between atoms: C_27  and  C_29
REMARK   13  A    between atoms: C_27  and  C_30
REMARK                            x       y       z     vdW  Elec       q    Type
REMARK                         _______ _______ _______ _____ _____    ______ ____
ROOT
ATOM      1  C   UNL     1      -4.084   1.985   9.142  0.00  0.00    +0.255 C 
ATOM      2  O   UNL     1      -4.205   3.186   9.256  0.00  0.00    -0.272 OA
ATOM      3  N   UNL     1      -4.599   1.164  10.078  0.00  0.00    -0.282 N 
ATOM      4  H   UNL     1      -4.559   0.202   9.955  0.00  0.00    +0.155 HD
ENDROOT
BRANCH   3   5
ATOM      5  C   UNL     1      -5.190   1.695  11.221  0.00  0.00    +0.046 A 
ATOM      6  C   UNL     1      -5.905   2.883  11.149  0.00  0.00    +0.024 A 
ATOM      7  C   UNL     1      -6.494   3.406  12.283  0.00  0.00    +0.002 A 
ATOM      8  C   UNL     1      -6.368   2.757  13.501  0.00  0.00    +0.001 A 
ATOM      9  C   UNL     1      -5.658   1.580  13.593  0.00  0.00    +0.015 A 
ATOM     10  C   UNL     1      -5.061   1.036  12.453  0.00  0.00    +0.058 A 
BRANCH  10  11
ATOM     11  C   UNL     1      -4.299  -0.224  12.544  0.00  0.00    +0.246 C 
ATOM     12  O   UNL     1      -3.698  -0.642  11.573  0.00  0.00    -0.270 OA
ATOM     13  N   UNL     1      -4.268  -0.911  13.703  0.00  0.00    -0.307 N 
ATOM     14  H   UNL     1      -4.747  -0.577  14.477  0.00  0.00    +0.150 HD
BRANCH  13  15
ATOM     15  C   UNL     1      -3.511  -2.162  13.793  0.00  0.00    +0.026 C 
ATOM     16  C   UNL     1      -2.037  -1.889  13.486  0.00  0.00    +0.031 C 
ATOM     17  C   UNL     1      -3.640  -2.735  15.206  0.00  0.00    +0.031 C 
ATOM     18  C   UNL     1      -4.065  -3.167  12.782  0.00  0.00    +0.031 C 
ENDBRANCH  13  15
ENDBRANCH  10  11
ENDBRANCH   3   5
BRANCH   1  19
ATOM     19  C   UNL     1      -3.356   1.411   7.954  0.00  0.00    +0.324 C 
BRANCH  19  20
ATOM     20  O   UNL     1      -2.906   2.474   7.111  0.00  0.00    -0.482 OA
BRANCH  20  24
ATOM     21  C   UNL     1      -0.842   1.414   3.699  0.00  0.00    -0.043 A 
ATOM     22  C   UNL     1      -1.306   0.435   4.558  0.00  0.00    +0.007 A 
ATOM     23  C   UNL     1      -1.997   0.787   5.701  0.00  0.00    +0.047 A 
ATOM     24  C   UNL     1      -2.227   2.125   5.987  0.00  0.00    +0.135 A 
ATOM     25  C   UNL     1      -1.760   3.106   5.123  0.00  0.00    +0.060 A 
ATOM     26  C   UNL     1      -1.065   2.749   3.984  0.00  0.00    +0.022 A 
ATOM     27 BR   UNL     1      -2.071   4.931   5.509  0.00  0.00    -0.047 Br
BRANCH  21  28
ATOM     28  C   UNL     1      -0.088   1.027   2.453  0.00  0.00    +0.016 C 
ATOM     29  C   UNL     1       1.313   1.641   2.494  0.00  0.00    +0.012 C 
BRANCH  28  31
ATOM     30  C   UNL     1      -0.139   1.044  -0.045  0.00  0.00    +0.004 C 
ATOM     31  C   UNL     1      -0.836   1.543   1.223  0.00  0.00    +0.004 C 
ENDBRANCH  28  31
ENDBRANCH  21  28
ENDBRANCH  20  24
ENDBRANCH  19  20
ENDBRANCH   1  19
TORSDOF 8
