REMARK  Name = ZINC63350099
REMARK  10 active torsions:
REMARK  status: ('A' for Active; 'I' for Inactive)
REMARK    1  A    between atoms: C_1  and  C_2
REMARK    2  A    between atoms: C_13  and  O_15
REMARK    3  A    between atoms: O_15  and  C_16
REMARK    4  A    between atoms: C_16  and  C_18
REMARK    5  A    between atoms: C_18  and  C_19
REMARK    6  A    between atoms: C_19  and  C_20
REMARK    7  A    between atoms: N_22  and  C_23
REMARK    8  A    between atoms: C_23  and  C_24
REMARK    9  A    between atoms: C_24  and  C_25
REMARK   10  A    between atoms: C_42  and  C_43
REMARK                            x       y       z     vdW  Elec       q    Type
REMARK                         _______ _______ _______ _____ _____    ______ ____
ROOT
ATOM      1  O   UNL     1       0.755   0.391  -2.274  0.00  0.00    -0.461 OA
ENDROOT
BRANCH   1  11
ATOM      2  C   UNL     1      -0.019   1.524   0.010  0.00  0.00    +0.015 C 
ATOM      3  C   UNL     1       0.002  -0.004   0.002  0.00  0.00    +0.008 C 
ATOM      4  C   UNL     1      -1.402  -0.563  -0.058  0.00  0.00    +0.011 C 
ATOM      5  C   UNL     1      -1.837  -1.008   1.349  0.00  0.00    +0.005 C 
ATOM      6  C   UNL     1      -1.357  -0.009   2.396  0.00  0.00    +0.002 C 
ATOM      7  C   UNL     1       0.153  -0.020   2.523  0.00  0.00    -0.003 C 
ATOM      8  C   UNL     1       0.737  -0.576   1.232  0.00  0.00    +0.002 C 
ATOM      9  C   UNL     1       2.194  -0.166   0.965  0.00  0.00    +0.008 C 
ATOM     10  C   UNL     1       2.346  -0.339  -0.569  0.00  0.00    +0.045 C 
ATOM     11  C   UNL     1       0.917  -0.466  -1.147  0.00  0.00    +0.183 C 
ATOM     12  C   UNL     1       0.661  -0.902   3.658  0.00  0.00    +0.008 C 
ATOM     13  C   UNL     1       0.012  -0.537   4.985  0.00  0.00    +0.032 C 
ATOM     14  C   UNL     1      -1.490  -0.687   4.827  0.00  0.00    -0.060 C 
ATOM     15  C   UNL     1      -2.141  -1.413   5.737  0.00  0.00    +0.046 C 
ATOM     16  C   UNL     1      -3.593  -1.586   5.662  0.00  0.00    +0.156 C 
ATOM     17  O   UNL     1      -4.168  -2.415   6.340  0.00  0.00    -0.293 OA
ATOM     18  C   UNL     1      -4.361  -0.677   4.725  0.00  0.00    +0.080 C 
ATOM     19  C   UNL     1      -3.569  -0.556   3.423  0.00  0.00    +0.019 C 
ATOM     20  C   UNL     1      -2.162  -0.031   3.670  0.00  0.00    -0.007 C 
ATOM     21  C   UNL     1      -2.331   1.445   4.064  0.00  0.00    +0.016 C 
ENDBRANCH   1  11
BRANCH   1  22
ATOM     22  C   UNL     1       0.947  -0.153  -3.486  0.00  0.00    +0.308 C 
ATOM     23  O   UNL     1       1.243  -1.320  -3.585  0.00  0.00    -0.251 OA
BRANCH  22  24
ATOM     24  C   UNL     1       0.792   0.692  -4.725  0.00  0.00    +0.130 C 
BRANCH  24  25
ATOM     25  C   UNL     1       1.063  -0.164  -5.963  0.00  0.00    +0.107 C 
BRANCH  25  26
ATOM     26  C   UNL     1       0.909   0.681  -7.202  0.00  0.00    +0.214 C 
ATOM     27  O   UNL     1       0.611   1.853  -7.103  0.00  0.00    -0.276 OA
ATOM     28  N   UNL     1       1.101   0.135  -8.418  0.00  0.00    -0.315 N 
ATOM     29  H   UNL     1       1.340  -0.802  -8.497  0.00  0.00    +0.149 HD
BRANCH  28  30
ATOM     30  C   UNL     1       0.951   0.956  -9.622  0.00  0.00    +0.108 C 
BRANCH  30  31
ATOM     31  C   UNL     1       1.223   0.100 -10.861  0.00  0.00    +0.052 C 
BRANCH  31  32
ATOM     32  C   UNL     1       1.068   0.945 -12.099  0.00  0.00    -0.040 C 
ATOM     33  C   UNL     1       2.050   1.583 -12.776  0.00  0.00    -0.001 A 
ATOM     34  C   UNL     1       3.500   1.679 -12.569  0.00  0.00    +0.010 A 
ATOM     35  C   UNL     1       4.239   2.410 -13.434  0.00  0.00    +0.001 A 
ATOM     36  C   UNL     1       3.657   3.077 -14.520  0.00  0.00    +0.002 A 
ATOM     37  C   UNL     1       2.332   3.037 -14.776  0.00  0.00    +0.026 A 
ATOM     38  C   UNL     1       1.459   2.297 -13.931  0.00  0.00    +0.043 A 
ATOM     39  N   UNL     1       0.163   2.107 -13.966  0.00  0.00    -0.380 N 
ATOM     40  C   UNL     1      -0.215   1.246 -12.840  0.00  0.00    +0.144 C 
ATOM     41  H   UNL     1      -0.445   2.472 -14.629  0.00  0.00    +0.160 HD
ENDBRANCH  31  32
ENDBRANCH  30  31
ENDBRANCH  28  30
ENDBRANCH  25  26
ENDBRANCH  24  25
ENDBRANCH  22  24
ENDBRANCH   1  22
TORSDOF 8
