REMARK  Name = ZINC09659458
REMARK  7 active torsions:
REMARK  status: ('A' for Active; 'I' for Inactive)
REMARK    1  A    between atoms: C_1  and  C_2
REMARK    2  A    between atoms: C_2  and  C_3
REMARK    3  A    between atoms: C_2  and  C_4
REMARK    4  A    between atoms: C_2  and  C_5
REMARK    5  A    between atoms: C_10  and  C_13
REMARK    6  A    between atoms: C_13  and  C_14
REMARK    7  A    between atoms: N_16  and  C_17
REMARK                            x       y       z     vdW  Elec       q    Type
REMARK                         _______ _______ _______ _____ _____    ______ ____
ROOT
ATOM      1  C   UNL     1       7.983   6.411   2.145  0.00  0.00    +0.224 C 
ATOM      2  O   UNL     1       8.205   7.244   1.292  0.00  0.00    -0.275 OA
ATOM      3  N   UNL     1       6.768   5.832   2.222  0.00  0.00    -0.264 N 
ATOM      4  C   UNL     1       5.770   6.191   1.323  0.00  0.00    +0.165 A 
ATOM      5  N   UNL     1       4.531   5.747   1.240  0.00  0.00    -0.229 NA
ATOM      6  C   UNL     1       3.705   6.193   0.314  0.00  0.00    +0.059 A 
ATOM      7  C   UNL     1       4.154   7.134  -0.552  0.00  0.00    +0.072 A 
ATOM      8  S   UNL     1       5.833   7.343   0.025  0.00  0.00    -0.060 S 
ATOM      9  H   UNL     1       6.590   5.166   2.904  0.00  0.00    +0.157 HD
ENDROOT
BRANCH   1  11
ATOM     10  C   UNL     1      10.335   6.821   2.817  0.00  0.00    +0.020 C 
ATOM     11  C   UNL     1       9.065   6.023   3.120  0.00  0.00    +0.039 C 
ATOM     12  C   UNL     1       8.600   6.326   4.546  0.00  0.00    +0.020 C 
ATOM     13  C   UNL     1       9.359   4.527   2.987  0.00  0.00    +0.020 C 
ENDBRANCH   1  11
BRANCH   6  14
ATOM     14  C   UNL     1       2.293   5.674   0.225  0.00  0.00    +0.152 C 
BRANCH  14  15
ATOM     15  C   UNL     1       2.317   4.172   0.104  0.00  0.00    +0.223 C 
ATOM     16  O   UNL     1       3.376   3.582   0.091  0.00  0.00    -0.275 OA
ATOM     17  N   UNL     1       1.161   3.486   0.009  0.00  0.00    -0.285 N 
ATOM     18  H   UNL     1       0.318   3.961  -0.058  0.00  0.00    +0.155 HD
BRANCH  17  19
ATOM     19  C   UNL     1       1.177   2.086   0.008  0.00  0.00    +0.033 A 
ATOM     20  C   UNL     1       2.133   1.400   0.745  0.00  0.00    +0.024 A 
ATOM     21  C   UNL     1       2.146   0.019   0.742  0.00  0.00    +0.017 A 
ATOM     22  C   UNL     1       1.207  -0.681   0.006  0.00  0.00    +0.018 A 
ATOM     23  C   UNL     1       0.253  -0.000  -0.729  0.00  0.00    +0.017 A 
ATOM     24  C   UNL     1       0.235   1.381  -0.730  0.00  0.00    +0.024 A 
ATOM     25 BR   UNL     1       1.228  -2.572   0.004  0.00  0.00    -0.050 Br
ENDBRANCH  17  19
ENDBRANCH  14  15
ENDBRANCH   6  14
TORSDOF 4
