REMARK  Name = ZINC19947139
REMARK  6 active torsions:
REMARK  status: ('A' for Active; 'I' for Inactive)
REMARK    1  A    between atoms: C_1  and  N_2
REMARK    2  A    between atoms: N_2  and  C_3
REMARK    3  A    between atoms: N_2  and  C_4
REMARK    4  A    between atoms: C_4  and  C_5
REMARK    5  A    between atoms: C_5  and  N_6
REMARK    6  A    between atoms: N_14  and  C_15
REMARK                            x       y       z     vdW  Elec       q    Type
REMARK                         _______ _______ _______ _____ _____    ______ ____
ROOT
ATOM      1  N   UNL     1      -8.344  -1.012   1.763  0.00  0.00    -0.301 NA
ATOM      2  C   UNL     1      -7.768  -0.182   2.830  0.00  0.00    +0.103 C 
ATOM      3  C   UNL     1      -7.252   1.130   2.229  0.00  0.00    +0.124 C 
ATOM      4  N   UNL     1      -6.333   0.809   1.127  0.00  0.00    -0.283 N 
ATOM      5  C   UNL     1      -6.793  -0.122   0.085  0.00  0.00    +0.124 C 
ATOM      6  C   UNL     1      -7.326  -1.389   0.773  0.00  0.00    +0.103 C 
ATOM      7  C   UNL     1      -5.103   1.358   1.069  0.00  0.00    +0.303 C 
ATOM      8  O   UNL     1      -4.391   1.154   0.105  0.00  0.00    -0.253 OA
ATOM      9  N   UNL     1      -4.663   2.134   2.080  0.00  0.00    -0.294 N 
ATOM     10  H   UNL     1      -5.336   2.386   2.912  0.00  0.00    +0.151 HD
ENDROOT
BRANCH   9  11
ATOM     11  C   UNL     1      -3.289   2.640   2.070  0.00  0.00    +0.037 C 
ATOM     12  C   UNL     1      -3.048   3.487   3.321  0.00  0.00    +0.029 C 
ATOM     13  C   UNL     1      -1.613   4.016   3.310  0.00  0.00    -0.008 C 
ATOM     14  C   UNL     1      -1.395   4.876   2.063  0.00  0.00    +0.007 C 
ATOM     15  C   UNL     1      -1.636   4.029   0.812  0.00  0.00    -0.008 C 
ATOM     16  C   UNL     1      -3.071   3.500   0.823  0.00  0.00    +0.029 C 
ATOM     17  C   UNL     1      -0.658   2.852   0.797  0.00  0.00    +0.007 C 
ATOM     18  C   UNL     1      -0.876   1.992   2.044  0.00  0.00    -0.008 C 
ATOM     19  C   UNL     1      -0.635   2.839   3.295  0.00  0.00    +0.007 C 
ATOM     20  C   UNL     1      -2.311   1.463   2.054  0.00  0.00    +0.029 C 
ENDBRANCH   9  11
BRANCH   1  21
ATOM     21  C   UNL     1      -9.004  -2.201   2.319  0.00  0.00    +0.066 C 
BRANCH  21  22
ATOM     22  C   UNL     1      -9.799  -2.904   1.217  0.00  0.00    -0.064 C 
BRANCH  22  24
ATOM     23  C   UNL     1     -11.483  -3.716   2.756  0.00  0.00    -0.097 C 
ATOM     24  N   UNL     1     -10.459  -4.093   1.773  0.00  0.00    +0.377 N 
ATOM     25  C   UNL     1     -11.034  -4.923   0.706  0.00  0.00    -0.097 C 
ATOM     26  H   UNL     1      -9.696  -4.692   2.292  0.00  0.00    -0.083 HD
ENDBRANCH  22  24
ENDBRANCH  21  22
ENDBRANCH   1  21
TORSDOF 4
