REMARK  Name = ZINC36348699
REMARK  4 active torsions:
REMARK  status: ('A' for Active; 'I' for Inactive)
REMARK    1  A    between atoms: C_3  and  C_8
REMARK    2  A    between atoms: C_5  and  O_7
REMARK    3  A    between atoms: N_18  and  C_19
REMARK    4  A    between atoms: C_19  and  C_20
REMARK                            x       y       z     vdW  Elec       q    Type
REMARK                         _______ _______ _______ _____ _____    ______ ____
ROOT
ATOM      1  C   UNL     1       3.784   2.152   0.074  0.00  0.00    +0.011 C 
ATOM      2  C   UNL     1       4.137   2.450  -1.363  0.00  0.00    +0.009 A 
ATOM      3  C   UNL     1       3.944   1.633  -2.416  0.00  0.00    +0.021 A 
ATOM      4  C   UNL     1       4.428   2.297  -3.561  0.00  0.00    +0.019 A 
ATOM      5  C   UNL     1       4.894   3.499  -3.164  0.00  0.00    +0.086 A 
ATOM      6  N   UNL     1       4.711   3.603  -1.818  0.00  0.00    -0.352 N 
ATOM      7  C   UNL     1       5.052   4.758  -0.979  0.00  0.00    +0.119 C 
ATOM      8  C   UNL     1       5.773   4.263   0.278  0.00  0.00    +0.003 C 
ATOM      9  C   UNL     1       4.752   3.936   1.361  0.00  0.00    -0.075 C 
ATOM     10  N   UNL     1       3.515   3.412   0.780  0.00  0.00    +0.391 N 
ATOM     11  H   UNL     1       3.139   4.086   0.130  0.00  0.00    -0.080 HD
ENDROOT
BRANCH   1  14
ATOM     12  C   UNL     1       0.236   0.934  -0.364  0.00  0.00    +0.004 A 
ATOM     13  C   UNL     1       1.363   1.734  -0.405  0.00  0.00    +0.002 A 
ATOM     14  C   UNL     1       2.558   1.277   0.120  0.00  0.00    -0.052 A 
ATOM     15  C   UNL     1       2.629   0.019   0.686  0.00  0.00    +0.047 A 
ATOM     16  C   UNL     1       1.500  -0.786   0.728  0.00  0.00    +0.117 A 
ATOM     17  C   UNL     1       0.302  -0.324   0.201  0.00  0.00    +0.045 A 
BRANCH  16  18
ATOM     18  O   UNL     1       1.567  -2.024   1.284  0.00  0.00    -0.507 OA
ATOM     19  H   UNL     1       1.372  -2.041   2.232  0.00  0.00    +0.292 HD
ENDBRANCH  16  18
ENDBRANCH   1  14
BRANCH  10  20
ATOM     20  C   UNL     1       2.537   3.172   1.849  0.00  0.00    -0.042 C 
BRANCH  20  21
ATOM     21  C   UNL     1       2.190   4.479   2.515  0.00  0.00    -0.064 A 
ATOM     22  C   UNL     1       2.928   4.919   3.598  0.00  0.00    +0.003 A 
ATOM     23  C   UNL     1       2.611   6.117   4.210  0.00  0.00    +0.020 A 
ATOM     24  C   UNL     1       1.555   6.876   3.738  0.00  0.00    +0.041 A 
ATOM     25  C   UNL     1       0.817   6.435   2.654  0.00  0.00    +0.020 A 
ATOM     26  C   UNL     1       1.139   5.240   2.040  0.00  0.00    +0.003 A 
ATOM     27 CL   UNL     1       1.156   8.381   4.506  0.00  0.00    -0.084 Cl
ENDBRANCH  20  21
ENDBRANCH  10  20
TORSDOF 4
