REMARK  Name = ZINC20479318
REMARK  6 active torsions:
REMARK  status: ('A' for Active; 'I' for Inactive)
REMARK    1  A    between atoms: C_1  and  C_2
REMARK    2  A    between atoms: C_5  and  N_8
REMARK    3  A    between atoms: C_9  and  C_31
REMARK    4  A    between atoms: C_11  and  C_14
REMARK    5  A    between atoms: C_12  and  C_13
REMARK    6  A    between atoms: C_24  and  C_26
REMARK                            x       y       z     vdW  Elec       q    Type
REMARK                         _______ _______ _______ _____ _____    ______ ____
ROOT
ATOM      1  C   UNL     1       1.470  -7.391   0.630  0.00  0.00    +0.026 C 
ATOM      2  C   UNL     1       1.295  -8.586  -0.036  0.00  0.00    +0.079 C 
ATOM      3  C   UNL     1       0.383  -8.706  -1.207  0.00  0.00    +0.132 C 
ATOM      4  N   UNL     1       0.182  -7.738  -2.063  0.00  0.00    -0.385 N 
ATOM      5  N   UNL     1      -0.244  -9.967  -1.302  0.00  0.00    -0.153 N 
ATOM      6  C   UNL     1       0.377 -11.034  -0.688  0.00  0.00    +0.181 C 
ATOM      7  N   UNL     1       1.445 -11.008   0.068  0.00  0.00    -0.152 NA
ATOM      8  C   UNL     1       2.010  -9.819   0.372  0.00  0.00    +0.273 C 
ATOM      9  O   UNL     1       3.074  -9.760   0.968  0.00  0.00    -0.268 OA
ATOM     10  S   UNL     1      -0.651 -12.396  -1.170  0.00  0.00    -0.030 S 
ATOM     11  C   UNL     1      -1.883 -11.458  -2.063  0.00  0.00    +0.165 C 
ATOM     12  N   UNL     1      -1.422 -10.231  -1.968  0.00  0.00    -0.161 NA
ATOM     13  H   UNL     1       0.701  -6.921  -2.001  0.00  0.00    +0.157 HD
ATOM     14  H   UNL     1      -0.485  -7.837  -2.759  0.00  0.00    +0.157 HD
ENDROOT
BRANCH   1  18
ATOM     15  N   UNL     1      -0.122  -4.219   0.083  0.00  0.00    -0.317 N 
ATOM     16  C   UNL     1      -1.127  -5.046  -0.337  0.00  0.00    +0.022 A 
ATOM     17  C   UNL     1      -0.729  -6.323  -0.213  0.00  0.00    +0.031 A 
ATOM     18  C   UNL     1       0.636  -6.283   0.329  0.00  0.00    -0.003 A 
ATOM     19  C   UNL     1       0.945  -4.941   0.480  0.00  0.00    +0.028 A 
ATOM     20  C   UNL     1       2.245  -4.385   1.000  0.00  0.00    +0.064 C 
ATOM     21  C   UNL     1      -2.468  -4.596  -0.857  0.00  0.00    +0.064 C 
BRANCH  15  26
ATOM     22  C   UNL     1      -0.397   1.449   0.122  0.00  0.00    +0.044 C 
ATOM     23  C   UNL     1      -0.324  -0.056   0.112  0.00  0.00    -0.050 A 
ATOM     24  C   UNL     1      -0.367  -0.741  -1.089  0.00  0.00    +0.005 A 
ATOM     25  C   UNL     1      -0.300  -2.120  -1.102  0.00  0.00    +0.026 A 
ATOM     26  C   UNL     1      -0.190  -2.820   0.092  0.00  0.00    +0.047 A 
ATOM     27  C   UNL     1      -0.146  -2.129   1.296  0.00  0.00    +0.026 A 
ATOM     28  C   UNL     1      -0.208  -0.750   1.302  0.00  0.00    +0.005 A 
ENDBRANCH  15  26
ENDBRANCH   1  18
BRANCH  11  29
ATOM     29  C   UNL     1      -3.103 -11.937  -2.734  0.00  0.00    +0.161 A 
ATOM     30  C   UNL     1      -3.529 -13.229  -2.791  0.00  0.00    +0.052 A 
ATOM     31  C   UNL     1      -4.730 -13.228  -3.526  0.00  0.00    +0.042 A 
ATOM     32  C   UNL     1      -4.977 -11.950  -3.878  0.00  0.00    +0.196 A 
ATOM     33  O   UNL     1      -3.995 -11.172  -3.394  0.00  0.00    -0.461 OA
ENDBRANCH  11  29
TORSDOF 3
