REMARK  Name = ZINC20123508
REMARK  9 active torsions:
REMARK  status: ('A' for Active; 'I' for Inactive)
REMARK    1  A    between atoms: C_1  and  C_2
REMARK    2  A    between atoms: C_7  and  N_12
REMARK    3  A    between atoms: C_9  and  C_11
REMARK    4  A    between atoms: N_12  and  C_13
REMARK    5  A    between atoms: N_23  and  C_24
REMARK    6  A    between atoms: C_24  and  C_25
REMARK    7  A    between atoms: C_25  and  C_26
REMARK    8  A    between atoms: C_26  and  C_27
REMARK    9  A    between atoms: C_26  and  C_28
REMARK                            x       y       z     vdW  Elec       q    Type
REMARK                         _______ _______ _______ _____ _____    ______ ____
ROOT
ATOM      1  C   UNL     1      -0.013  -0.130  -0.048  0.00  0.00    +0.051 C 
ATOM      2  C   UNL     1       0.146   1.370  -0.062  0.00  0.00    -0.032 A 
ATOM      3  C   UNL     1      -0.749   2.413  -0.013  0.00  0.00    +0.004 A 
ATOM      4  C   UNL     1      -0.291   3.720  -0.045  0.00  0.00    +0.000 A 
ATOM      5  C   UNL     1       1.066   3.979  -0.120  0.00  0.00    +0.001 A 
ATOM      6  C   UNL     1       1.972   2.941  -0.165  0.00  0.00    +0.013 A 
ATOM      7  C   UNL     1       1.518   1.621  -0.137  0.00  0.00    +0.040 A 
ATOM      8  C   UNL     1       2.224   0.326  -0.170  0.00  0.00    +0.246 C 
ATOM      9  O   UNL     1       3.431   0.194  -0.234  0.00  0.00    -0.270 OA
ATOM     10  N   UNL     1       1.343  -0.687  -0.118  0.00  0.00    -0.307 N 
ENDROOT
BRANCH   1  11
ATOM     11  N   UNL     1      -0.670  -0.556   1.195  0.00  0.00    +0.396 N 
ATOM     12  H   UNL     1      -0.316   0.083   2.018  0.00  0.00    -0.082 HD
ATOM     13  H   UNL     1      -0.395  -1.602   1.399  0.00  0.00    -0.082 HD
BRANCH  11  19
ATOM     14  C   UNL     1      -4.865   0.018   3.754  0.00  0.00    +0.008 C 
ATOM     15  C   UNL     1      -4.258  -0.157   2.360  0.00  0.00    -0.013 C 
ATOM     16  C   UNL     1      -4.817  -1.427   1.717  0.00  0.00    +0.003 C 
ATOM     17  C   UNL     1      -4.211  -1.602   0.323  0.00  0.00    -0.001 C 
ATOM     18  C   UNL     1      -2.689  -1.717   0.440  0.00  0.00    -0.015 C 
ATOM     19  C   UNL     1      -2.130  -0.446   1.083  0.00  0.00    -0.066 C 
ATOM     20  C   UNL     1      -2.737  -0.271   2.477  0.00  0.00    -0.025 C 
ATOM     21  C   UNL     1      -2.178   0.999   3.121  0.00  0.00    +0.006 C 
ENDBRANCH  11  19
ENDBRANCH   1  11
BRANCH  10  22
ATOM     22  C   UNL     1       1.679  -2.113  -0.131  0.00  0.00    +0.107 C 
BRANCH  22  23
ATOM     23  C   UNL     1       1.828  -2.589  -1.578  0.00  0.00    +0.022 C 
BRANCH  23  24
ATOM     24  C   UNL     1       2.179  -4.078  -1.591  0.00  0.00    -0.016 C 
ATOM     25  C   UNL     1       1.011  -4.883  -1.018  0.00  0.00    +0.007 C 
ATOM     26  C   UNL     1       2.450  -4.525  -3.029  0.00  0.00    +0.007 C 
ENDBRANCH  23  24
ENDBRANCH  22  23
ENDBRANCH  10  22
TORSDOF 5
