REMARK  Name = ZINC35532418
REMARK  8 active torsions:
REMARK  status: ('A' for Active; 'I' for Inactive)
REMARK    1  A    between atoms: C_1  and  C_2
REMARK    2  A    between atoms: C_5  and  C_7
REMARK    3  A    between atoms: C_13  and  S_26
REMARK    4  A    between atoms: C_22  and  C_24
REMARK    5  A    between atoms: C_22  and  C_25
REMARK    6  A    between atoms: S_26  and  C_27
REMARK    7  A    between atoms: C_27  and  C_28
REMARK    8  A    between atoms: C_31  and  N_34
REMARK                            x       y       z     vdW  Elec       q    Type
REMARK                         _______ _______ _______ _____ _____    ______ ____
ROOT
ATOM      1  C   UNL     1       1.043  -4.062  -0.027  0.00  0.00    +0.099 C 
ATOM      2  C   UNL     1       1.868  -4.283   1.206  0.00  0.00    +0.069 A 
ATOM      3  C   UNL     1       1.239  -4.499   2.452  0.00  0.00    +0.280 A 
ATOM      4  O   UNL     1       0.019  -4.514   2.530  0.00  0.00    -0.265 OA
ATOM      5  N   UNL     1       1.988  -4.688   3.549  0.00  0.00    -0.185 NA
ATOM      6  C   UNL     1       3.304  -4.679   3.482  0.00  0.00    +0.172 A 
ATOM      7  N   UNL     1       3.947  -4.477   2.298  0.00  0.00    -0.322 N 
ATOM      8  C   UNL     1       3.227  -4.278   1.149  0.00  0.00    +0.112 A 
ATOM      9  N   UNL     1       3.869  -4.079  -0.051  0.00  0.00    -0.304 N 
ATOM     10  C   UNL     1       3.208  -4.269  -1.234  0.00  0.00    +0.017 C 
ATOM     11  C   UNL     1       1.861  -4.269  -1.276  0.00  0.00    +0.025 C 
ATOM     12  C   UNL     1       1.176  -4.460  -2.489  0.00  0.00    +0.162 C 
ATOM     13  O   UNL     1      -0.039  -4.472  -2.493  0.00  0.00    -0.292 OA
ATOM     14  C   UNL     1       1.919  -4.651  -3.783  0.00  0.00    +0.086 C 
ATOM     15  C   UNL     1       3.270  -3.932  -3.692  0.00  0.00    -0.023 C 
ATOM     16  C   UNL     1       4.026  -4.480  -2.485  0.00  0.00    +0.058 C 
ATOM     17  C   UNL     1       3.043  -2.429  -3.521  0.00  0.00    +0.011 C 
ATOM     18  C   UNL     1       4.077  -4.190  -4.966  0.00  0.00    +0.011 C 
ATOM     19  H   UNL     1       4.798  -3.800  -0.058  0.00  0.00    +0.153 HD
ATOM     20  H   UNL     1       4.917  -4.475   2.268  0.00  0.00    +0.169 HD
ENDROOT
BRANCH   1  25
ATOM     21  C   UNL     1      -0.018   1.503   0.010  0.00  0.00    +0.051 C 
ATOM     22  C   UNL     1       0.002  -0.004   0.002  0.00  0.00    -0.013 A 
ATOM     23  C   UNL     1      -1.039  -0.872   0.002  0.00  0.00    +0.011 A 
ATOM     24  C   UNL     1      -0.780  -2.230  -0.007  0.00  0.00    +0.012 A 
ATOM     25  C   UNL     1       0.507  -2.653  -0.016  0.00  0.00    +0.002 A 
ATOM     26  S   UNL     1       1.404  -1.109  -0.018  0.00  0.00    -0.097 S 
ENDBRANCH   1  25
BRANCH   6  27
ATOM     27  S   UNL     1       4.247  -4.930   4.948  0.00  0.00    -0.083 S 
BRANCH  27  28
ATOM     28  C   UNL     1       2.996  -5.149   6.243  0.00  0.00    +0.112 C 
BRANCH  28  29
ATOM     29  C   UNL     1       3.678  -5.376   7.568  0.00  0.00    -0.037 A 
ATOM     30  C   UNL     1       3.994  -6.660   7.971  0.00  0.00    +0.007 A 
ATOM     31  C   UNL     1       4.620  -6.868   9.186  0.00  0.00    +0.033 A 
ATOM     32  C   UNL     1       4.929  -5.792   9.997  0.00  0.00    +0.126 A 
ATOM     33  C   UNL     1       4.614  -4.508   9.593  0.00  0.00    +0.033 A 
ATOM     34  C   UNL     1       3.992  -4.300   8.376  0.00  0.00    +0.007 A 
BRANCH  32  35
ATOM     35  N   UNL     1       5.598  -6.015  11.299  0.00  0.00    +0.056 N 
ATOM     36  O   UNL     1       5.874  -7.138  11.652  0.00  0.00    -0.126 OA
ATOM     37  O   UNL     1       5.869  -5.074  12.008  0.00  0.00    -0.126 OA
ENDBRANCH  32  35
ENDBRANCH  28  29
ENDBRANCH  27  28
ENDBRANCH   6  27
TORSDOF 5
