REMARK  Name = ZINC43209901
REMARK  10 active torsions:
REMARK  status: ('A' for Active; 'I' for Inactive)
REMARK    1  A    between atoms: C_1  and  C_2
REMARK    2  A    between atoms: C_2  and  C_3
REMARK    3  A    between atoms: C_2  and  C_4
REMARK    4  A    between atoms: C_14  and  C_36
REMARK    5  A    between atoms: C_18  and  C_19
REMARK    6  A    between atoms: C_18  and  C_20
REMARK    7  A    between atoms: C_20  and  N_21
REMARK    8  A    between atoms: C_22  and  C_24
REMARK    9  A    between atoms: C_27  and  C_29
REMARK   10  A    between atoms: C_34  and  N_35
REMARK                            x       y       z     vdW  Elec       q    Type
REMARK                         _______ _______ _______ _____ _____    ______ ____
ROOT
ATOM      1  C   UNL     1      -0.912  -0.921  -0.631  0.00  0.00    -0.045 A 
ATOM      2  C   UNL     1      -1.745  -0.468   0.375  0.00  0.00    +0.004 A 
ATOM      3  C   UNL     1      -3.064  -0.876   0.404  0.00  0.00    +0.005 A 
ATOM      4  C   UNL     1      -3.554  -1.732  -0.567  0.00  0.00    -0.038 A 
ATOM      5  C   UNL     1      -2.730  -2.189  -1.572  0.00  0.00    -0.043 A 
ATOM      6  C   UNL     1      -1.401  -1.775  -1.596  0.00  0.00    +0.007 A 
ATOM      7  C   UNL     1      -3.180  -3.120  -2.664  0.00  0.00    +0.036 C 
ATOM      8  C   UNL     1      -4.587  -3.667  -2.420  0.00  0.00    +0.009 C 
ATOM      9  C   UNL     1      -5.457  -2.527  -1.895  0.00  0.00    +0.007 C 
ATOM     10  C   UNL     1      -5.006  -2.155  -0.495  0.00  0.00    -0.003 C 
ATOM     11  C   UNL     1      -5.857  -1.017   0.063  0.00  0.00    +0.011 C 
ATOM     12  C   UNL     1      -7.332  -1.421   0.037  0.00  0.00    +0.001 C 
ATOM     13  C   UNL     1      -7.776  -1.685  -1.395  0.00  0.00    +0.008 C 
ATOM     14  C   UNL     1      -6.939  -2.778  -2.064  0.00  0.00    -0.013 C 
ATOM     15  C   UNL     1      -7.271  -2.729  -3.575  0.00  0.00    +0.013 C 
ATOM     16  C   UNL     1      -5.071  -3.338   0.471  0.00  0.00    +0.016 C 
ENDROOT
BRANCH   1  18
ATOM     17  C   UNL     1       0.594   1.043  -0.798  0.00  0.00    +0.012 C 
ATOM     18  C   UNL     1       0.529  -0.481  -0.673  0.00  0.00    +0.013 C 
ATOM     19  C   UNL     1       1.233  -0.917   0.614  0.00  0.00    +0.012 C 
ENDBRANCH   1  18
BRANCH  14  20
ATOM     20  C   UNL     1      -7.364  -4.153  -1.550  0.00  0.00    +0.111 C 
BRANCH  20  21
ATOM     21  N   UNL     1      -8.780  -4.373  -1.858  0.00  0.00    -0.309 N 
ATOM     22  C   UNL     1      -9.377  -5.526  -1.496  0.00  0.00    +0.266 C 
ATOM     23  O   UNL     1      -8.741  -6.384  -0.915  0.00  0.00    -0.268 OA
ATOM     24  H   UNL     1      -9.287  -3.689  -2.321  0.00  0.00    +0.149 HD
BRANCH  22  25
ATOM     25  C   UNL     1     -10.802  -5.747  -1.806  0.00  0.00    +0.164 A 
ATOM     26  C   UNL     1     -11.532  -6.854  -1.498  0.00  0.00    +0.230 A 
ATOM     27  O   UNL     1     -12.778  -6.647  -1.957  0.00  0.00    -0.443 OA
ATOM     28  C   UNL     1     -12.815  -5.434  -2.537  0.00  0.00    +0.230 A 
ATOM     29  N   UNL     1     -11.630  -4.882  -2.446  0.00  0.00    -0.204 NA
BRANCH  28  30
ATOM     30  C   UNL     1     -14.001  -4.821  -3.169  0.00  0.00    +0.057 A 
ATOM     31  C   UNL     1     -14.343  -3.499  -2.884  0.00  0.00    +0.015 A 
ATOM     32  C   UNL     1     -15.451  -2.932  -3.477  0.00  0.00    +0.001 A 
ATOM     33  C   UNL     1     -16.228  -3.669  -4.356  0.00  0.00    +0.002 A 
ATOM     34  C   UNL     1     -15.901  -4.979  -4.647  0.00  0.00    +0.023 A 
ATOM     35  C   UNL     1     -14.785  -5.563  -4.063  0.00  0.00    +0.037 A 
BRANCH  35  36
ATOM     36  N   UNL     1     -14.451  -6.882  -4.359  0.00  0.00    -0.357 N 
ATOM     37  H   UNL     1     -13.629  -7.264  -4.013  0.00  0.00    +0.142 HD
ATOM     38  H   UNL     1     -15.039  -7.419  -4.912  0.00  0.00    +0.142 HD
ENDBRANCH  35  36
ENDBRANCH  28  30
ENDBRANCH  22  25
ENDBRANCH  20  21
ENDBRANCH  14  20
TORSDOF 6
