REMARK  Name = ZINC12569369
REMARK  7 active torsions:
REMARK  status: ('A' for Active; 'I' for Inactive)
REMARK    1  A    between atoms: C_4  and  C_7
REMARK    2  A    between atoms: C_7  and  C_8
REMARK    3  A    between atoms: C_8  and  C_29
REMARK    4  A    between atoms: N_11  and  C_15
REMARK    5  A    between atoms: C_15  and  C_16
REMARK    6  A    between atoms: N_18  and  C_19
REMARK    7  A    between atoms: C_21  and  N_26
REMARK                            x       y       z     vdW  Elec       q    Type
REMARK                         _______ _______ _______ _____ _____    ______ ____
ROOT
ATOM      1  C   UNL     1       3.705  -0.711  -0.037  0.00  0.00    +0.142 C 
ATOM      2  C   UNL     1       4.146  -1.043   1.375  0.00  0.00    +0.252 C 
ATOM      3  O   UNL     1       4.386  -0.261   2.270  0.00  0.00    -0.272 OA
ATOM      4  N   UNL     1       4.213  -2.392   1.425  0.00  0.00    -0.215 N 
ATOM      5  C   UNL     1       3.883  -2.947   0.253  0.00  0.00    +0.310 C 
ATOM      6  O   UNL     1       3.872  -4.145   0.052  0.00  0.00    -0.252 OA
ATOM      7  N   UNL     1       3.566  -2.030  -0.679  0.00  0.00    -0.281 N 
ATOM      8  H   UNL     1       3.298  -2.203  -1.595  0.00  0.00    +0.152 HD
ENDROOT
BRANCH   1   9
ATOM      9  C   UNL     1       2.385   0.015  -0.024  0.00  0.00    -0.015 A 
ATOM     10  C   UNL     1       1.202  -0.702  -0.025  0.00  0.00    +0.006 A 
ATOM     11  C   UNL     1      -0.009  -0.036  -0.013  0.00  0.00    +0.000 A 
ATOM     12  C   UNL     1      -0.038   1.346   0.002  0.00  0.00    +0.000 A 
ATOM     13  C   UNL     1       1.144   2.062   0.004  0.00  0.00    +0.000 A 
ATOM     14  C   UNL     1       2.355   1.397  -0.010  0.00  0.00    +0.006 A 
ENDBRANCH   1   9
BRANCH   1  15
ATOM     15  C   UNL     1       4.770   0.125  -0.750  0.00  0.00    +0.075 C 
BRANCH  15  19
ATOM     16  C   UNL     1       8.384  -2.132  -1.057  0.00  0.00    +0.000 A 
ATOM     17  C   UNL     1       7.436  -2.204  -2.061  0.00  0.00    +0.000 A 
ATOM     18  C   UNL     1       6.267  -1.474  -1.962  0.00  0.00    +0.004 A 
ATOM     19  C   UNL     1       6.045  -0.671  -0.858  0.00  0.00    -0.045 A 
ATOM     20  C   UNL     1       6.994  -0.595   0.143  0.00  0.00    +0.004 A 
ATOM     21  C   UNL     1       8.162  -1.328   0.046  0.00  0.00    +0.000 A 
ENDBRANCH  15  19
ENDBRANCH   1  15
BRANCH   4  22
ATOM     22  C   UNL     1       4.603  -3.152   2.615  0.00  0.00    +0.214 C 
BRANCH  22  23
ATOM     23  C   UNL     1       6.096  -3.357   2.613  0.00  0.00    +0.235 C 
ATOM     24  O   UNL     1       6.768  -2.912   1.707  0.00  0.00    -0.274 OA
ATOM     25  N   UNL     1       6.684  -4.035   3.618  0.00  0.00    -0.282 N 
ATOM     26  H   UNL     1       6.160  -4.321   4.383  0.00  0.00    +0.155 HD
BRANCH  25  27
ATOM     27  C   UNL     1       8.053  -4.327   3.559  0.00  0.00    +0.071 A 
ATOM     28  C   UNL     1       8.694  -4.410   2.331  0.00  0.00    +0.059 A 
ATOM     29  C   UNL     1      10.045  -4.693   2.276  0.00  0.00    +0.128 A 
ATOM     30  C   UNL     1      10.757  -4.905   3.442  0.00  0.00    +0.035 A 
ATOM     31  C   UNL     1      10.122  -4.830   4.668  0.00  0.00    +0.042 A 
ATOM     32  C   UNL     1       8.771  -4.541   4.731  0.00  0.00    +0.145 A 
ATOM     33  F   UNL     1       8.149  -4.467   5.928  0.00  0.00    -0.204 F 
BRANCH  29  34
ATOM     34  N   UNL     1      10.730  -4.775   0.967  0.00  0.00    +0.056 N 
ATOM     35  O   UNL     1      11.920  -5.029   0.917  0.00  0.00    -0.126 OA
ATOM     36  O   UNL     1      10.104  -4.588  -0.061  0.00  0.00    -0.126 OA
ENDBRANCH  29  34
ENDBRANCH  25  27
ENDBRANCH  22  23
ENDBRANCH   4  22
TORSDOF 7
