REMARK  Name = ZINC39147177
REMARK  7 active torsions:
REMARK  status: ('A' for Active; 'I' for Inactive)
REMARK    1  A    between atoms: C_1  and  C_2
REMARK    2  A    between atoms: C_8  and  C_11
REMARK    3  A    between atoms: C_11  and  C_12
REMARK    4  A    between atoms: C_12  and  N_13
REMARK    5  A    between atoms: C_15  and  C_20
REMARK    6  A    between atoms: N_22  and  C_23
REMARK    7  A    between atoms: C_26  and  C_29
REMARK                            x       y       z     vdW  Elec       q    Type
REMARK                         _______ _______ _______ _____ _____    ______ ____
ROOT
ATOM      1  N   UNL     1       2.745   1.103  -6.445  0.00  0.00    -0.300 N 
ATOM      2  C   UNL     1       3.094   1.372  -7.845  0.00  0.00    +0.121 C 
ATOM      3  C   UNL     1       4.507   0.778  -8.039  0.00  0.00    +0.101 C 
ATOM      4  C   UNL     1       5.067   0.818  -6.598  0.00  0.00    +0.110 C 
ATOM      5  C   UNL     1       3.835   0.800  -5.719  0.00  0.00    +0.216 C 
ATOM      6  O   UNL     1       3.832   0.547  -4.533  0.00  0.00    -0.276 OA
ENDROOT
BRANCH   3   7
ATOM      7  C   UNL     1       5.331   1.637  -8.963  0.00  0.00    +0.220 C 
ATOM      8  O   UNL     1       4.854   2.644  -9.440  0.00  0.00    -0.275 OA
ATOM      9  N   UNL     1       6.598   1.285  -9.259  0.00  0.00    -0.294 N 
ATOM     10  H   UNL     1       6.979   0.479  -8.877  0.00  0.00    +0.151 HD
BRANCH   9  11
ATOM     11  C   UNL     1       7.399   2.120 -10.157  0.00  0.00    +0.204 C 
ATOM     12  C   UNL     1       8.814   2.271  -9.633  0.00  0.00    +0.057 C 
ATOM     13  C   UNL     1       9.641   2.081 -10.638  0.00  0.00    +0.121 C 
ATOM     14  O   UNL     1       8.990   1.827 -11.799  0.00  0.00    -0.409 OA
ATOM     15  N   UNL     1       7.603   1.443 -11.464  0.00  0.00    -0.131 NA
ATOM     16  C   UNL     1      11.142   2.141 -10.514  0.00  0.00    +0.088 C 
ATOM     17  H   UNL     1       7.518   0.442 -11.370  0.00  0.00    +0.170 HD
ENDBRANCH   9  11
ENDBRANCH   3   7
BRANCH   1  18
ATOM     18  C   UNL     1       1.384   1.162  -5.906  0.00  0.00    +0.112 C 
BRANCH  18  19
ATOM     19  C   UNL     1       1.093   2.580  -5.410  0.00  0.00    +0.056 C 
BRANCH  19  27
ATOM     20  C   UNL     1      -0.013   1.086   0.008  0.00  0.00    +0.044 C 
ATOM     21  C   UNL     1      -0.742   1.585  -1.213  0.00  0.00    -0.050 A 
ATOM     22  C   UNL     1      -2.112   1.796  -1.158  0.00  0.00    +0.005 A 
ATOM     23  C   UNL     1      -2.798   2.251  -2.263  0.00  0.00    +0.026 A 
ATOM     24  C   UNL     1      -2.112   2.504  -3.446  0.00  0.00    +0.047 A 
ATOM     25  N   UNL     1      -2.498   2.952  -4.689  0.00  0.00    -0.360 N 
ATOM     26  C   UNL     1      -1.411   3.028  -5.516  0.00  0.00    +0.087 A 
ATOM     27  C   UNL     1      -0.307   2.641  -4.856  0.00  0.00    -0.021 A 
ATOM     28  C   UNL     1      -0.722   2.289  -3.496  0.00  0.00    +0.003 A 
ATOM     29  C   UNL     1      -0.047   1.832  -2.363  0.00  0.00    +0.013 A 
ATOM     30  H   UNL     1      -3.407   3.180  -4.942  0.00  0.00    +0.165 HD
ENDBRANCH  19  27
ENDBRANCH  18  19
ENDBRANCH   1  18
TORSDOF 5
