REMARK  Name = ZINC50567482
REMARK  7 active torsions:
REMARK  status: ('A' for Active; 'I' for Inactive)
REMARK    1  A    between atoms: C_1  and  C_2
REMARK    2  A    between atoms: N_7  and  S_11
REMARK    3  A    between atoms: C_8  and  C_10
REMARK    4  A    between atoms: S_11  and  C_14
REMARK    5  A    between atoms: C_17  and  C_19
REMARK    6  A    between atoms: C_19  and  C_20
REMARK    7  A    between atoms: C_20  and  N_21
REMARK                            x       y       z     vdW  Elec       q    Type
REMARK                         _______ _______ _______ _____ _____    ______ ____
ROOT
ATOM      1  S   UNL     1       0.954  -2.967   2.592  0.00  0.00    +0.067 S 
ATOM      2  O   UNL     1      -0.037  -2.332   3.388  0.00  0.00    -0.152 OA
ATOM      3  O   UNL     1       0.809  -4.297   2.112  0.00  0.00    -0.152 OA
ENDROOT
BRANCH   1   9
ATOM      4  C   UNL     1       0.000   1.461   0.301  0.00  0.00    +0.009 C 
ATOM      5  C   UNL     1       0.050  -0.069   0.302  0.00  0.00    +0.005 C 
ATOM      6  C   UNL     1       0.496  -0.567  -1.074  0.00  0.00    +0.006 C 
ATOM      7  C   UNL     1       0.515  -2.097  -1.084  0.00  0.00    +0.017 C 
ATOM      8  C   UNL     1       1.518  -2.598  -0.040  0.00  0.00    +0.110 C 
ATOM      9  N   UNL     1       1.181  -2.006   1.262  0.00  0.00    -0.173 NA
ATOM     10  C   UNL     1       1.047  -0.546   1.363  0.00  0.00    +0.080 C 
ATOM     11  C   UNL     1       0.535  -0.172   2.755  0.00  0.00    +0.026 C 
ENDBRANCH   1   9
BRANCH   1  12
ATOM     12  C   UNL     1       2.449  -2.928   3.524  0.00  0.00    +0.143 A 
ATOM     13  C   UNL     1       2.813  -2.081   4.518  0.00  0.00    +0.036 A 
ATOM     14  C   UNL     1       4.050  -2.240   5.114  0.00  0.00    +0.013 A 
ATOM     15  C   UNL     1       4.862  -3.238   4.687  0.00  0.00    -0.010 A 
ATOM     16  S   UNL     1       3.874  -3.997   3.409  0.00  0.00    -0.074 S 
BRANCH  15  17
ATOM     17  C   UNL     1       6.240  -3.613   5.170  0.00  0.00    +0.023 C 
BRANCH  17  18
ATOM     18  C   UNL     1       6.122  -4.631   6.306  0.00  0.00    -0.081 C 
BRANCH  18  19
ATOM     19  N   UNL     1       7.465  -4.997   6.777  0.00  0.00    +0.378 N 
ATOM     20  H   UNL     1       7.388  -5.668   7.526  0.00  0.00    -0.090 HD
ATOM     21  H   UNL     1       7.990  -5.401   6.016  0.00  0.00    -0.090 HD
ATOM     22  H   UNL     1       7.940  -4.172   7.112  0.00  0.00    -0.090 HD
ENDBRANCH  18  19
ENDBRANCH  17  18
ENDBRANCH  15  17
ENDBRANCH   1  12
TORSDOF 5
