REMARK  Name = ZINC06752992
REMARK  9 active torsions:
REMARK  status: ('A' for Active; 'I' for Inactive)
REMARK    1  A    between atoms: C_1  and  C_2
REMARK    2  A    between atoms: C_2  and  C_3
REMARK    3  A    between atoms: C_3  and  C_4
REMARK    4  A    between atoms: C_4  and  N_5
REMARK    5  A    between atoms: C_6  and  C_23
REMARK    6  A    between atoms: C_9  and  C_16
REMARK    7  A    between atoms: C_21  and  O_22
REMARK    8  A    between atoms: C_26  and  O_29
REMARK    9  A    between atoms: O_29  and  C_30
REMARK                            x       y       z     vdW  Elec       q    Type
REMARK                         _______ _______ _______ _____ _____    ______ ____
ROOT
ATOM      1  N   UNL     1       1.425  -2.500  -2.470  0.00  0.00    -0.285 N 
ATOM      2  C   UNL     1       0.792  -2.783  -3.765  0.00  0.00    +0.141 C 
ATOM      3  C   UNL     1       1.897  -3.236  -4.679  0.00  0.00    +0.035 A 
ATOM      4  C   UNL     1       2.268  -3.677  -5.954  0.00  0.00    +0.102 A 
ATOM      5  N   UNL     1       3.569  -3.885  -5.937  0.00  0.00    -0.173 NA
ATOM      6  N   UNL     1       4.058  -3.619  -4.778  0.00  0.00    -0.272 N 
ATOM      7  H   UNL     1       4.994  -3.700  -4.536  0.00  0.00    +0.189 HD
ATOM      8  C   UNL     1       3.063  -3.205  -3.938  0.00  0.00    +0.126 A 
ATOM      9  C   UNL     1       2.743  -2.744  -2.583  0.00  0.00    +0.265 C 
ATOM     10  O   UNL     1       3.554  -2.603  -1.687  0.00  0.00    -0.268 OA
ENDROOT
BRANCH   4  11
ATOM     11  C   UNL     1       1.361  -3.875  -7.112  0.00  0.00    +0.044 A 
ATOM     12  C   UNL     1      -0.000  -3.610  -6.989  0.00  0.00    +0.014 A 
ATOM     13  C   UNL     1      -0.839  -3.795  -8.069  0.00  0.00    +0.001 A 
ATOM     14  C   UNL     1      -0.332  -4.245  -9.276  0.00  0.00    +0.004 A 
ATOM     15  C   UNL     1       1.017  -4.511  -9.409  0.00  0.00    +0.046 A 
ATOM     16  C   UNL     1       1.871  -4.323  -8.334  0.00  0.00    +0.126 A 
BRANCH  16  17
ATOM     17  O   UNL     1       3.199  -4.580  -8.466  0.00  0.00    -0.506 OA
ATOM     18  H   UNL     1       3.447  -5.490  -8.254  0.00  0.00    +0.292 HD
ENDBRANCH  16  17
ENDBRANCH   4  11
BRANCH   2  19
ATOM     19  C   UNL     1       0.146  -1.535  -4.310  0.00  0.00    -0.022 A 
ATOM     20  C   UNL     1       0.785  -0.315  -4.185  0.00  0.00    +0.009 A 
ATOM     21  C   UNL     1       0.194   0.830  -4.683  0.00  0.00    +0.046 A 
ATOM     22  C   UNL     1      -1.041   0.755  -5.310  0.00  0.00    +0.120 A 
ATOM     23  C   UNL     1      -1.680  -0.470  -5.435  0.00  0.00    +0.046 A 
ATOM     24  C   UNL     1      -1.083  -1.613  -4.940  0.00  0.00    +0.009 A 
BRANCH  22  25
ATOM     25  O   UNL     1      -1.624   1.881  -5.801  0.00  0.00    -0.495 OA
ATOM     26  C   UNL     1      -2.896   1.729  -6.434  0.00  0.00    +0.277 C 
ENDBRANCH  22  25
ENDBRANCH   2  19
BRANCH   1  27
ATOM     27  C   UNL     1       0.739  -2.027  -1.265  0.00  0.00    +0.109 C 
BRANCH  27  28
ATOM     28  C   UNL     1       0.718  -0.497  -1.257  0.00  0.00    +0.019 C 
BRANCH  28  30
ATOM     29  C   UNL     1      -0.019   1.526   0.010  0.00  0.00    +0.004 C 
ATOM     30  C   UNL     1       0.002  -0.004   0.002  0.00  0.00    -0.002 C 
ENDBRANCH  28  30
ENDBRANCH  27  28
ENDBRANCH   1  27
TORSDOF 7
