REMARK  Name = ZINC02220452
REMARK  13 active torsions:
REMARK  status: ('A' for Active; 'I' for Inactive)
REMARK    1  A    between atoms: C_1  and  C_2
REMARK    2  A    between atoms: C_6  and  C_8
REMARK    3  A    between atoms: C_8  and  S_9
REMARK    4  A    between atoms: S_9  and  C_10
REMARK    5  A    between atoms: C_13  and  C_15
REMARK    6  A    between atoms: C_15  and  C_17
REMARK    7  A    between atoms: C_15  and  N_28
REMARK    8  A    between atoms: C_17  and  C_18
REMARK    9  A    between atoms: C_29  and  O_31
REMARK   10  A    between atoms: O_31  and  C_32
REMARK   11  A    between atoms: C_32  and  C_33
REMARK   12  A    between atoms: C_32  and  C_34
REMARK   13  A    between atoms: C_32  and  C_35
REMARK                            x       y       z     vdW  Elec       q    Type
REMARK                         _______ _______ _______ _____ _____    ______ ____
ROOT
ATOM      1  C   UNL     1      -0.171  11.213  -2.242  0.00  0.00    +0.168 C 
ENDROOT
BRANCH   1   5
ATOM      2  C   UNL     1      -0.116   7.696  -1.371  0.00  0.00    +0.278 A 
ATOM      3  N   UNL     1      -0.118   8.283  -0.198  0.00  0.00    -0.101 NA
ATOM      4  N   UNL     1      -0.132   9.559  -0.361  0.00  0.00    -0.110 NA
ATOM      5  C   UNL     1      -0.147   9.836  -1.632  0.00  0.00    +0.239 A 
ATOM      6  O   UNL     1      -0.137   8.668  -2.303  0.00  0.00    -0.414 OA
BRANCH   2   7
ATOM      7  S   UNL     1      -0.095   5.960  -1.671  0.00  0.00    -0.061 S 
BRANCH   7   8
ATOM      8  C   UNL     1      -0.070   5.347   0.032  0.00  0.00    +0.114 C 
BRANCH   8  14
ATOM      9  C   UNL     1      -2.514   0.980   0.019  0.00  0.00    +0.044 C 
ATOM     10  C   UNL     1      -1.219   1.751   0.017  0.00  0.00    -0.050 A 
ATOM     11  C   UNL     1      -0.013   1.076   0.008  0.00  0.00    +0.003 A 
ATOM     12  C   UNL     1       1.175   1.783   0.000  0.00  0.00    +0.001 A 
ATOM     13  C   UNL     1       1.156   3.166   0.008  0.00  0.00    +0.004 A 
ATOM     14  C   UNL     1      -0.050   3.840   0.023  0.00  0.00    -0.037 A 
ATOM     15  C   UNL     1      -1.238   3.133   0.030  0.00  0.00    +0.007 A 
ENDBRANCH   8  14
ENDBRANCH   7   8
ENDBRANCH   2   7
ENDBRANCH   1   5
BRANCH   1  16
ATOM     16  N   UNL     1      -1.153  12.043  -1.539  0.00  0.00    -0.269 N 
ATOM     17  C   UNL     1      -1.016  12.274  -0.218  0.00  0.00    +0.401 C 
ATOM     18  O   UNL     1      -0.079  11.795   0.389  0.00  0.00    -0.226 OA
ATOM     19  H   UNL     1      -1.901  12.425  -2.023  0.00  0.00    +0.153 HD
BRANCH  17  20
ATOM     20  O   UNL     1      -1.918  13.036   0.429  0.00  0.00    -0.445 OA
BRANCH  20  21
ATOM     21  C   UNL     1      -1.708  13.243   1.850  0.00  0.00    +0.107 C 
ATOM     22  C   UNL     1      -0.357  13.928   2.072  0.00  0.00    +0.055 C 
ATOM     23  C   UNL     1      -2.825  14.128   2.408  0.00  0.00    +0.055 C 
ATOM     24  C   UNL     1      -1.719  11.893   2.570  0.00  0.00    +0.055 C 
ENDBRANCH  20  21
ENDBRANCH  17  20
ENDBRANCH   1  16
BRANCH   1  25
ATOM     25  C   UNL     1       1.215  11.850  -2.120  0.00  0.00    +0.069 C 
BRANCH  25  26
ATOM     26  C   UNL     1       1.225  13.175  -2.838  0.00  0.00    -0.020 A 
ATOM     27  C   UNL     1       1.625  13.396  -4.100  0.00  0.00    +0.087 A 
ATOM     28  N   UNL     1       1.490  14.723  -4.406  0.00  0.00    -0.360 N 
ATOM     29  H   UNL     1       1.716  15.123  -5.261  0.00  0.00    +0.165 HD
ATOM     30  C   UNL     1       0.986  15.405  -3.321  0.00  0.00    +0.047 A 
ATOM     31  C   UNL     1       0.792  14.464  -2.293  0.00  0.00    +0.003 A 
ATOM     32  C   UNL     1       0.290  14.876  -1.058  0.00  0.00    +0.010 A 
ATOM     33  C   UNL     1      -0.020  16.192  -0.856  0.00  0.00    +0.001 A 
ATOM     34  C   UNL     1       0.164  17.123  -1.869  0.00  0.00    +0.002 A 
ATOM     35  C   UNL     1       0.663  16.738  -3.094  0.00  0.00    +0.026 A 
ENDBRANCH  25  26
ENDBRANCH   1  25
TORSDOF 9
