REMARK  Name = ZINC39024400
REMARK  10 active torsions:
REMARK  status: ('A' for Active; 'I' for Inactive)
REMARK    1  A    between atoms: C_1  and  C_2
REMARK    2  A    between atoms: C_2  and  C_3
REMARK    3  A    between atoms: C_3  and  C_4
REMARK    4  A    between atoms: C_4  and  C_5
REMARK    5  A    between atoms: C_5  and  C_6
REMARK    6  A    between atoms: C_6  and  N_7
REMARK    7  A    between atoms: C_14  and  O_39
REMARK    8  A    between atoms: C_16  and  C_20
REMARK    9  A    between atoms: C_20  and  N_22
REMARK   10  A    between atoms: C_26  and  C_29
REMARK                            x       y       z     vdW  Elec       q    Type
REMARK                         _______ _______ _______ _____ _____    ______ ____
ROOT
ATOM      1  N   UNL     1       2.162  -4.523  -3.738  0.00  0.00    -0.270 N 
ATOM      2  C   UNL     1       1.431  -4.753  -4.907  0.00  0.00    +0.042 A 
ATOM      3  C   UNL     1       0.171  -4.190  -5.066  0.00  0.00    +0.024 A 
ATOM      4  C   UNL     1      -0.545  -4.420  -6.224  0.00  0.00    +0.002 A 
ATOM      5  C   UNL     1      -0.009  -5.210  -7.225  0.00  0.00    +0.000 A 
ATOM      6  C   UNL     1       1.245  -5.771  -7.070  0.00  0.00    +0.008 A 
ATOM      7  C   UNL     1       1.966  -5.545  -5.915  0.00  0.00    +0.003 A 
ATOM      8  C   UNL     1       3.333  -6.154  -5.742  0.00  0.00    +0.167 C 
ATOM      9  C   UNL     1       4.220  -5.202  -4.941  0.00  0.00    +0.196 C 
ATOM     10  C   UNL     1       3.491  -4.728  -3.713  0.00  0.00    +0.235 C 
ATOM     11  O   UNL     1       4.109  -4.534  -2.688  0.00  0.00    -0.274 OA
ENDROOT
BRANCH   9  12
ATOM     12  C   UNL     1       5.481  -5.918  -4.531  0.00  0.00    +0.253 C 
ATOM     13  O   UNL     1       5.652  -7.079  -4.850  0.00  0.00    -0.273 OA
BRANCH  12  14
ATOM     14  N   UNL     1       6.405  -5.282  -3.822  0.00  0.00    -0.156 NA
ATOM     15  C   UNL     1       7.521  -5.916  -3.459  0.00  0.00    +0.163 A 
ATOM     16  N   UNL     1       7.889  -7.198  -3.724  0.00  0.00    -0.339 N 
ATOM     17  H   UNL     1       7.309  -7.781  -4.238  0.00  0.00    +0.167 HD
ATOM     18  C   UNL     1       9.083  -7.649  -3.254  0.00  0.00    +0.031 A 
ATOM     19  C   UNL     1       9.830  -6.789  -2.553  0.00  0.00    +0.070 A 
ATOM     20  S   UNL     1       8.819  -5.321  -2.569  0.00  0.00    -0.060 S 
BRANCH  18  21
ATOM     21  C   UNL     1       9.546  -9.059  -3.514  0.00  0.00    +0.012 C 
ATOM     22  C   UNL     1       9.652  -9.292  -5.022  0.00  0.00    +0.016 C 
ATOM     23  C   UNL     1      10.121 -10.724  -5.286  0.00  0.00    -0.010 C 
ATOM     24  C   UNL     1      11.492 -10.938  -4.639  0.00  0.00    +0.007 C 
ATOM     25  C   UNL     1      11.386 -10.706  -3.131  0.00  0.00    -0.010 C 
ATOM     26  C   UNL     1      10.916  -9.273  -2.867  0.00  0.00    +0.016 C 
ATOM     27  C   UNL     1      10.380 -11.691  -2.532  0.00  0.00    +0.007 C 
ATOM     28  C   UNL     1       9.010 -11.476  -3.178  0.00  0.00    -0.010 C 
ATOM     29  C   UNL     1       9.116 -11.709  -4.687  0.00  0.00    +0.007 C 
ATOM     30  C   UNL     1       8.540 -10.044  -2.915  0.00  0.00    +0.016 C 
ENDBRANCH  18  21
ENDBRANCH  12  14
ENDBRANCH   9  12
BRANCH   8  31
ATOM     31  O   UNL     1       3.216  -7.396  -5.045  0.00  0.00    -0.386 OA
ATOM     32  H   UNL     1       2.666  -8.051  -5.496  0.00  0.00    +0.210 HD
ENDBRANCH   8  31
BRANCH   1  33
ATOM     33  C   UNL     1       1.476  -4.051  -2.532  0.00  0.00    +0.114 C 
BRANCH  33  34
ATOM     34  C   UNL     1       1.455  -2.521  -2.524  0.00  0.00    +0.019 C 
BRANCH  34  35
ATOM     35  C   UNL     1       0.739  -2.027  -1.265  0.00  0.00    +0.002 C 
BRANCH  35  36
ATOM     36  C   UNL     1       0.718  -0.497  -1.257  0.00  0.00    -0.000 C 
BRANCH  36  38
ATOM     37  C   UNL     1      -0.019   1.526   0.010  0.00  0.00    +0.004 C 
ATOM     38  C   UNL     1       0.002  -0.004   0.002  0.00  0.00    -0.003 C 
ENDBRANCH  36  38
ENDBRANCH  35  36
ENDBRANCH  34  35
ENDBRANCH  33  34
ENDBRANCH   1  33
TORSDOF 9
