REMARK  Name = ZINC40947995
REMARK  6 active torsions:
REMARK  status: ('A' for Active; 'I' for Inactive)
REMARK    1  A    between atoms: C_1  and  C_2
REMARK    2  A    between atoms: C_2  and  O_3
REMARK    3  A    between atoms: O_3  and  C_4
REMARK    4  A    between atoms: C_4  and  C_6
REMARK    5  A    between atoms: C_10  and  N_11
REMARK    6  A    between atoms: C_12  and  C_14
REMARK                            x       y       z     vdW  Elec       q    Type
REMARK                         _______ _______ _______ _____ _____    ______ ____
ROOT
ATOM      1  C   UNL     1       1.449  -2.344  -2.516  0.00  0.00    +0.091 A 
ATOM      2  C   UNL     1       2.876  -2.619  -2.515  0.00  0.00    -0.021 A 
ATOM      3  C   UNL     1       3.342  -3.117  -3.680  0.00  0.00    -0.004 A 
ATOM      4  S   UNL     1       1.922  -3.212  -4.730  0.00  0.00    -0.077 S 
ATOM      5  C   UNL     1       0.750  -2.624  -3.682  0.00  0.00    +0.087 A 
ATOM      6  C   UNL     1       4.757  -3.498  -3.993  0.00  0.00    +0.043 C 
ATOM      7  C   UNL     1       5.669  -2.887  -2.920  0.00  0.00    +0.005 C 
ATOM      8  C   UNL     1       5.082  -3.191  -1.538  0.00  0.00    +0.005 C 
ATOM      9  C   UNL     1       3.799  -2.383  -1.329  0.00  0.00    +0.037 C 
ENDROOT
BRANCH   5  10
ATOM     10  N   UNL     1      -0.603  -2.455  -3.925  0.00  0.00    -0.275 N 
ATOM     11  C   UNL     1      -1.117  -2.783  -5.127  0.00  0.00    +0.255 C 
ATOM     12  O   UNL     1      -0.393  -3.227  -5.998  0.00  0.00    -0.269 OA
ATOM     13  H   UNL     1      -1.180  -2.101  -3.230  0.00  0.00    +0.156 HD
BRANCH  11  14
ATOM     14  C   UNL     1      -2.547  -2.604  -5.384  0.00  0.00    +0.076 A 
ATOM     15  C   UNL     1      -3.270  -2.881  -6.536  0.00  0.00    +0.037 A 
ATOM     16  C   UNL     1      -4.615  -2.606  -6.478  0.00  0.00    +0.040 A 
ATOM     17  C   UNL     1      -5.134  -2.096  -5.331  0.00  0.00    +0.070 A 
ATOM     18  S   UNL     1      -3.815  -1.982  -4.297  0.00  0.00    -0.076 S 
ATOM     19 BR   UNL     1      -6.932  -1.629  -4.977  0.00  0.00    -0.041 Br
ATOM     20 BR   UNL     1      -5.726  -2.931  -7.972  0.00  0.00    -0.049 Br
ENDBRANCH  11  14
ENDBRANCH   5  10
BRANCH   1  21
ATOM     21  C   UNL     1       0.776  -1.800  -1.335  0.00  0.00    +0.342 C 
ATOM     22  O   UNL     1       0.312  -2.552  -0.499  0.00  0.00    -0.245 OA
BRANCH  21  23
ATOM     23  O   UNL     1       0.671  -0.465  -1.174  0.00  0.00    -0.461 OA
BRANCH  23  25
ATOM     24  C   UNL     1      -0.019   1.526   0.010  0.00  0.00    +0.048 C 
ATOM     25  C   UNL     1       0.002  -0.004   0.002  0.00  0.00    +0.229 C 
ENDBRANCH  23  25
ENDBRANCH  21  23
ENDBRANCH   1  21
TORSDOF 5
