REMARK  Name = ZINC38732108
REMARK  6 active torsions:
REMARK  status: ('A' for Active; 'I' for Inactive)
REMARK    1  A    between atoms: C_4  and  C_7
REMARK    2  A    between atoms: C_7  and  O_8
REMARK    3  A    between atoms: O_8  and  C_9
REMARK    4  A    between atoms: C_9  and  C_11
REMARK    5  A    between atoms: C_17  and  C_19
REMARK    6  A    between atoms: C_25  and  C_27
REMARK                            x       y       z     vdW  Elec       q    Type
REMARK                         _______ _______ _______ _____ _____    ______ ____
ROOT
ATOM      1  C   UNL     1       8.725  -4.405   2.186  0.00  0.00    +0.087 C 
ATOM      2  C   UNL     1       9.384  -4.751   3.523  0.00  0.00    +0.013 C 
ATOM      3  C   UNL     1      10.775  -5.336   3.270  0.00  0.00    +0.001 C 
ATOM      4  C   UNL     1      10.649  -6.602   2.420  0.00  0.00    +0.001 C 
ATOM      5  C   UNL     1       9.991  -6.255   1.083  0.00  0.00    +0.013 C 
ATOM      6  C   UNL     1       8.600  -5.671   1.336  0.00  0.00    +0.087 C 
ENDROOT
BRANCH   6   7
ATOM      7  C   UNL     1       7.754  -6.683   2.065  0.00  0.00    +0.219 C 
ATOM      8  O   UNL     1       7.612  -6.601   3.267  0.00  0.00    -0.275 OA
ATOM      9  N   UNL     1       7.157  -7.679   1.381  0.00  0.00    -0.298 N 
ATOM     10  C   UNL     1       7.231  -7.729  -0.086  0.00  0.00    +0.126 C 
ATOM     11  C   UNL     1       7.803  -9.090  -0.501  0.00  0.00    +0.125 C 
ATOM     12  N   UNL     1       7.066 -10.146   0.207  0.00  0.00    -0.314 N 
ATOM     13  C   UNL     1       6.992 -10.095   1.674  0.00  0.00    +0.125 C 
ATOM     14  C   UNL     1       6.424  -8.738   2.090  0.00  0.00    +0.126 C 
ATOM     15  C   UNL     1       6.449 -11.173  -0.497  0.00  0.00    +0.099 A 
ATOM     16  C   UNL     1       6.659 -11.291  -1.868  0.00  0.00    +0.042 A 
ATOM     17  C   UNL     1       6.039 -12.318  -2.557  0.00  0.00    +0.005 A 
ATOM     18  C   UNL     1       5.228 -13.196  -1.850  0.00  0.00    +0.018 A 
ATOM     19  C   UNL     1       5.064 -13.019  -0.490  0.00  0.00    +0.084 A 
ATOM     20  N   UNL     1       5.672 -12.033   0.142  0.00  0.00    -0.350 N 
ATOM     21  H   UNL     1       5.544 -11.934   1.098  0.00  0.00    +0.166 HD
ENDBRANCH   6   7
BRANCH   1  27
ATOM     22  C   UNL     1       5.958  -1.843   3.060  0.00  0.00    +0.185 C 
ATOM     23  C   UNL     1       6.297  -0.443   3.615  0.00  0.00    +0.035 C 
ATOM     24  C   UNL     1       7.697  -0.650   4.250  0.00  0.00    +0.021 C 
ATOM     25  C   UNL     1       8.335  -1.667   3.271  0.00  0.00    +0.109 C 
ATOM     26  N   UNL     1       7.227  -2.563   2.881  0.00  0.00    -0.288 N 
ATOM     27  C   UNL     1       7.355  -3.829   2.435  0.00  0.00    +0.220 C 
ATOM     28  O   UNL     1       6.368  -4.504   2.234  0.00  0.00    -0.275 OA
BRANCH  22  29
ATOM     29  C   UNL     1       5.251  -1.711   1.736  0.00  0.00    +0.328 C 
ATOM     30  O   UNL     1       5.748  -2.176   0.737  0.00  0.00    -0.249 OA
BRANCH  29  31
ATOM     31  O   UNL     1       4.070  -1.078   1.665  0.00  0.00    -0.459 OA
BRANCH  31  32
ATOM     32  C   UNL     1       3.457  -0.991   0.377  0.00  0.00    +0.267 C 
BRANCH  32  36
ATOM     33  C   UNL     1      -0.252   1.104   0.704  0.00  0.00    +0.000 A 
ATOM     34  C   UNL     1       0.915   1.800   0.452  0.00  0.00    +0.000 A 
ATOM     35  C   UNL     1       2.115   1.123   0.347  0.00  0.00    +0.007 A 
ATOM     36  C   UNL     1       2.148  -0.252   0.493  0.00  0.00    -0.010 A 
ATOM     37  C   UNL     1       0.981  -0.948   0.746  0.00  0.00    +0.007 A 
ATOM     38  C   UNL     1      -0.219  -0.271   0.850  0.00  0.00    +0.000 A 
ENDBRANCH  32  36
ENDBRANCH  31  32
ENDBRANCH  29  31
ENDBRANCH  22  29
ENDBRANCH   1  27
TORSDOF 6
