REMARK  Name = ZINC38767978
REMARK  7 active torsions:
REMARK  status: ('A' for Active; 'I' for Inactive)
REMARK    1  A    between atoms: C_3  and  N_32
REMARK    2  A    between atoms: C_6  and  C_7
REMARK    3  A    between atoms: C_7  and  O_8
REMARK    4  A    between atoms: O_8  and  C_9
REMARK    5  A    between atoms: C_12  and  C_16
REMARK    6  A    between atoms: C_13  and  O_15
REMARK    7  A    between atoms: C_18  and  C_22
REMARK                            x       y       z     vdW  Elec       q    Type
REMARK                         _______ _______ _______ _____ _____    ______ ____
ROOT
ATOM      1  C   UNL     1      -2.874  -1.700  -1.505  0.00  0.00    +0.124 A 
ATOM      2  C   UNL     1      -3.593  -2.134  -0.400  0.00  0.00    +0.046 A 
ATOM      3  C   UNL     1      -4.772  -2.834  -0.573  0.00  0.00    +0.013 A 
ATOM      4  C   UNL     1      -5.237  -3.104  -1.846  0.00  0.00    +0.022 A 
ATOM      5  C   UNL     1      -4.521  -2.673  -2.954  0.00  0.00    +0.126 A 
ATOM      6  C   UNL     1      -3.342  -1.965  -2.783  0.00  0.00    +0.091 A 
ENDROOT
BRANCH   4   7
ATOM      7  C   UNL     1      -6.522  -3.869  -2.031  0.00  0.00    +0.164 C 
ATOM      8  C   UNL     1      -7.683  -2.920  -2.275  0.00  0.00    +0.008 C 
ATOM      9  C   UNL     1      -8.511  -3.154  -1.229  0.00  0.00    +0.139 C 
ATOM     10  N   UNL     1      -8.000  -4.094  -0.425  0.00  0.00    -0.185 NA
ATOM     11  N   UNL     1      -6.908  -4.551  -0.784  0.00  0.00    -0.297 N 
ATOM     12  H   UNL     1      -6.395  -5.235  -0.326  0.00  0.00    +0.183 HD
BRANCH   8  13
ATOM     13  C   UNL     1      -7.864  -1.971  -3.384  0.00  0.00    -0.014 A 
ATOM     14  C   UNL     1      -8.021  -2.441  -4.692  0.00  0.00    +0.012 A 
ATOM     15  C   UNL     1      -8.189  -1.549  -5.728  0.00  0.00    +0.050 A 
ATOM     16  C   UNL     1      -8.203  -0.181  -5.480  0.00  0.00    +0.162 A 
ATOM     17  C   UNL     1      -8.049   0.294  -4.180  0.00  0.00    +0.163 A 
ATOM     18  C   UNL     1      -7.885  -0.595  -3.133  0.00  0.00    +0.057 A 
ATOM     19  O   UNL     1      -8.069   1.631  -3.920  0.00  0.00    -0.485 OA
ATOM     20  C   UNL     1      -7.869   2.506  -5.036  0.00  0.00    +0.270 C 
ATOM     21  C   UNL     1      -8.753   2.019  -6.192  0.00  0.00    +0.270 C 
ATOM     22  O   UNL     1      -8.366   0.680  -6.520  0.00  0.00    -0.485 OA
ENDBRANCH   8  13
ENDBRANCH   4   7
BRANCH   5  23
ATOM     23  O   UNL     1      -4.980  -2.939  -4.205  0.00  0.00    -0.506 OA
ATOM     24  H   UNL     1      -5.564  -2.257  -4.564  0.00  0.00    +0.292 HD
ENDBRANCH   5  23
BRANCH   1  25
ATOM     25  O   UNL     1      -1.715  -1.012  -1.334  0.00  0.00    -0.487 OA
BRANCH  25  26
ATOM     26  C   UNL     1      -1.293  -0.775   0.010  0.00  0.00    +0.264 C 
BRANCH  26  32
ATOM     27  C   UNL     1      -0.017   1.378   0.010  0.00  0.00    +0.009 A 
ATOM     28  C   UNL     1       1.171   2.086   0.002  0.00  0.00    +0.033 A 
ATOM     29  C   UNL     1       2.377   1.411  -0.013  0.00  0.00    +0.126 A 
ATOM     30  C   UNL     1       2.396   0.029  -0.020  0.00  0.00    +0.033 A 
ATOM     31  C   UNL     1       1.208  -0.679  -0.012  0.00  0.00    +0.009 A 
ATOM     32  C   UNL     1       0.002  -0.004   0.002  0.00  0.00    -0.010 A 
BRANCH  29  33
ATOM     33  N   UNL     1       3.649   2.168  -0.022  0.00  0.00    +0.056 N 
ATOM     34  O   UNL     1       3.633   3.377  -0.016  0.00  0.00    -0.126 OA
ATOM     35  O   UNL     1       4.704   1.578  -0.035  0.00  0.00    -0.126 OA
ENDBRANCH  29  33
ENDBRANCH  26  32
ENDBRANCH  25  26
ENDBRANCH   1  25
TORSDOF 7
