REMARK  Name = ZINC12182323
REMARK  6 active torsions:
REMARK  status: ('A' for Active; 'I' for Inactive)
REMARK    1  A    between atoms: C_4  and  C_7
REMARK    2  A    between atoms: C_14  and  C_15
REMARK    3  A    between atoms: C_14  and  N_65
REMARK    4  A    between atoms: C_18  and  C_23
REMARK    5  A    between atoms: N_25  and  C_26
REMARK    6  A    between atoms: C_26  and  C_27
REMARK                            x       y       z     vdW  Elec       q    Type
REMARK                         _______ _______ _______ _____ _____    ______ ____
ROOT
ATOM      1  C   UNL     1      -2.500   2.403  -5.805  0.00  0.00    +0.003 A 
ATOM      2  C   UNL     1      -1.391   1.639  -5.975  0.00  0.00    +0.020 A 
ATOM      3  C   UNL     1      -0.633   1.250  -4.870  0.00  0.00    +0.020 A 
ATOM      4  C   UNL     1      -1.038   1.651  -3.599  0.00  0.00    +0.101 A 
ATOM      5  C   UNL     1      -2.204   2.450  -3.473  0.00  0.00    +0.261 A 
ATOM      6  O   UNL     1      -2.577   2.818  -2.372  0.00  0.00    -0.267 OA
ATOM      7  N   UNL     1      -2.897   2.801  -4.573  0.00  0.00    -0.327 N 
ATOM      8  H   UNL     1      -3.693   3.348  -4.481  0.00  0.00    +0.169 HD
ENDROOT
BRANCH   4   9
ATOM      9  C   UNL     1      -0.268   1.258  -2.409  0.00  0.00    +0.250 C 
ATOM     10  O   UNL     1       0.789   0.670  -2.536  0.00  0.00    -0.270 OA
ATOM     11  N   UNL     1      -0.733   1.550  -1.178  0.00  0.00    -0.307 N 
ATOM     12  H   UNL     1      -1.538   2.083  -1.078  0.00  0.00    +0.149 HD
BRANCH  11  13
ATOM     13  C   UNL     1      -0.025   1.063   0.007  0.00  0.00    +0.141 C 
BRANCH  13  14
ATOM     14  C   UNL     1      -0.745   1.525   1.248  0.00  0.00    -0.012 A 
ATOM     15  C   UNL     1      -0.413   2.716   1.828  0.00  0.00    +0.016 A 
ATOM     16  C   UNL     1      -1.115   3.111   2.982  0.00  0.00    +0.001 A 
ATOM     17  C   UNL     1      -0.833   4.325   3.630  0.00  0.00    +0.010 A 
ATOM     18  C   UNL     1      -1.530   4.668   4.748  0.00  0.00    +0.001 A 
ATOM     19  C   UNL     1      -2.520   3.831   5.259  0.00  0.00    +0.002 A 
ATOM     20  C   UNL     1      -2.819   2.648   4.656  0.00  0.00    +0.028 A 
ATOM     21  C   UNL     1      -2.122   2.259   3.500  0.00  0.00    +0.071 A 
ATOM     22  N   UNL     1      -2.393   1.102   2.887  0.00  0.00    -0.255 NA
ATOM     23  C   UNL     1      -1.745   0.734   1.808  0.00  0.00    +0.116 A 
ENDBRANCH  13  14
ENDBRANCH  11  13
ENDBRANCH   4   9
BRANCH   1  24
ATOM     24  C   UNL     1      -3.304   2.817  -7.011  0.00  0.00    -0.025 C 
BRANCH  24  31
ATOM     25  C   UNL     1      -6.988   0.745  -7.579  0.00  0.00    +0.017 C 
ATOM     26  C   UNL     1      -7.328   1.205  -6.187  0.00  0.00    +0.006 C 
ATOM     27  C   UNL     1      -6.853   2.664  -6.013  0.00  0.00    -0.018 C 
ATOM     28  C   UNL     1      -5.411   2.738  -5.805  0.00  0.00    -0.078 C 
ATOM     29  C   UNL     1      -4.540   0.768  -6.829  0.00  0.00    -0.078 C 
ATOM     30  C   UNL     1      -5.614   0.048  -7.665  0.00  0.00    -0.011 C 
ATOM     31  N   UNL     1      -4.651   2.204  -6.959  0.00  0.00    +0.383 N 
ATOM     32  H   UNL     1      -5.153   2.426  -7.826  0.00  0.00    -0.081 HD
BRANCH  25  36
ATOM     33  C   UNL     1      -9.998  -1.982  -8.901  0.00  0.00    +0.000 A 
ATOM     34  C   UNL     1      -9.768  -0.813  -9.603  0.00  0.00    +0.000 A 
ATOM     35  C   UNL     1      -8.794   0.069  -9.175  0.00  0.00    +0.004 A 
ATOM     36  C   UNL     1      -8.050  -0.217  -8.045  0.00  0.00    -0.044 A 
ATOM     37  C   UNL     1      -8.277  -1.388  -7.347  0.00  0.00    +0.004 A 
ATOM     38  C   UNL     1      -9.254  -2.268  -7.772  0.00  0.00    +0.000 A 
ENDBRANCH  25  36
ENDBRANCH  24  31
ENDBRANCH   1  24
TORSDOF 6
