REMARK  Name = ZINC40804305
REMARK  7 active torsions:
REMARK  status: ('A' for Active; 'I' for Inactive)
REMARK    1  A    between atoms: C_1  and  C_2
REMARK    2  A    between atoms: C_5  and  O_8
REMARK    3  A    between atoms: O_8  and  C_9
REMARK    4  A    between atoms: C_9  and  C_11
REMARK    5  A    between atoms: C_12  and  C_30
REMARK    6  A    between atoms: N_20  and  N_21
REMARK    7  A    between atoms: C_22  and  C_24
REMARK                            x       y       z     vdW  Elec       q    Type
REMARK                         _______ _______ _______ _____ _____    ______ ____
ROOT
ATOM      1  C   UNL     1       0.312  -6.226   1.197  0.00  0.00    +0.215 A 
ATOM      2  C   UNL     1       0.434  -6.990   2.325  0.00  0.00    +0.011 A 
ATOM      3  C   UNL     1       0.535  -8.317   1.889  0.00  0.00    +0.042 A 
ATOM      4  C   UNL     1       0.473  -8.306   0.515  0.00  0.00    +0.115 A 
ATOM      5  O   UNL     1       0.332  -7.044   0.119  0.00  0.00    -0.452 OA
ATOM      6  C   UNL     1       0.556  -9.559  -0.319  0.00  0.00    +0.075 C 
ATOM      7  C   UNL     1       1.211 -10.674   0.501  0.00  0.00    +0.014 C 
ATOM      8  C   UNL     1       0.494 -10.849   1.844  0.00  0.00    +0.058 C 
ATOM      9  C   UNL     1       0.683  -9.575   2.654  0.00  0.00    +0.070 C 
ATOM     10  N   UNL     1       0.953  -9.591   3.923  0.00  0.00    -0.184 NA
ATOM     11  C   UNL     1       0.455  -6.502   3.750  0.00  0.00    +0.048 C 
ENDROOT
BRANCH  10  12
ATOM     12  N   UNL     1       1.081 -10.812   4.597  0.00  0.00    -0.203 N 
ATOM     13  C   UNL     1       1.362 -10.828   5.915  0.00  0.00    +0.263 C 
ATOM     14  O   UNL     1       1.505  -9.783   6.519  0.00  0.00    -0.268 OA
ATOM     15  H   UNL     1       0.968 -11.646   4.115  0.00  0.00    +0.178 HD
BRANCH  13  16
ATOM     16  C   UNL     1       1.498 -12.117   6.626  0.00  0.00    +0.038 A 
ATOM     17  C   UNL     1       1.341 -13.319   5.935  0.00  0.00    +0.013 A 
ATOM     18  C   UNL     1       1.468 -14.518   6.604  0.00  0.00    +0.001 A 
ATOM     19  C   UNL     1       1.750 -14.531   7.959  0.00  0.00    +0.000 A 
ATOM     20  C   UNL     1       1.907 -13.343   8.651  0.00  0.00    +0.001 A 
ATOM     21  C   UNL     1       1.788 -12.137   7.992  0.00  0.00    +0.013 A 
ENDBRANCH  13  16
ENDBRANCH  10  12
BRANCH   1  22
ATOM     22  C   UNL     1       0.177  -4.767   1.162  0.00  0.00    +0.380 C 
ATOM     23  O   UNL     1       0.172  -4.132   2.199  0.00  0.00    -0.241 OA
BRANCH  22  24
ATOM     24  O   UNL     1       0.059  -4.129  -0.021  0.00  0.00    -0.420 OA
BRANCH  24  29
ATOM     25  C   UNL     1       0.047   1.503   0.003  0.00  0.00    +0.044 C 
ATOM     26  C   UNL     1       0.051  -0.004  -0.003  0.00  0.00    -0.050 A 
ATOM     27  C   UNL     1       1.209  -0.693   0.305  0.00  0.00    +0.007 A 
ATOM     28  C   UNL     1       1.214  -2.074   0.300  0.00  0.00    +0.046 A 
ATOM     29  C   UNL     1       0.056  -2.770  -0.015  0.00  0.00    +0.132 A 
ATOM     30  C   UNL     1      -1.105  -2.076  -0.324  0.00  0.00    +0.046 A 
ATOM     31  C   UNL     1      -1.107  -0.695  -0.312  0.00  0.00    +0.007 A 
ENDBRANCH  24  29
ENDBRANCH  22  24
ENDBRANCH   1  22
TORSDOF 5
