REMARK  Name = ZINC04657648
REMARK  10 active torsions:
REMARK  status: ('A' for Active; 'I' for Inactive)
REMARK    1  A    between atoms: C_1  and  C_2
REMARK    2  A    between atoms: C_2  and  C_4
REMARK    3  A    between atoms: C_2  and  N_50
REMARK    4  A    between atoms: C_4  and  C_6
REMARK    5  A    between atoms: C_4  and  O_12
REMARK    6  A    between atoms: C_13  and  C_14
REMARK    7  A    between atoms: C_13  and  N_50
REMARK    8  A    between atoms: C_17  and  O_20
REMARK    9  A    between atoms: O_20  and  C_21
REMARK   10  A    between atoms: C_21  and  C_22
REMARK                            x       y       z     vdW  Elec       q    Type
REMARK                         _______ _______ _______ _____ _____    ______ ____
ROOT
ATOM      1  C   UNL     1       2.771   3.554   3.356  0.00  0.00    -0.046 C 
ENDROOT
BRANCH   1   2
ATOM      2  C   UNL     1       4.129   3.065   3.789  0.00  0.00    -0.064 A 
ATOM      3  C   UNL     1       4.355   1.711   3.952  0.00  0.00    +0.005 A 
ATOM      4  C   UNL     1       5.601   1.259   4.343  0.00  0.00    +0.046 A 
ATOM      5  C   UNL     1       6.622   2.167   4.583  0.00  0.00    +0.121 A 
ATOM      6  C   UNL     1       6.391   3.526   4.423  0.00  0.00    +0.046 A 
ATOM      7  C   UNL     1       5.146   3.972   4.027  0.00  0.00    +0.005 A 
BRANCH   5   8
ATOM      8  O   UNL     1       7.847   1.726   4.972  0.00  0.00    -0.487 OA
BRANCH   8   9
ATOM      9  C   UNL     1       8.012   0.313   5.116  0.00  0.00    +0.264 C 
BRANCH   9  10
ATOM     10  C   UNL     1       9.424   0.015   5.551  0.00  0.00    -0.010 A 
ATOM     11  C   UNL     1      10.407  -0.205   4.604  0.00  0.00    +0.008 A 
ATOM     12  C   UNL     1      11.703  -0.474   5.002  0.00  0.00    +0.020 A 
ATOM     13  C   UNL     1      12.014  -0.534   6.349  0.00  0.00    +0.041 A 
ATOM     14  C   UNL     1      11.029  -0.319   7.296  0.00  0.00    +0.020 A 
ATOM     15  C   UNL     1       9.734  -0.045   6.897  0.00  0.00    +0.008 A 
ATOM     16 CL   UNL     1      13.640  -0.877   6.850  0.00  0.00    -0.084 Cl
ENDBRANCH   9  10
ENDBRANCH   8   9
ENDBRANCH   5   8
ENDBRANCH   1   2
BRANCH   1  17
ATOM     17  N   UNL     1       2.728   3.622   1.883  0.00  0.00    +0.385 N 
ATOM     18  H   UNL     1       3.453   4.269   1.552  0.00  0.00    -0.085 HD
ATOM     19  H   UNL     1       2.901   2.686   1.496  0.00  0.00    -0.085 HD
BRANCH  17  21
ATOM     20  C   UNL     1       1.387   5.628   1.439  0.00  0.00    -0.011 C 
ATOM     21  C   UNL     1       1.407   4.098   1.431  0.00  0.00    -0.041 C 
BRANCH  21  22
ATOM     22  C   UNL     1       1.151   3.592   0.010  0.00  0.00    +0.130 C 
BRANCH  22  23
ATOM     23  C   UNL     1       1.171   2.086   0.002  0.00  0.00    -0.021 A 
ATOM     24  C   UNL     1      -0.017   1.378   0.010  0.00  0.00    +0.006 A 
ATOM     25  C   UNL     1       0.002  -0.004   0.002  0.00  0.00    +0.000 A 
ATOM     26  C   UNL     1       1.208  -0.679  -0.014  0.00  0.00    +0.000 A 
ATOM     27  C   UNL     1       2.396   0.029  -0.021  0.00  0.00    +0.000 A 
ATOM     28  C   UNL     1       2.377   1.411  -0.014  0.00  0.00    +0.006 A 
ENDBRANCH  22  23
BRANCH  22  29
ATOM     29  O   UNL     1       2.168   4.087  -0.863  0.00  0.00    -0.389 OA
ATOM     30  H   UNL     1       3.063   3.813  -0.620  0.00  0.00    +0.210 HD
ENDBRANCH  22  29
ENDBRANCH  21  22
ENDBRANCH  17  21
ENDBRANCH   1  17
TORSDOF 9
