REMARK  Name = ZINC55134187
REMARK  3 active torsions:
REMARK  status: ('A' for Active; 'I' for Inactive)
REMARK    1  A    between atoms: C_13  and  C_15
REMARK    2  A    between atoms: C_15  and  C_16
REMARK    3  A    between atoms: C_21  and  N_24
REMARK                            x       y       z     vdW  Elec       q    Type
REMARK                         _______ _______ _______ _____ _____    ______ ____
ROOT
ATOM      1  C   UNL     1      -0.019   1.525   0.010  0.00  0.00    +0.002 C 
ATOM      2  C   UNL     1       1.419   2.050  -0.001  0.00  0.00    +0.003 C 
ATOM      3  C   UNL     1       2.145   1.552   1.250  0.00  0.00    +0.033 C 
ATOM      4  C   UNL     1       2.158   0.027   1.271  0.00  0.00    +0.139 C 
ATOM      5  C   UNL     1       0.728  -0.519   1.248  0.00  0.00    +0.105 C 
ATOM      6  C   UNL     1       0.002  -0.004   0.002  0.00  0.00    +0.025 C 
ATOM      7  N   UNL     1       0.810  -1.990   1.161  0.00  0.00    -0.294 N 
ATOM      8  C   UNL     1       1.650  -2.565   0.097  0.00  0.00    +0.136 C 
ATOM      9  C   UNL     1       3.031  -1.904   0.153  0.00  0.00    +0.179 C 
ATOM     10  O   UNL     1       2.867  -0.482   0.142  0.00  0.00    -0.373 OA
ATOM     11  C   UNL     1       0.140  -2.778   2.024  0.00  0.00    +0.216 C 
ATOM     12  O   UNL     1      -0.546  -2.281   2.892  0.00  0.00    -0.276 OA
ENDROOT
BRANCH  11  13
ATOM     13  C   UNL     1       0.243  -4.277   1.911  0.00  0.00    +0.099 C 
BRANCH  13  14
ATOM     14  C   UNL     1      -0.607  -4.931   3.002  0.00  0.00    -0.004 C 
ATOM     15  C   UNL     1      -0.027  -4.588   4.375  0.00  0.00    +0.004 C 
ATOM     16  C   UNL     1      -0.877  -5.242   5.466  0.00  0.00    -0.001 C 
ATOM     17  C   UNL     1      -0.873  -6.760   5.275  0.00  0.00    -0.016 C 
ATOM     18  C   UNL     1      -1.453  -7.103   3.902  0.00  0.00    -0.075 C 
ATOM     19  C   UNL     1      -0.603  -6.449   2.811  0.00  0.00    -0.012 C 
BRANCH  18  20
ATOM     20  N   UNL     1      -1.449  -8.560   3.719  0.00  0.00    +0.380 N 
ATOM     21  H   UNL     1      -2.010  -8.991   4.439  0.00  0.00    -0.090 HD
ATOM     22  H   UNL     1      -1.832  -8.787   2.813  0.00  0.00    -0.090 HD
ATOM     23  H   UNL     1      -0.502  -8.904   3.779  0.00  0.00    -0.090 HD
ENDBRANCH  18  20
ENDBRANCH  13  14
ENDBRANCH  11  13
TORSDOF 3
