REMARK  Name = ZINC60346973
REMARK  12 active torsions:
REMARK  status: ('A' for Active; 'I' for Inactive)
REMARK    1  A    between atoms: C_1  and  C_2
REMARK    2  A    between atoms: C_2  and  C_4
REMARK    3  A    between atoms: C_2  and  N_8
REMARK    4  A    between atoms: C_4  and  C_5
REMARK    5  A    between atoms: C_5  and  C_6
REMARK    6  A    between atoms: C_5  and  C_7
REMARK    7  A    between atoms: N_8  and  C_9
REMARK    8  A    between atoms: C_19  and  C_21
REMARK    9  A    between atoms: C_21  and  S_22
REMARK   10  A    between atoms: S_22  and  C_23
REMARK   11  A    between atoms: C_26  and  C_32
REMARK   12  A    between atoms: C_28  and  N_29
REMARK                            x       y       z     vdW  Elec       q    Type
REMARK                         _______ _______ _______ _____ _____    ______ ____
ROOT
ATOM      1  N   UNL     1      -1.116  -0.695  -0.340  0.00  0.00    -0.268 N 
ATOM      2  C   UNL     1      -2.194  -0.718   0.470  0.00  0.00    +0.230 C 
ATOM      3  O   UNL     1      -3.087  -1.513   0.267  0.00  0.00    -0.274 OA
ENDROOT
BRANCH   1   4
ATOM      4  C   UNL     1      -1.076  -1.513  -1.476  0.00  0.00    +0.037 A 
ATOM      5  C   UNL     1       0.100  -1.613  -2.218  0.00  0.00    +0.025 A 
ATOM      6  C   UNL     1       0.157  -2.413  -3.337  0.00  0.00    +0.028 A 
ATOM      7  C   UNL     1      -0.966  -3.131  -3.737  0.00  0.00    +0.047 A 
ATOM      8  C   UNL     1      -2.154  -3.034  -2.990  0.00  0.00    +0.001 A 
ATOM      9  C   UNL     1      -2.200  -2.223  -1.854  0.00  0.00    +0.033 A 
ATOM     10  C   UNL     1      -3.128  -3.896  -3.663  0.00  0.00    +0.027 A 
ATOM     11  C   UNL     1      -2.506  -4.438  -4.723  0.00  0.00    +0.083 A 
ATOM     12  N   UNL     1      -1.214  -3.994  -4.784  0.00  0.00    -0.361 N 
ATOM     13  H   UNL     1      -0.569  -4.247  -5.462  0.00  0.00    +0.165 HD
ENDBRANCH   1   4
BRANCH   1  15
ATOM     14  C   UNL     1       1.240  -0.659   0.314  0.00  0.00    +0.028 C 
ATOM     15  C   UNL     1       0.013   0.187  -0.031  0.00  0.00    +0.079 C 
BRANCH  15  16
ATOM     16  C   UNL     1       0.322   1.064  -1.245  0.00  0.00    +0.025 C 
BRANCH  16  17
ATOM     17  C   UNL     1      -0.881   1.960  -1.547  0.00  0.00    -0.015 C 
ATOM     18  C   UNL     1      -1.041   2.993  -0.430  0.00  0.00    +0.007 C 
ATOM     19  C   UNL     1      -0.660   2.679  -2.879  0.00  0.00    +0.007 C 
ENDBRANCH  16  17
ENDBRANCH  15  16
ENDBRANCH   1  15
BRANCH   2  20
ATOM     20  C   UNL     1      -2.289   0.244   1.626  0.00  0.00    +0.170 C 
BRANCH  20  21
ATOM     21  S   UNL     1      -3.751  -0.154   2.624  0.00  0.00    -0.114 S 
BRANCH  21  22
ATOM     22  C   UNL     1      -3.721   1.042   3.918  0.00  0.00    +0.039 A 
ATOM     23  C   UNL     1      -2.705   1.995   3.961  0.00  0.00    +0.018 A 
ATOM     24  C   UNL     1      -2.678   2.924   4.961  0.00  0.00    +0.014 A 
ATOM     25  C   UNL     1      -3.670   2.923   5.946  0.00  0.00    +0.039 A 
ATOM     26  C   UNL     1      -4.691   1.968   5.905  0.00  0.00    +0.047 A 
ATOM     27  C   UNL     1      -4.717   1.038   4.892  0.00  0.00    +0.140 A 
BRANCH  25  28
ATOM     28  C   UNL     1      -3.640   3.926   7.027  0.00  0.00    +0.242 C 
ATOM     29  O   UNL     1      -4.503   3.924   7.883  0.00  0.00    -0.270 OA
ATOM     30  N   UNL     1      -2.655   4.845   7.066  0.00  0.00    -0.325 N 
ATOM     31  H   UNL     1      -1.966   4.847   6.383  0.00  0.00    +0.145 HD
ATOM     32  H   UNL     1      -2.635   5.505   7.776  0.00  0.00    +0.145 HD
ENDBRANCH  25  28
BRANCH  27  33
ATOM     33  N   UNL     1      -5.799   0.028   4.840  0.00  0.00    +0.058 N 
ATOM     34  O   UNL     1      -6.663   0.025   5.686  0.00  0.00    -0.126 OA
ATOM     35  O   UNL     1      -5.818  -0.792   3.953  0.00  0.00    -0.126 OA
ENDBRANCH  27  33
ENDBRANCH  21  22
ENDBRANCH  20  21
ENDBRANCH   2  20
TORSDOF 9
