REMARK  Name = ZINC39324333
REMARK  10 active torsions:
REMARK  status: ('A' for Active; 'I' for Inactive)
REMARK    1  A    between atoms: C_1  and  C_2
REMARK    2  A    between atoms: C_2  and  C_3
REMARK    3  A    between atoms: C_2  and  C_4
REMARK    4  A    between atoms: C_5  and  C_24
REMARK    5  A    between atoms: C_6  and  C_14
REMARK    6  A    between atoms: C_8  and  C_12
REMARK    7  A    between atoms: C_9  and  N_11
REMARK    8  A    between atoms: C_19  and  C_20
REMARK    9  A    between atoms: C_24  and  O_26
REMARK   10  A    between atoms: O_26  and  C_27
REMARK                            x       y       z     vdW  Elec       q    Type
REMARK                         _______ _______ _______ _____ _____    ______ ____
ROOT
ATOM      1  C   UNL     1       0.657  -0.584  -1.235  0.00  0.00    +0.121 C 
ATOM      2  C   UNL     1       1.858  -1.163  -1.109  0.00  0.00    +0.087 C 
ATOM      3  C   UNL     1       2.659  -1.564  -2.318  0.00  0.00    +0.105 C 
ATOM      4  C   UNL     1       1.774  -1.590  -3.534  0.00  0.00    +0.098 C 
ATOM      5  C   UNL     1       0.564  -0.981  -3.525  0.00  0.00    +0.198 C 
ATOM      6  O   UNL     1       0.109  -0.339  -2.435  0.00  0.00    -0.445 OA
ENDROOT
BRANCH   3   7
ATOM      7  C   UNL     1       3.772  -0.572  -2.532  0.00  0.00    -0.023 A 
ATOM      8  C   UNL     1       3.478   0.762  -2.747  0.00  0.00    +0.005 A 
ATOM      9  C   UNL     1       4.499   1.672  -2.944  0.00  0.00    +0.000 A 
ATOM     10  C   UNL     1       5.815   1.250  -2.925  0.00  0.00    +0.001 A 
ATOM     11  C   UNL     1       6.110  -0.083  -2.709  0.00  0.00    +0.012 A 
ATOM     12  C   UNL     1       5.088  -0.993  -2.508  0.00  0.00    +0.059 A 
BRANCH  12  13
ATOM     13  C   UNL     1       5.410  -2.446  -2.268  0.00  0.00    +0.418 C 
ATOM     14  F   UNL     1       6.797  -2.626  -2.288  0.00  0.00    -0.166 F 
ATOM     15  F   UNL     1       4.908  -2.834  -1.021  0.00  0.00    -0.166 F 
ATOM     16  F   UNL     1       4.823  -3.225  -3.270  0.00  0.00    -0.166 F 
ENDBRANCH  12  13
ENDBRANCH   3   7
BRANCH   1  18
ATOM     17  C   UNL     1      -0.252   1.320   0.068  0.00  0.00    +0.015 C 
ATOM     18  C   UNL     1      -0.104  -0.202   0.009  0.00  0.00    +0.050 C 
ATOM     19  C   UNL     1      -1.490  -0.848  -0.023  0.00  0.00    +0.015 C 
ENDBRANCH   1  18
BRANCH   5  20
ATOM     20  N   UNL     1      -0.217  -1.024  -4.653  0.00  0.00    -0.328 N 
ATOM     21  H   UNL     1       0.099  -1.486  -5.445  0.00  0.00    +0.145 HD
ATOM     22  H   UNL     1      -1.085  -0.591  -4.659  0.00  0.00    +0.145 HD
ENDBRANCH   5  20
BRANCH   4  23
ATOM     23  C   UNL     1       2.217  -2.267  -4.716  0.00  0.00    +0.101 C 
ATOM     24  N   UNL     1       2.568  -2.803  -5.654  0.00  0.00    -0.191 NA
ENDBRANCH   4  23
BRANCH   2  25
ATOM     25  C   UNL     1       2.384  -1.402   0.184  0.00  0.00    +0.339 C 
ATOM     26  O   UNL     1       3.214  -0.646   0.652  0.00  0.00    -0.245 OA
BRANCH  25  27
ATOM     27  O   UNL     1       1.963  -2.467   0.897  0.00  0.00    -0.465 OA
ATOM     28  C   UNL     1       2.536  -2.647   2.194  0.00  0.00    +0.280 C 
ENDBRANCH  25  27
ENDBRANCH   2  25
TORSDOF 7
