REMARK  Name = ZINC39732716
REMARK  4 active torsions:
REMARK  status: ('A' for Active; 'I' for Inactive)
REMARK    1  A    between atoms: C_1  and  C_2
REMARK    2  A    between atoms: N_16  and  N_17
REMARK    3  A    between atoms: C_18  and  C_19
REMARK    4  A    between atoms: C_23  and  O_25
REMARK                            x       y       z     vdW  Elec       q    Type
REMARK                         _______ _______ _______ _____ _____    ______ ____
ROOT
ATOM      1  C   UNL     1       1.246   1.921   0.878  0.00  0.00    +0.046 C 
ATOM      2  C   UNL     1       0.727   0.565   0.474  0.00  0.00    -0.027 A 
ATOM      3  C   UNL     1       0.569   0.255  -0.833  0.00  0.00    +0.005 A 
ATOM      4  C   UNL     1       0.091  -0.998  -1.241  0.00  0.00    +0.001 A 
ATOM      5  C   UNL     1      -0.268  -1.959  -0.359  0.00  0.00    +0.012 A 
ATOM      6  C   UNL     1      -0.174  -1.730   1.032  0.00  0.00    +0.025 A 
ATOM      7  C   UNL     1      -0.561  -2.435   2.143  0.00  0.00    +0.115 C 
ATOM      8  C   UNL     1       0.081  -1.714   3.322  0.00  0.00    +0.253 C 
ATOM      9  N   UNL     1       0.472  -0.410   2.803  0.00  0.00    -0.358 N 
ATOM     10  C   UNL     1       0.392  -0.436   1.494  0.00  0.00    +0.049 A 
ATOM     11  N   UNL     1      -0.939  -1.664   4.371  0.00  0.00    -0.220 NA
ATOM     12  C   UNL     1      -1.851  -2.603   4.392  0.00  0.00    +0.227 C 
ATOM     13  N   UNL     1      -1.939  -3.588   3.465  0.00  0.00    -0.247 N 
ATOM     14  N   UNL     1      -1.329  -3.510   2.328  0.00  0.00    -0.171 NA
ATOM     15  N   UNL     1      -2.776  -2.590   5.417  0.00  0.00    -0.206 N 
ATOM     16  H   UNL     1      -3.463  -3.273   5.459  0.00  0.00    +0.177 HD
ATOM     17  H   UNL     1      -2.483  -4.368   3.658  0.00  0.00    +0.192 HD
ATOM     18  H   UNL     1       0.749   0.351   3.337  0.00  0.00    +0.162 HD
ENDROOT
BRANCH  15  19
ATOM     19  N   UNL     1      -2.721  -1.590   6.397  0.00  0.00    -0.188 NA
ATOM     20  C   UNL     1      -3.514  -1.643   7.423  0.00  0.00    +0.138 C 
BRANCH  20  21
ATOM     21  C   UNL     1      -4.115  -2.928   7.825  0.00  0.00    -0.002 A 
ATOM     22  C   UNL     1      -3.628  -4.126   7.296  0.00  0.00    +0.010 A 
ATOM     23  C   UNL     1      -4.193  -5.326   7.675  0.00  0.00    +0.004 A 
ATOM     24  C   UNL     1      -5.241  -5.348   8.577  0.00  0.00    +0.045 A 
ATOM     25  C   UNL     1      -5.732  -4.163   9.107  0.00  0.00    +0.117 A 
ATOM     26  C   UNL     1      -5.170  -2.953   8.739  0.00  0.00    +0.054 A 
BRANCH  25  27
ATOM     27  O   UNL     1      -6.763  -4.191   9.993  0.00  0.00    -0.507 OA
ATOM     28  H   UNL     1      -6.486  -4.260  10.917  0.00  0.00    +0.292 HD
ENDBRANCH  25  27
ENDBRANCH  20  21
ENDBRANCH  15  19
TORSDOF 3
