REMARK  Name = ZINC38684405
REMARK  11 active torsions:
REMARK  status: ('A' for Active; 'I' for Inactive)
REMARK    1  A    between atoms: C_1  and  C_2
REMARK    2  A    between atoms: C_2  and  C_3
REMARK    3  A    between atoms: C_3  and  O_4
REMARK    4  A    between atoms: O_4  and  C_5
REMARK    5  A    between atoms: C_9  and  C_11
REMARK    6  A    between atoms: C_16  and  O_25
REMARK    7  A    between atoms: C_20  and  N_24
REMARK    8  A    between atoms: C_21  and  C_22
REMARK    9  A    between atoms: O_25  and  C_26
REMARK   10  A    between atoms: C_26  and  C_28
REMARK   11  A    between atoms: C_31  and  N_34
REMARK                            x       y       z     vdW  Elec       q    Type
REMARK                         _______ _______ _______ _____ _____    ______ ____
ROOT
ATOM      1  C   UNL     1      -3.898  -6.146   0.045  0.00  0.00    +0.098 C 
ATOM      2  C   UNL     1      -4.628  -6.612   1.277  0.00  0.00    +0.008 A 
ATOM      3  C   UNL     1      -3.950  -6.693   2.480  0.00  0.00    +0.012 A 
ATOM      4  C   UNL     1      -4.604  -7.118   3.620  0.00  0.00    +0.047 A 
ATOM      5  C   UNL     1      -5.946  -7.466   3.561  0.00  0.00    +0.135 A 
ATOM      6  C   UNL     1      -6.628  -7.386   2.357  0.00  0.00    +0.093 A 
ATOM      7  C   UNL     1      -5.969  -6.958   1.212  0.00  0.00    +0.138 A 
ATOM      8  O   UNL     1      -6.651  -6.885   0.042  0.00  0.00    -0.441 OA
ATOM      9  C   UNL     1      -5.981  -6.856  -1.122  0.00  0.00    +0.199 C 
ATOM     10  C   UNL     1      -4.676  -6.514  -1.187  0.00  0.00    +0.098 C 
ENDROOT
BRANCH   1  15
ATOM     11  C   UNL     1      -2.310  -2.719   0.149  0.00  0.00    +0.121 A 
ATOM     12  C   UNL     1      -3.428  -1.899   0.204  0.00  0.00    +0.045 A 
ATOM     13  C   UNL     1      -4.692  -2.457   0.207  0.00  0.00    +0.004 A 
ATOM     14  C   UNL     1      -4.843  -3.831   0.155  0.00  0.00    +0.005 A 
ATOM     15  C   UNL     1      -3.730  -4.649   0.101  0.00  0.00    -0.031 A 
ATOM     16  C   UNL     1      -2.464  -4.096   0.092  0.00  0.00    +0.050 A 
BRANCH  11  17
ATOM     17  O   UNL     1      -1.065  -2.172   0.145  0.00  0.00    -0.492 OA
BRANCH  17  18
ATOM     18  C   UNL     1      -0.982  -0.747   0.206  0.00  0.00    +0.229 C 
BRANCH  18  20
ATOM     19  C   UNL     1       0.576   1.205   0.257  0.00  0.00    +0.007 C 
ATOM     20  C   UNL     1       0.487  -0.321   0.192  0.00  0.00    +0.038 C 
ENDBRANCH  18  20
ENDBRANCH  17  18
ENDBRANCH  11  17
ENDBRANCH   1  15
BRANCH   9  21
ATOM     21  N   UNL     1      -6.644  -7.184  -2.279  0.00  0.00    -0.328 N 
ATOM     22  H   UNL     1      -7.581  -7.431  -2.248  0.00  0.00    +0.145 HD
ATOM     23  H   UNL     1      -6.174  -7.168  -3.128  0.00  0.00    +0.145 HD
ENDBRANCH   9  21
BRANCH  10  24
ATOM     24  C   UNL     1      -4.021  -6.502  -2.460  0.00  0.00    +0.101 C 
ATOM     25  N   UNL     1      -3.501  -6.492  -3.470  0.00  0.00    -0.191 NA
ENDBRANCH  10  24
BRANCH   5  26
ATOM     26  O   UNL     1      -6.590  -7.885   4.682  0.00  0.00    -0.422 OA
BRANCH  26  27
ATOM     27  C   UNL     1      -6.819  -6.982   5.655  0.00  0.00    +0.344 C 
ATOM     28  O   UNL     1      -6.546  -5.812   5.474  0.00  0.00    -0.245 OA
BRANCH  27  29
ATOM     29  C   UNL     1      -7.400  -7.415   6.942  0.00  0.00    +0.060 A 
ATOM     30  C   UNL     1      -7.709  -8.760   7.155  0.00  0.00    +0.017 A 
ATOM     31  C   UNL     1      -8.252  -9.157   8.360  0.00  0.00    +0.033 A 
ATOM     32  C   UNL     1      -8.491  -8.226   9.355  0.00  0.00    +0.126 A 
ATOM     33  C   UNL     1      -8.187  -6.891   9.150  0.00  0.00    +0.033 A 
ATOM     34  C   UNL     1      -7.638  -6.482   7.953  0.00  0.00    +0.017 A 
BRANCH  32  35
ATOM     35  N   UNL     1      -9.075  -8.659  10.644  0.00  0.00    +0.056 N 
ATOM     36  O   UNL     1      -9.341  -9.824  10.826  0.00  0.00    -0.126 OA
ATOM     37  O   UNL     1      -9.284  -7.848  11.516  0.00  0.00    -0.126 OA
ENDBRANCH  32  35
ENDBRANCH  27  29
ENDBRANCH  26  27
ENDBRANCH   5  26
TORSDOF 10
