REMARK  Name = ZINC35036803
REMARK  4 active torsions:
REMARK  status: ('A' for Active; 'I' for Inactive)
REMARK    1  A    between atoms: C_5  and  C_6
REMARK    2  A    between atoms: C_6  and  C_8
REMARK    3  A    between atoms: C_8  and  N_9
REMARK    4  A    between atoms: C_13  and  C_16
REMARK                            x       y       z     vdW  Elec       q    Type
REMARK                         _______ _______ _______ _____ _____    ______ ____
ROOT
ATOM      1  N   UNL     1      -2.104  -3.113   0.006  0.00  0.00    +0.385 N 
ATOM      2  C   UNL     1      -2.832  -2.828  -1.236  0.00  0.00    -0.078 C 
ATOM      3  C   UNL     1      -4.202  -3.510  -1.197  0.00  0.00    -0.018 C 
ATOM      4  C   UNL     1      -4.009  -5.022  -1.052  0.00  0.00    +0.009 C 
ATOM      5  C   UNL     1      -3.184  -5.303   0.208  0.00  0.00    +0.058 C 
ATOM      6  C   UNL     1      -1.853  -4.555   0.117  0.00  0.00    -0.066 C 
ATOM      7  H   UNL     1      -2.655  -2.807   0.794  0.00  0.00    -0.081 HD
ENDROOT
BRANCH   5   8
ATOM      8  C   UNL     1      -2.924  -6.783   0.319  0.00  0.00    +0.212 C 
ATOM      9  O   UNL     1      -1.785  -7.200   0.329  0.00  0.00    -0.276 OA
ATOM     10  N   UNL     1      -3.958  -7.644   0.408  0.00  0.00    -0.329 N 
ATOM     11  H   UNL     1      -4.868  -7.311   0.401  0.00  0.00    +0.145 HD
ATOM     12  H   UNL     1      -3.790  -8.597   0.480  0.00  0.00    +0.145 HD
ENDBRANCH   5   8
BRANCH   1  13
ATOM     13  C   UNL     1      -0.823  -2.393  -0.003  0.00  0.00    +0.003 C 
BRANCH  13  14
ATOM     14  C   UNL     1      -1.081  -0.908   0.008  0.00  0.00    +0.153 C 
ATOM     15  O   UNL     1      -2.221  -0.490   0.021  0.00  0.00    -0.294 OA
BRANCH  14  20
ATOM     16  C   UNL     1      -0.017   1.388   0.010  0.00  0.00    +0.020 A 
ATOM     17  C   UNL     1       1.210   1.999   0.001  0.00  0.00    +0.023 A 
ATOM     18  C   UNL     1       2.332   1.230  -0.014  0.00  0.00    +0.056 A 
ATOM     19  S   UNL     1       1.752  -0.346  -0.017  0.00  0.00    -0.079 S 
ATOM     20  C   UNL     1       0.002  -0.004   0.002  0.00  0.00    +0.054 A 
ATOM     21 BR   UNL     1       4.133   1.805  -0.028  0.00  0.00    -0.043 Br
ENDBRANCH  14  20
ENDBRANCH  13  14
ENDBRANCH   1  13
TORSDOF 4
