REMARK  Name = ZINC20208460
REMARK  9 active torsions:
REMARK  status: ('A' for Active; 'I' for Inactive)
REMARK    1  A    between atoms: C_1  and  C_2
REMARK    2  A    between atoms: C_2  and  S_3
REMARK    3  A    between atoms: S_3  and  C_6
REMARK    4  A    between atoms: C_12  and  C_13
REMARK    5  A    between atoms: C_15  and  C_27
REMARK    6  A    between atoms: N_16  and  C_19
REMARK    7  A    between atoms: C_17  and  C_18
REMARK    8  A    between atoms: C_22  and  O_25
REMARK    9  A    between atoms: O_25  and  C_26
REMARK                            x       y       z     vdW  Elec       q    Type
REMARK                         _______ _______ _______ _____ _____    ______ ____
ROOT
ATOM      1  C   UNL     1       3.395  -4.582   4.010  0.00  0.00    +0.235 C 
ATOM      2  N   UNL     1       3.829  -5.255   2.983  0.00  0.00    -0.145 NA
ATOM      3  N   UNL     1       2.997  -6.097   2.276  0.00  0.00    -0.152 N 
ATOM      4  C   UNL     1       3.385  -6.935   1.209  0.00  0.00    +0.132 C 
ATOM      5  N   UNL     1       4.614  -7.338   1.023  0.00  0.00    -0.385 N 
ATOM      6  C   UNL     1       2.255  -7.316   0.317  0.00  0.00    +0.079 C 
ATOM      7  C   UNL     1       2.433  -7.514  -1.037  0.00  0.00    +0.026 C 
ATOM      8  C   UNL     1       0.928  -7.469   0.960  0.00  0.00    +0.273 C 
ATOM      9  O   UNL     1       0.071  -8.186   0.468  0.00  0.00    -0.268 OA
ATOM     10  N   UNL     1       0.696  -6.795   2.104  0.00  0.00    -0.152 NA
ATOM     11  C   UNL     1       1.677  -6.140   2.671  0.00  0.00    +0.182 C 
ATOM     12  S   UNL     1       1.682  -5.087   4.098  0.00  0.00    -0.015 S 
ATOM     13  H   UNL     1       5.327  -6.995   1.583  0.00  0.00    +0.157 HD
ATOM     14  H   UNL     1       4.813  -7.981   0.324  0.00  0.00    +0.157 HD
ENDROOT
BRANCH   7  15
ATOM     15  C   UNL     1       3.674  -7.191  -1.644  0.00  0.00    -0.003 A 
ATOM     16  C   UNL     1       4.592  -6.108  -1.261  0.00  0.00    +0.031 A 
ATOM     17  C   UNL     1       5.633  -6.177  -2.106  0.00  0.00    +0.022 A 
ATOM     18  N   UNL     1       5.438  -7.211  -2.979  0.00  0.00    -0.317 N 
ATOM     19  C   UNL     1       4.272  -7.834  -2.715  0.00  0.00    +0.028 A 
ATOM     20  C   UNL     1       3.716  -9.021  -3.458  0.00  0.00    +0.064 C 
ATOM     21  C   UNL     1       6.829  -5.260  -2.094  0.00  0.00    +0.064 C 
BRANCH  18  22
ATOM     22  C   UNL     1       6.326  -7.574  -4.002  0.00  0.00    +0.047 A 
ATOM     23  C   UNL     1       5.945  -7.450  -5.331  0.00  0.00    +0.030 A 
ATOM     24  C   UNL     1       6.820  -7.807  -6.337  0.00  0.00    +0.047 A 
ATOM     25  C   UNL     1       8.081  -8.292  -6.020  0.00  0.00    +0.120 A 
ATOM     26  C   UNL     1       8.463  -8.417  -4.692  0.00  0.00    +0.047 A 
ATOM     27  C   UNL     1       7.590  -8.054  -3.685  0.00  0.00    +0.030 A 
BRANCH  25  28
ATOM     28  O   UNL     1       8.942  -8.645  -7.011  0.00  0.00    -0.495 OA
ATOM     29  C   UNL     1      10.223  -9.137  -6.612  0.00  0.00    +0.277 C 
ENDBRANCH  25  28
ENDBRANCH  18  22
ENDBRANCH   7  15
BRANCH   1  30
ATOM     30  S   UNL     1       4.274  -3.467   5.053  0.00  0.00    +0.022 S 
ATOM     31  O   UNL     1       5.643  -3.802   4.871  0.00  0.00    -0.167 OA
ATOM     32  O   UNL     1       3.659  -3.600   6.327  0.00  0.00    -0.167 OA
BRANCH  30  34
ATOM     33  C   UNL     1       4.658  -0.762   5.200  0.00  0.00    +0.028 C 
ATOM     34  C   UNL     1       3.937  -1.822   4.365  0.00  0.00    +0.171 C 
ENDBRANCH  30  34
ENDBRANCH   1  30
TORSDOF 5
