REMARK  Name = ZINC38657628
REMARK  7 active torsions:
REMARK  status: ('A' for Active; 'I' for Inactive)
REMARK    1  A    between atoms: C_1  and  C_2
REMARK    2  A    between atoms: C_7  and  C_8
REMARK    3  A    between atoms: C_8  and  O_10
REMARK    4  A    between atoms: O_10  and  C_11
REMARK    5  A    between atoms: C_18  and  N_34
REMARK    6  A    between atoms: C_19  and  C_32
REMARK    7  A    between atoms: C_20  and  C_22
REMARK                            x       y       z     vdW  Elec       q    Type
REMARK                         _______ _______ _______ _____ _____    ______ ____
ROOT
ATOM      1  C   UNL     1       0.201  -0.289   4.992  0.00  0.00    +0.135 A 
ATOM      2  C   UNL     1       0.066   1.092   4.961  0.00  0.00    +0.047 A 
ATOM      3  C   UNL     1       0.052   1.811   6.140  0.00  0.00    +0.012 A 
ATOM      4  C   UNL     1       0.172   1.159   7.355  0.00  0.00    +0.008 A 
ATOM      5  C   UNL     1       0.308  -0.220   7.391  0.00  0.00    +0.138 A 
ATOM      6  C   UNL     1       0.316  -0.945   6.206  0.00  0.00    +0.093 A 
ATOM      7  O   UNL     1       0.427  -0.876   8.572  0.00  0.00    -0.441 OA
ATOM      8  C   UNL     1       0.799  -0.207   9.676  0.00  0.00    +0.199 C 
ATOM      9  C   UNL     1       0.696   1.140   9.767  0.00  0.00    +0.098 C 
ATOM     10  C   UNL     1       0.155   1.960   8.630  0.00  0.00    +0.098 C 
ENDROOT
BRANCH  10  11
ATOM     11  C   UNL     1      -1.261   2.372   8.941  0.00  0.00    -0.027 A 
ATOM     12  C   UNL     1      -2.199   1.431   9.236  0.00  0.00    +0.005 A 
ATOM     13  C   UNL     1      -3.513   1.792   9.526  0.00  0.00    +0.001 A 
ATOM     14  C   UNL     1      -3.897   3.098   9.522  0.00  0.00    +0.008 A 
ATOM     15  C   UNL     1      -2.957   4.099   9.223  0.00  0.00    -0.018 A 
ATOM     16  C   UNL     1      -1.619   3.731   8.934  0.00  0.00    -0.014 A 
ATOM     17  C   UNL     1      -0.677   4.732   8.639  0.00  0.00    +0.009 A 
ATOM     18  C   UNL     1      -1.060   6.038   8.642  0.00  0.00    +0.001 A 
ATOM     19  C   UNL     1      -2.374   6.400   8.932  0.00  0.00    +0.001 A 
ATOM     20  C   UNL     1      -3.316   5.457   9.209  0.00  0.00    +0.008 A 
ENDBRANCH  10  11
BRANCH   8  21
ATOM     21  N   UNL     1       1.299  -0.910  10.744  0.00  0.00    -0.328 N 
ATOM     22  H   UNL     1       1.380  -1.876  10.694  0.00  0.00    +0.145 HD
ATOM     23  H   UNL     1       1.572  -0.442  11.548  0.00  0.00    +0.145 HD
ENDBRANCH   8  21
BRANCH   9  24
ATOM     24  C   UNL     1       1.110   1.796  10.970  0.00  0.00    +0.101 C 
ATOM     25  N   UNL     1       1.439   2.316  11.925  0.00  0.00    -0.191 NA
ENDBRANCH   9  24
BRANCH   1  26
ATOM     26  O   UNL     1       0.214  -0.997   3.832  0.00  0.00    -0.422 OA
BRANCH  26  27
ATOM     27  C   UNL     1       1.361  -1.033   3.126  0.00  0.00    +0.345 C 
ATOM     28  O   UNL     1       2.373  -0.542   3.586  0.00  0.00    -0.245 OA
BRANCH  27  35
ATOM     29  C   UNL     1       3.755  -0.863   1.510  0.00  0.00    +0.044 C 
ATOM     30  C   UNL     1       2.539  -1.596   1.005  0.00  0.00    -0.036 A 
ATOM     31  C   UNL     1       2.560  -2.198  -0.236  0.00  0.00    +0.004 A 
ATOM     32  C   UNL     1       1.444  -2.871  -0.701  0.00  0.00    +0.000 A 
ATOM     33  C   UNL     1       0.299  -2.944   0.073  0.00  0.00    +0.001 A 
ATOM     34  C   UNL     1       0.264  -2.345   1.315  0.00  0.00    +0.015 A 
ATOM     35  C   UNL     1       1.389  -1.671   1.794  0.00  0.00    +0.062 A 
ENDBRANCH  27  35
ENDBRANCH  26  27
ENDBRANCH   1  26
TORSDOF 6
