REMARK  Name = ZINC28054351
REMARK  4 active torsions:
REMARK  status: ('A' for Active; 'I' for Inactive)
REMARK    1  A    between atoms: C_1  and  C_2
REMARK    2  A    between atoms: C_5  and  C_8
REMARK    3  A    between atoms: C_14  and  C_28
REMARK    4  A    between atoms: C_19  and  C_21
REMARK                            x       y       z     vdW  Elec       q    Type
REMARK                         _______ _______ _______ _____ _____    ______ ____
ROOT
ATOM      1  C   UNL     1      -0.033   3.323  -0.515  0.00  0.00    +0.174 C 
ATOM      2  C   UNL     1       1.342   2.801  -0.176  0.00  0.00    +0.025 C 
ATOM      3  C   UNL     1       1.557   1.534   0.180  0.00  0.00    +0.050 C 
ATOM      4  C   UNL     1       2.942   1.119   0.512  0.00  0.00    +0.038 A 
ATOM      5  C   UNL     1       3.307  -0.220   0.560  0.00  0.00    +0.016 A 
ATOM      6  C   UNL     1       4.609  -0.560   0.875  0.00  0.00    -0.050 A 
ATOM      7  C   UNL     1       5.544   0.426   1.140  0.00  0.00    +0.007 A 
ATOM      8  C   UNL     1       5.188   1.762   1.093  0.00  0.00    +0.046 A 
ATOM      9  C   UNL     1       3.889   2.116   0.780  0.00  0.00    +0.131 A 
ATOM     10  O   UNL     1       3.500   3.415   0.722  0.00  0.00    -0.479 OA
ATOM     11  C   UNL     1       2.513   3.755  -0.252  0.00  0.00    +0.234 C 
ATOM     12  C   UNL     1       5.014  -2.010   0.930  0.00  0.00    +0.044 C 
ATOM     13  N   UNL     1       0.522   0.595   0.265  0.00  0.00    -0.282 N 
ATOM     14  C   UNL     1      -0.776   1.077   0.239  0.00  0.00    +0.240 A 
ATOM     15  N   UNL     1      -1.048   2.359  -0.114  0.00  0.00    -0.201 N 
ATOM     16  N   UNL     1      -2.432   2.490  -0.006  0.00  0.00    -0.042 NA
ATOM     17  N   UNL     1      -2.881   1.339   0.381  0.00  0.00    -0.021 NA
ATOM     18  N   UNL     1      -1.910   0.504   0.528  0.00  0.00    -0.092 NA
ATOM     19  H   UNL     1       0.757  -0.477   0.348  0.00  0.00    +0.155 HD
ENDROOT
BRANCH   1  24
ATOM     20  C   UNL     1      -0.389   4.220  -6.213  0.00  0.00    +0.044 C 
ATOM     21  C   UNL     1      -0.296   3.986  -4.727  0.00  0.00    -0.050 A 
ATOM     22  C   UNL     1      -0.482   5.037  -3.849  0.00  0.00    +0.004 A 
ATOM     23  C   UNL     1      -0.398   4.822  -2.486  0.00  0.00    +0.006 A 
ATOM     24  C   UNL     1      -0.126   3.557  -2.001  0.00  0.00    -0.019 A 
ATOM     25  C   UNL     1       0.066   2.506  -2.880  0.00  0.00    +0.006 A 
ATOM     26  C   UNL     1      -0.024   2.720  -4.242  0.00  0.00    +0.004 A 
ENDBRANCH   1  24
BRANCH  11  27
ATOM     27  C   UNL     1       3.127   3.680  -1.627  0.00  0.00    -0.003 A 
ATOM     28  C   UNL     1       2.925   4.708  -2.529  0.00  0.00    +0.008 A 
ATOM     29  C   UNL     1       3.491   4.643  -3.788  0.00  0.00    +0.015 A 
ATOM     30  C   UNL     1       4.251   3.544  -4.149  0.00  0.00    +0.018 A 
ATOM     31  C   UNL     1       4.447   2.514  -3.247  0.00  0.00    +0.015 A 
ATOM     32  C   UNL     1       3.885   2.582  -1.987  0.00  0.00    +0.008 A 
ATOM     33 BR   UNL     1       5.020   3.451  -5.874  0.00  0.00    -0.050 Br
ENDBRANCH  11  27
TORSDOF 2
