REMARK  Name = ZINC09451684
REMARK  8 active torsions:
REMARK  status: ('A' for Active; 'I' for Inactive)
REMARK    1  A    between atoms: C_1  and  C_2
REMARK    2  A    between atoms: C_2  and  C_3
REMARK    3  A    between atoms: C_3  and  C_4
REMARK    4  A    between atoms: C_4  and  C_5
REMARK    5  A    between atoms: C_5  and  C_29
REMARK    6  A    between atoms: N_8  and  C_12
REMARK    7  A    between atoms: C_12  and  C_13
REMARK    8  A    between atoms: C_26  and  C_28
REMARK                            x       y       z     vdW  Elec       q    Type
REMARK                         _______ _______ _______ _____ _____    ______ ____
ROOT
ATOM      1  C   UNL     1       1.467  -0.394  -0.014  0.00  0.00    +0.138 C 
ATOM      2  C   UNL     1       0.002  -0.004   0.002  0.00  0.00    +0.251 C 
ATOM      3  O   UNL     1      -0.954  -0.749   0.006  0.00  0.00    -0.272 OA
ATOM      4  N   UNL     1      -0.016   1.343   0.009  0.00  0.00    -0.215 N 
ATOM      5  C   UNL     1       1.220   1.854   0.000  0.00  0.00    +0.310 C 
ATOM      6  O   UNL     1       1.460   3.045   0.004  0.00  0.00    -0.252 OA
ATOM      7  N   UNL     1       2.170   0.901  -0.014  0.00  0.00    -0.281 N 
ATOM      8  H   UNL     1       3.130   1.039  -0.022  0.00  0.00    +0.152 HD
ENDROOT
BRANCH   1   9
ATOM      9  C   UNL     1       1.794  -1.175  -1.261  0.00  0.00    -0.015 A 
ATOM     10  C   UNL     1       1.698  -2.554  -1.257  0.00  0.00    +0.009 A 
ATOM     11  C   UNL     1       1.992  -3.270  -2.402  0.00  0.00    +0.039 A 
ATOM     12  C   UNL     1       2.395  -2.607  -3.549  0.00  0.00    +0.123 A 
ATOM     13  C   UNL     1       2.496  -1.226  -3.549  0.00  0.00    +0.039 A 
ATOM     14  C   UNL     1       2.195  -0.512  -2.406  0.00  0.00    +0.009 A 
ATOM     15  F   UNL     1       2.689  -3.307  -4.666  0.00  0.00    -0.205 F 
ENDBRANCH   1   9
BRANCH   1  16
ATOM     16  C   UNL     1       1.822  -1.203   1.235  0.00  0.00    +0.040 C 
BRANCH  16  17
ATOM     17  C   UNL     1       1.530  -0.369   2.483  0.00  0.00    +0.003 C 
BRANCH  17  19
ATOM     18  C   UNL     1       1.594  -0.344   4.981  0.00  0.00    +0.004 C 
ATOM     19  C   UNL     1       1.885  -1.178   3.732  0.00  0.00    -0.003 C 
ENDBRANCH  17  19
ENDBRANCH  16  17
ENDBRANCH   1  16
BRANCH   4  20
ATOM     20  C   UNL     1      -1.239   2.150   0.020  0.00  0.00    +0.214 C 
BRANCH  20  21
ATOM     21  C   UNL     1      -1.652   2.419   1.444  0.00  0.00    +0.238 C 
ATOM     22  O   UNL     1      -0.989   1.980   2.360  0.00  0.00    -0.273 OA
ATOM     23  N   UNL     1      -2.757   3.147   1.700  0.00  0.00    -0.265 N 
ATOM     24  C   UNL     1      -3.529   3.665   0.652  0.00  0.00    +0.058 A 
ATOM     25  C   UNL     1      -3.074   4.725  -0.108  0.00  0.00    +0.025 A 
ATOM     26  C   UNL     1      -3.866   5.240  -1.117  0.00  0.00    +0.002 A 
ATOM     27  C   UNL     1      -5.114   4.700  -1.369  0.00  0.00    +0.002 A 
ATOM     28  C   UNL     1      -5.574   3.630  -0.624  0.00  0.00    +0.025 A 
ATOM     29  C   UNL     1      -4.780   3.100   0.380  0.00  0.00    +0.055 A 
ATOM     30  N   UNL     1      -5.207   1.997   1.128  0.00  0.00    -0.284 N 
ATOM     31  C   UNL     1      -5.137   2.013   2.478  0.00  0.00    +0.219 C 
ATOM     32  O   UNL     1      -5.439   1.022   3.109  0.00  0.00    -0.275 OA
ATOM     33  C   UNL     1      -4.687   3.253   3.205  0.00  0.00    +0.118 C 
ATOM     34  C   UNL     1      -3.171   3.417   3.077  0.00  0.00    +0.087 C 
ATOM     35  C   UNL     1      -2.781   4.847   3.454  0.00  0.00    +0.029 C 
ATOM     36  H   UNL     1      -5.557   1.214   0.674  0.00  0.00    +0.155 HD
ENDBRANCH  20  21
ENDBRANCH   4  20
TORSDOF 6
