REMARK  Name = ZINC12376330
REMARK  5 active torsions:
REMARK  status: ('A' for Active; 'I' for Inactive)
REMARK    1  A    between atoms: C_4  and  C_7
REMARK    2  A    between atoms: C_7  and  C_8
REMARK    3  A    between atoms: C_8  and  O_9
REMARK    4  A    between atoms: O_9  and  C_10
REMARK    5  A    between atoms: C_13  and  C_16
REMARK                            x       y       z     vdW  Elec       q    Type
REMARK                         _______ _______ _______ _____ _____    ______ ____
ROOT
ATOM      1  C   UNL     1       5.052   2.259   4.014  0.00  0.00    +0.121 A 
ATOM      2  C   UNL     1       5.740   1.468   3.106  0.00  0.00    +0.046 A 
ATOM      3  C   UNL     1       5.283   1.353   1.807  0.00  0.00    +0.008 A 
ATOM      4  C   UNL     1       4.141   2.025   1.413  0.00  0.00    -0.039 A 
ATOM      5  C   UNL     1       3.457   2.818   2.315  0.00  0.00    +0.008 A 
ATOM      6  C   UNL     1       3.906   2.933   3.616  0.00  0.00    +0.046 A 
ENDROOT
BRANCH   4   7
ATOM      7  C   UNL     1       3.645   1.897  -0.005  0.00  0.00    +0.068 C 
ATOM      8  C   UNL     1       3.587   3.284  -0.660  0.00  0.00    +0.109 C 
ATOM      9  C   UNL     1       2.373   4.037  -0.196  0.00  0.00    +0.219 C 
ATOM     10  O   UNL     1       2.472   5.231  -0.004  0.00  0.00    -0.275 OA
ATOM     11  N   UNL     1       1.181   3.453   0.018  0.00  0.00    -0.270 N 
ATOM     12  C   UNL     1       1.102   2.034   0.003  0.00  0.00    +0.138 A 
ATOM     13  C   UNL     1       2.270   1.325  -0.006  0.00  0.00    +0.041 A 
ATOM     14  S   UNL     1       1.706  -0.351  -0.012  0.00  0.00    -0.055 S 
ATOM     15  C   UNL     1       0.002  -0.004   0.002  0.00  0.00    +0.158 A 
ATOM     16  N   UNL     1      -0.016   1.316   0.009  0.00  0.00    -0.210 NA
ATOM     17  N   UNL     1      -1.065  -0.888   0.005  0.00  0.00    -0.337 N 
ATOM     18  H   UNL     1       0.390   3.990   0.179  0.00  0.00    +0.156 HD
ATOM     19  H   UNL     1      -1.974  -0.551   0.014  0.00  0.00    +0.144 HD
ATOM     20  H   UNL     1      -0.903  -1.844  -0.001  0.00  0.00    +0.144 HD
ENDBRANCH   4   7
BRANCH   1  21
ATOM     21  O   UNL     1       5.499   2.374   5.292  0.00  0.00    -0.492 OA
BRANCH  21  22
ATOM     22  C   UNL     1       4.741   3.205   6.173  0.00  0.00    +0.233 C 
BRANCH  22  23
ATOM     23  C   UNL     1       5.393   3.211   7.557  0.00  0.00    +0.076 C 
BRANCH  23  27
ATOM     24  C   UNL     1       3.126   5.697  10.189  0.00  0.00    +0.000 A 
ATOM     25  C   UNL     1       2.827   4.351  10.081  0.00  0.00    +0.000 A 
ATOM     26  C   UNL     1       3.561   3.547   9.229  0.00  0.00    +0.004 A 
ATOM     27  C   UNL     1       4.593   4.088   8.485  0.00  0.00    -0.044 A 
ATOM     28  C   UNL     1       4.895   5.433   8.598  0.00  0.00    +0.004 A 
ATOM     29  C   UNL     1       4.158   6.238   9.447  0.00  0.00    +0.000 A 
ENDBRANCH  23  27
ENDBRANCH  22  23
ENDBRANCH  21  22
ENDBRANCH   1  21
TORSDOF 5
