REMARK  Name = ZINC01410652
REMARK  7 active torsions:
REMARK  status: ('A' for Active; 'I' for Inactive)
REMARK    1  A    between atoms: C_1  and  O_2
REMARK    2  A    between atoms: O_2  and  C_3
REMARK    3  A    between atoms: C_6  and  C_9
REMARK    4  A    between atoms: C_14  and  C_19
REMARK    5  A    between atoms: N_31  and  C_32
REMARK    6  A    between atoms: C_32  and  C_33
REMARK    7  A    between atoms: C_33  and  C_34
REMARK                            x       y       z     vdW  Elec       q    Type
REMARK                         _______ _______ _______ _____ _____    ______ ____
ROOT
ATOM      1  C   UNL     1       1.798  -1.751  -0.182  0.00  0.00    +0.139 C 
ATOM      2  C   UNL     1       2.327  -2.078  -1.558  0.00  0.00    +0.037 C 
ATOM      3  C   UNL     1       3.116  -3.119  -1.881  0.00  0.00    +0.017 C 
ATOM      4  C   UNL     1       3.619  -3.302  -3.300  0.00  0.00    +0.063 C 
ATOM      5  C   UNL     1       2.569  -2.800  -4.290  0.00  0.00    +0.068 C 
ATOM      6  C   UNL     1       2.321  -1.316  -3.996  0.00  0.00    +0.091 C 
ATOM      7  C   UNL     1       1.916  -1.168  -2.561  0.00  0.00    +0.163 C 
ATOM      8  O   UNL     1       1.209  -0.231  -2.246  0.00  0.00    -0.292 OA
ATOM      9  N   UNL     1       3.504  -4.072  -0.995  0.00  0.00    -0.316 N 
ATOM     10  C   UNL     1       2.640  -4.658  -0.074  0.00  0.00    +0.052 A 
ATOM     11  C   UNL     1       2.321  -6.005  -0.128  0.00  0.00    +0.025 A 
ATOM     12  C   UNL     1       1.470  -6.538   0.826  0.00  0.00    +0.002 A 
ATOM     13  C   UNL     1       0.948  -5.730   1.820  0.00  0.00    +0.002 A 
ATOM     14  C   UNL     1       1.262  -4.383   1.867  0.00  0.00    +0.025 A 
ATOM     15  C   UNL     1       2.108  -3.845   0.905  0.00  0.00    +0.052 A 
ATOM     16  N   UNL     1       2.405  -2.488   0.902  0.00  0.00    -0.317 N 
ATOM     17  H   UNL     1       4.431  -4.359  -1.003  0.00  0.00    +0.152 HD
ENDROOT
BRANCH   1  21
ATOM     18  C   UNL     1       2.396   2.421   0.528  0.00  0.00    +0.120 A 
ATOM     19  C   UNL     1       1.149   1.954   0.138  0.00  0.00    +0.046 A 
ATOM     20  C   UNL     1       0.958   0.605  -0.091  0.00  0.00    +0.009 A 
ATOM     21  C   UNL     1       2.009  -0.280   0.069  0.00  0.00    -0.022 A 
ATOM     22  C   UNL     1       3.252   0.183   0.458  0.00  0.00    +0.009 A 
ATOM     23  C   UNL     1       3.448   1.531   0.688  0.00  0.00    +0.046 A 
BRANCH  18  25
ATOM     24  C   UNL     1       3.896   4.156   1.153  0.00  0.00    +0.277 C 
ATOM     25  O   UNL     1       2.586   3.747   0.754  0.00  0.00    -0.495 OA
ENDBRANCH  18  25
ENDBRANCH   1  21
BRANCH   5  26
ATOM     26  C   UNL     1       3.077  -2.963  -5.700  0.00  0.00    +0.109 A 
ATOM     27  C   UNL     1       2.498  -3.702  -6.664  0.00  0.00    +0.045 A 
ATOM     28  C   UNL     1       3.304  -3.572  -7.819  0.00  0.00    +0.041 A 
ATOM     29  C   UNL     1       4.327  -2.761  -7.491  0.00  0.00    +0.195 A 
ATOM     30  O   UNL     1       4.181  -2.392  -6.208  0.00  0.00    -0.468 OA
ENDBRANCH   5  26
BRANCH  16  31
ATOM     31  C   UNL     1       2.085  -1.876   2.199  0.00  0.00    +0.111 C 
BRANCH  31  32
ATOM     32  C   UNL     1       2.848  -2.603   3.308  0.00  0.00    +0.054 C 
BRANCH  32  33
ATOM     33  C   UNL     1       2.630  -1.891   4.618  0.00  0.00    -0.046 A 
ATOM     34  C   UNL     1       3.493  -0.884   5.009  0.00  0.00    +0.004 A 
ATOM     35  C   UNL     1       3.290  -0.228   6.208  0.00  0.00    +0.000 A 
ATOM     36  C   UNL     1       2.231  -0.585   7.021  0.00  0.00    +0.000 A 
ATOM     37  C   UNL     1       1.371  -1.595   6.632  0.00  0.00    +0.000 A 
ATOM     38  C   UNL     1       1.570  -2.248   5.431  0.00  0.00    +0.004 A 
ENDBRANCH  32  33
ENDBRANCH  31  32
ENDBRANCH  16  31
TORSDOF 6
