REMARK  Name = ZINC36647959
REMARK  11 active torsions:
REMARK  status: ('A' for Active; 'I' for Inactive)
REMARK    1  A    between atoms: C_1  and  C_2
REMARK    2  A    between atoms: C_2  and  C_3
REMARK    3  A    between atoms: C_2  and  C_4
REMARK    4  A    between atoms: C_2  and  C_5
REMARK    5  A    between atoms: C_12  and  C_14
REMARK    6  A    between atoms: N_16  and  N_17
REMARK    7  A    between atoms: C_18  and  C_20
REMARK    8  A    between atoms: C_20  and  C_21
REMARK    9  A    between atoms: C_21  and  N_22
REMARK   10  A    between atoms: C_23  and  C_25
REMARK   11  A    between atoms: C_25  and  C_26
REMARK                            x       y       z     vdW  Elec       q    Type
REMARK                         _______ _______ _______ _____ _____    ______ ____
ROOT
ATOM      1  C   UNL     1       6.007  -0.737  -4.546  0.00  0.00    +0.267 C 
ATOM      2  O   UNL     1       6.936  -0.495  -3.798  0.00  0.00    -0.268 OA
ATOM      3  N   UNL     1       6.246  -1.082  -5.827  0.00  0.00    -0.230 N 
ATOM      4  H   UNL     1       5.505  -1.274  -6.423  0.00  0.00    +0.173 HD
ENDROOT
BRANCH   1  11
ATOM      5  C   UNL     1       0.718  -0.497  -1.257  0.00  0.00    -0.001 C 
ATOM      6  C   UNL     1      -0.026   0.007  -2.496  0.00  0.00    +0.009 C 
ATOM      7  C   UNL     1       0.533  -0.709  -3.733  0.00  0.00    +0.043 C 
ATOM      8  C   UNL     1       2.031  -0.643  -3.684  0.00  0.00    -0.006 A 
ATOM      9  C   UNL     1       2.798  -0.317  -2.603  0.00  0.00    -0.036 A 
ATOM     10  C   UNL     1       4.173  -0.320  -2.792  0.00  0.00    +0.024 A 
ATOM     11  C   UNL     1       4.629  -0.652  -4.054  0.00  0.00    +0.076 A 
ATOM     12  S   UNL     1       3.103  -0.949  -4.927  0.00  0.00    -0.088 S 
ATOM     13  C   UNL     1       2.154   0.029  -1.264  0.00  0.00    +0.040 C 
BRANCH   5  15
ATOM     14  C   UNL     1      -0.019   1.526   0.010  0.00  0.00    +0.011 C 
ATOM     15  C   UNL     1       0.002  -0.004   0.002  0.00  0.00    -0.035 C 
ATOM     16  C   UNL     1       0.742  -0.511   1.242  0.00  0.00    +0.011 C 
ATOM     17  C   UNL     1      -1.433  -0.534   0.013  0.00  0.00    +0.011 C 
ENDBRANCH   5  15
ENDBRANCH   1  11
BRANCH   3  18
ATOM     18  N   UNL     1       7.563  -1.164  -6.297  0.00  0.00    -0.234 N 
ATOM     19  C   UNL     1       7.801  -1.509  -7.577  0.00  0.00    +0.231 C 
ATOM     20  O   UNL     1       6.875  -1.749  -8.323  0.00  0.00    -0.274 OA
ATOM     21  H   UNL     1       8.303  -0.971  -5.700  0.00  0.00    +0.173 HD
BRANCH  19  22
ATOM     22  C   UNL     1       9.218  -1.597  -8.083  0.00  0.00    +0.116 C 
BRANCH  22  23
ATOM     23  C   UNL     1       9.209  -2.005  -9.557  0.00  0.00    +0.113 C 
BRANCH  23  24
ATOM     24  N   UNL     1      10.587  -2.090 -10.049  0.00  0.00    -0.315 N 
ATOM     25  C   UNL     1      10.825  -2.435 -11.330  0.00  0.00    +0.217 C 
ATOM     26  O   UNL     1       9.899  -2.675 -12.075  0.00  0.00    -0.275 OA
ATOM     27  H   UNL     1      11.327  -1.897  -9.453  0.00  0.00    +0.149 HD
BRANCH  25  28
ATOM     28  C   UNL     1      12.242  -2.523 -11.835  0.00  0.00    +0.130 C 
BRANCH  28  29
ATOM     29  C   UNL     1      12.233  -2.925 -13.288  0.00  0.00    -0.039 A 
ATOM     30  C   UNL     1      12.266  -4.262 -13.635  0.00  0.00    +0.004 A 
ATOM     31  C   UNL     1      12.258  -4.631 -14.967  0.00  0.00    +0.000 A 
ATOM     32  C   UNL     1      12.217  -3.662 -15.952  0.00  0.00    +0.000 A 
ATOM     33  C   UNL     1      12.183  -2.325 -15.605  0.00  0.00    +0.000 A 
ATOM     34  C   UNL     1      12.187  -1.956 -14.273  0.00  0.00    +0.004 A 
ENDBRANCH  28  29
ENDBRANCH  25  28
ENDBRANCH  23  24
ENDBRANCH  22  23
ENDBRANCH  19  22
ENDBRANCH   3  18
TORSDOF 8
