REMARK  Name = ZINC01074883
REMARK  8 active torsions:
REMARK  status: ('A' for Active; 'I' for Inactive)
REMARK    1  A    between atoms: C_1  and  C_2
REMARK    2  A    between atoms: C_3  and  C_16
REMARK    3  A    between atoms: C_4  and  C_10
REMARK    4  A    between atoms: C_16  and  O_18
REMARK    5  A    between atoms: O_18  and  C_19
REMARK    6  A    between atoms: C_19  and  C_20
REMARK    7  A    between atoms: C_20  and  C_21
REMARK    8  A    between atoms: C_20  and  C_22
REMARK                            x       y       z     vdW  Elec       q    Type
REMARK                         _______ _______ _______ _____ _____    ______ ____
ROOT
ATOM      1  C   UNL     1      -0.018   1.503   0.010  0.00  0.00    +0.061 C 
ATOM      2  C   UNL     1       0.002  -0.004   0.002  0.00  0.00    +0.021 C 
ATOM      3  C   UNL     1      -1.165  -0.684   0.004  0.00  0.00    +0.078 C 
ATOM      4  C   UNL     1      -1.098  -2.198  -0.005  0.00  0.00    +0.150 C 
ATOM      5  N   UNL     1       0.242  -2.807  -0.014  0.00  0.00    -0.288 N 
ATOM      6  C   UNL     1       1.317  -1.993  -0.015  0.00  0.00    +0.304 C 
ATOM      7  O   UNL     1       2.428  -2.486  -0.023  0.00  0.00    -0.252 OA
ATOM      8  N   UNL     1       1.200  -0.659  -0.013  0.00  0.00    -0.273 N 
ATOM      9  H   UNL     1       0.350  -3.771  -0.020  0.00  0.00    +0.151 HD
ATOM     10  H   UNL     1       2.012  -0.129  -0.018  0.00  0.00    +0.156 HD
ENDROOT
BRANCH   4  11
ATOM     11  C   UNL     1      -1.840  -2.689  -1.222  0.00  0.00    +0.016 A 
ATOM     12  C   UNL     1      -3.101  -3.175  -1.314  0.00  0.00    +0.014 A 
ATOM     13  C   UNL     1      -3.579  -3.571  -2.549  0.00  0.00    +0.023 A 
ATOM     14  C   UNL     1      -2.770  -3.460  -3.633  0.00  0.00    +0.055 A 
ATOM     15  S   UNL     1      -1.286  -2.772  -2.917  0.00  0.00    -0.084 S 
ATOM     16 BR   UNL     1      -3.125  -3.910  -5.435  0.00  0.00    -0.043 Br
ENDBRANCH   4  11
BRANCH   3  17
ATOM     17  C   UNL     1      -2.406  -0.006   0.014  0.00  0.00    +0.339 C 
ATOM     18  O   UNL     1      -2.435   1.210   0.021  0.00  0.00    -0.245 OA
BRANCH  17  19
ATOM     19  O   UNL     1      -3.558  -0.709   0.016  0.00  0.00    -0.461 OA
BRANCH  19  20
ATOM     20  C   UNL     1      -4.775   0.040   0.026  0.00  0.00    +0.235 C 
BRANCH  20  21
ATOM     21  C   UNL     1      -5.966  -0.921   0.027  0.00  0.00    +0.020 C 
ATOM     22  C   UNL     1      -7.264  -0.123   0.164  0.00  0.00    +0.010 C 
ATOM     23  C   UNL     1      -5.986  -1.708  -1.285  0.00  0.00    +0.010 C 
ENDBRANCH  20  21
ENDBRANCH  19  20
ENDBRANCH  17  19
ENDBRANCH   3  17
TORSDOF 5
