REMARK  Name = ZINC49371965
REMARK  3 active torsions:
REMARK  status: ('A' for Active; 'I' for Inactive)
REMARK    1  A    between atoms: C_5  and  N_7
REMARK    2  A    between atoms: C_8  and  C_10
REMARK    3  A    between atoms: C_19  and  C_22
REMARK                            x       y       z     vdW  Elec       q    Type
REMARK                         _______ _______ _______ _____ _____    ______ ____
ROOT
ATOM      1  C   UNL     1      -0.020  -4.259   0.195  0.00  0.00    +0.078 C 
ATOM      2  C   UNL     1       0.631  -4.860  -1.053  0.00  0.00    +0.032 C 
ATOM      3  C   UNL     1       0.653  -6.386  -0.928  0.00  0.00    +0.107 C 
ATOM      4  N   UNL     1      -0.715  -6.860  -0.673  0.00  0.00    -0.314 N 
ATOM      5  C   UNL     1      -1.465  -6.280   0.449  0.00  0.00    +0.107 C 
ATOM      6  C   UNL     1      -1.464  -4.755   0.308  0.00  0.00    +0.032 C 
ATOM      7  C   UNL     1      -1.288  -7.837  -1.479  0.00  0.00    +0.144 A 
ATOM      8  C   UNL     1      -0.503  -8.528  -2.405  0.00  0.00    +0.047 A 
ATOM      9  C   UNL     1      -1.115  -9.492  -3.185  0.00  0.00    +0.034 A 
ATOM     10  C   UNL     1      -2.486  -9.715  -2.997  0.00  0.00    +0.100 A 
ATOM     11  N   UNL     1      -3.151  -9.008  -2.091  0.00  0.00    -0.147 NA
ATOM     12  N   UNL     1      -2.578  -8.118  -1.366  0.00  0.00    -0.134 NA
ENDROOT
BRANCH  10  13
ATOM     13  C   UNL     1      -3.188 -10.733  -3.805  0.00  0.00    +0.039 A 
ATOM     14  C   UNL     1      -4.509 -11.095  -3.779  0.00  0.00    +0.018 A 
ATOM     15  C   UNL     1      -4.942 -12.082  -4.636  0.00  0.00    +0.008 A 
ATOM     16  C   UNL     1      -4.051 -12.665  -5.478  0.00  0.00    +0.046 A 
ATOM     17  S   UNL     1      -2.538 -11.806  -5.075  0.00  0.00    -0.095 S 
ENDBRANCH  10  13
BRANCH   1  19
ATOM     18  N   UNL     1       1.155  -2.093  -0.020  0.00  0.00    -0.283 N 
ATOM     19  C   UNL     1      -0.013  -2.755   0.090  0.00  0.00    +0.220 C 
ATOM     20  O   UNL     1      -1.059  -2.141   0.105  0.00  0.00    -0.275 OA
ATOM     21  H   UNL     1       1.986  -2.586  -0.113  0.00  0.00    +0.155 HD
BRANCH  18  26
ATOM     22  C   UNL     1       0.154   1.379   0.650  0.00  0.00    +0.004 A 
ATOM     23  C   UNL     1       1.137   2.114   0.077  0.00  0.00    +0.031 A 
ATOM     24  C   UNL     1       2.220   1.470  -0.584  0.00  0.00    +0.102 A 
ATOM     25  C   UNL     1       2.240   0.013  -0.625  0.00  0.00    +0.121 A 
ATOM     26  C   UNL     1       1.171  -0.697  -0.001  0.00  0.00    +0.062 A 
ATOM     27  C   UNL     1       0.168  -0.013   0.613  0.00  0.00    +0.025 A 
ATOM     28  N   UNL     1       3.298  -0.479  -1.269  0.00  0.00    -0.189 NA
ATOM     29  S   UNL     1       4.147   0.800  -1.750  0.00  0.00    +0.117 S 
ATOM     30  N   UNL     1       3.265   2.027  -1.198  0.00  0.00    -0.191 NA
ENDBRANCH  18  26
ENDBRANCH   1  19
TORSDOF 3
