REMARK  Name = ZINC22066373
REMARK  16 active torsions:
REMARK  status: ('A' for Active; 'I' for Inactive)
REMARK    1  A    between atoms: C_1  and  C_2
REMARK    2  A    between atoms: C_3  and  C_10
REMARK    3  A    between atoms: C_4  and  C_8
REMARK    4  A    between atoms: C_4  and  C_9
REMARK    5  A    between atoms: C_11  and  C_12
REMARK    6  A    between atoms: C_12  and  C_39
REMARK    7  A    between atoms: C_13  and  C_14
REMARK    8  A    between atoms: C_15  and  C_16
REMARK    9  A    between atoms: C_16  and  C_38
REMARK   10  A    between atoms: C_17  and  C_18
REMARK   11  A    between atoms: C_18  and  O_20
REMARK   12  A    between atoms: O_20  and  C_21
REMARK   13  A    between atoms: C_23  and  O_37
REMARK   14  A    between atoms: C_25  and  O_36
REMARK   15  A    between atoms: C_27  and  O_35
REMARK   16  A    between atoms: C_29  and  C_32
REMARK                            x       y       z     vdW  Elec       q    Type
REMARK                         _______ _______ _______ _____ _____    ______ ____
ROOT
ATOM      1  C   UNL     1      -4.483   5.434  -0.947  0.00  0.00    -0.044 C 
ATOM      2  C   UNL     1      -5.591   6.230  -0.931  0.00  0.00    +0.095 C 
ATOM      3  C   UNL     1      -3.114   6.052  -1.071  0.00  0.00    +0.044 C 
ENDROOT
BRANCH   1   5
ATOM      4  C   UNL     1      -3.507   3.252  -0.771  0.00  0.00    +0.001 C 
ATOM      5  C   UNL     1      -4.618   4.042  -0.850  0.00  0.00    +0.003 C 
BRANCH   4   7
ATOM      6  C   UNL     1      -2.525   1.066  -0.734  0.00  0.00    -0.050 C 
ATOM      7  C   UNL     1      -3.635   1.855  -0.813  0.00  0.00    +0.003 C 
ATOM      8  C   UNL     1      -2.662  -0.434  -0.779  0.00  0.00    +0.044 C 
BRANCH   6  10
ATOM      9  C   UNL     1      -0.147   0.867  -0.533  0.00  0.00    +0.004 C 
ATOM     10  C   UNL     1      -1.252   1.653  -0.611  0.00  0.00    +0.003 C 
BRANCH   9  13
ATOM     11  C   UNL     1       0.634   2.705  -2.354  0.00  0.00    +0.039 C 
ATOM     12  C   UNL     1       1.544   2.355  -1.206  0.00  0.00    -0.069 C 
ATOM     13  C   UNL     1       1.128   1.455  -0.332  0.00  0.00    -0.043 C 
ATOM     14  C   UNL     1       1.926   1.024   0.865  0.00  0.00    -0.010 C 
ATOM     15  C   UNL     1       3.395   1.418   0.686  0.00  0.00    +0.011 C 
ATOM     16  C   UNL     1       3.454   2.898   0.289  0.00  0.00    +0.005 C 
ATOM     17  C   UNL     1       2.873   3.048  -1.118  0.00  0.00    +0.031 C 
ATOM     18  C   UNL     1       1.364   1.698   2.118  0.00  0.00    +0.016 C 
ATOM     19  C   UNL     1       1.826  -0.495   1.021  0.00  0.00    +0.016 C 
ENDBRANCH   9  13
ENDBRANCH   6  10
ENDBRANCH   4   7
ENDBRANCH   1   5
BRANCH   2  20
ATOM     20  C   UNL     1      -5.462   7.622  -1.106  0.00  0.00    +0.334 C 
ATOM     21  O   UNL     1      -4.376   8.104  -1.377  0.00  0.00    -0.246 OA
BRANCH  20  22
ATOM     22  O   UNL     1      -6.541   8.423  -0.974  0.00  0.00    -0.429 OA
BRANCH  22  23
ATOM     23  C   UNL     1      -6.337   9.824  -1.166  0.00  0.00    +0.343 C 
ATOM     24  C   UNL     1      -7.684  10.550  -1.100  0.00  0.00    +0.214 C 
ATOM     25  C   UNL     1      -8.292  10.355   0.292  0.00  0.00    +0.180 C 
ATOM     26  C   UNL     1      -7.304  10.866   1.345  0.00  0.00    +0.186 C 
ATOM     27  C   UNL     1      -5.973  10.128   1.185  0.00  0.00    +0.266 C 
ATOM     28  O   UNL     1      -5.477  10.325  -0.141  0.00  0.00    -0.322 OA
BRANCH  27  29
ATOM     29  C   UNL     1      -4.976  10.666   2.179  0.00  0.00    +0.387 C 
ATOM     30  O   UNL     1      -3.991  11.248   1.792  0.00  0.00    -0.243 OA
ATOM     31  O   UNL     1      -5.184  10.500   3.495  0.00  0.00    -0.243 OA
ENDBRANCH  27  29
BRANCH  26  32
ATOM     32  O   UNL     1      -7.830  10.622   2.652  0.00  0.00    -0.386 OA
ATOM     33  H   UNL     1      -7.257  10.923   3.541  0.00  0.00    +0.210 HD
ENDBRANCH  26  32
BRANCH  25  34
ATOM     34  O   UNL     1      -9.515  11.088   0.388  0.00  0.00    -0.386 OA
ATOM     35  H   UNL     1     -10.097  11.067   1.322  0.00  0.00    +0.210 HD
ENDBRANCH  25  34
BRANCH  24  36
ATOM     36  O   UNL     1      -7.487  11.944  -1.344  0.00  0.00    -0.383 OA
ATOM     37  H   UNL     1      -8.347  12.630  -1.337  0.00  0.00    +0.210 HD
ENDBRANCH  24  36
ENDBRANCH  22  23
ENDBRANCH  20  22
ENDBRANCH   2  20
TORSDOF 11
