REMARK  Name = ZINC09489431
REMARK  6 active torsions:
REMARK  status: ('A' for Active; 'I' for Inactive)
REMARK    1  A    between atoms: C_1  and  C_2
REMARK    2  A    between atoms: C_5  and  N_8
REMARK    3  A    between atoms: C_26  and  C_36
REMARK    4  A    between atoms: C_39  and  O_44
REMARK    5  A    between atoms: C_40  and  O_42
REMARK    6  A    between atoms: O_42  and  C_43
REMARK                            x       y       z     vdW  Elec       q    Type
REMARK                         _______ _______ _______ _____ _____    ______ ____
ROOT
ATOM      1  N   UNL     1       1.432   2.637   0.978  0.00  0.00    -0.210 N 
ATOM      2  C   UNL     1       1.349   1.749  -0.019  0.00  0.00    +0.230 C 
ATOM      3  O   UNL     1       2.231   1.502  -0.812  0.00  0.00    -0.274 OA
ATOM      4  C   UNL     1      -0.021   1.100  -0.003  0.00  0.00    +0.091 C 
ATOM      5  C   UNL     1      -0.846   1.768  -1.171  0.00  0.00    +0.007 C 
ATOM      6  C   UNL     1      -2.285   1.601  -0.504  0.00  0.00    +0.010 C 
ATOM      7  C   UNL     1      -1.968   2.424   0.812  0.00  0.00    +0.016 C 
ATOM      8  C   UNL     1      -0.676   1.704   1.274  0.00  0.00    +0.092 C 
ATOM      9  C   UNL     1       0.342   2.710   1.751  0.00  0.00    +0.230 C 
ATOM     10  O   UNL     1       0.196   3.466   2.687  0.00  0.00    -0.274 OA
ATOM     11  C   UNL     1      -1.575   3.756   0.135  0.00  0.00    +0.061 C 
ATOM     12  C   UNL     1      -0.530   3.239  -0.924  0.00  0.00    +0.019 C 
ATOM     13  C   UNL     1      -0.262   4.230  -1.996  0.00  0.00    +0.063 C 
ATOM     14  C   UNL     1       0.224   5.532  -1.299  0.00  0.00    +0.032 A 
ATOM     15  C   UNL     1       0.135   5.921  -0.008  0.00  0.00    +0.087 A 
ATOM     16  N   UNL     1       0.711   7.132   0.294  0.00  0.00    -0.311 N 
ATOM     17  H   UNL     1       0.684   7.465   1.205  0.00  0.00    +0.170 HD
ATOM     18  C   UNL     1       1.315   7.860  -0.667  0.00  0.00    +0.289 A 
ATOM     19  O   UNL     1       1.867   8.942  -0.573  0.00  0.00    -0.260 OA
ATOM     20  S   UNL     1       1.105   6.864  -2.072  0.00  0.00    -0.030 S 
ATOM     21  S   UNL     1      -0.690   4.908   1.216  0.00  0.00    -0.103 S 
ENDROOT
BRANCH   1  26
ATOM     22  C   UNL     1       6.037   5.835   1.859  0.00  0.00    +0.044 C 
ATOM     23  C   UNL     1       4.815   4.986   1.625  0.00  0.00    -0.050 A 
ATOM     24  C   UNL     1       3.672   5.201   2.373  0.00  0.00    +0.005 A 
ATOM     25  C   UNL     1       2.550   4.424   2.161  0.00  0.00    +0.024 A 
ATOM     26  C   UNL     1       2.570   3.427   1.195  0.00  0.00    +0.044 A 
ATOM     27  C   UNL     1       3.721   3.210   0.450  0.00  0.00    +0.024 A 
ATOM     28  C   UNL     1       4.838   3.993   0.662  0.00  0.00    +0.005 A 
ENDBRANCH   1  26
BRANCH  13  29
ATOM     29  C   UNL     1       0.783   3.691  -2.938  0.00  0.00    -0.035 A 
ATOM     30  C   UNL     1       2.042   3.375  -2.464  0.00  0.00    +0.008 A 
ATOM     31  C   UNL     1       3.003   2.874  -3.323  0.00  0.00    +0.049 A 
ATOM     32  C   UNL     1       2.707   2.699  -4.666  0.00  0.00    +0.158 A 
ATOM     33  C   UNL     1       1.441   3.022  -5.144  0.00  0.00    +0.162 A 
ATOM     34  C   UNL     1       0.482   3.518  -4.277  0.00  0.00    +0.053 A 
BRANCH  33  35
ATOM     35  O   UNL     1       1.147   2.852  -6.461  0.00  0.00    -0.491 OA
ATOM     36  C   UNL     1      -0.173   3.205  -6.881  0.00  0.00    +0.277 C 
ENDBRANCH  33  35
BRANCH  32  37
ATOM     37  O   UNL     1       3.653   2.212  -5.513  0.00  0.00    -0.503 OA
ATOM     38  H   UNL     1       4.200   2.894  -5.926  0.00  0.00    +0.292 HD
ENDBRANCH  32  37
ENDBRANCH  13  29
TORSDOF 4
