REMARK  Name = ZINC38898145
REMARK  7 active torsions:
REMARK  status: ('A' for Active; 'I' for Inactive)
REMARK    1  A    between atoms: C_1  and  C_2
REMARK    2  A    between atoms: C_2  and  C_3
REMARK    3  A    between atoms: C_6  and  C_9
REMARK    4  A    between atoms: C_11  and  C_15
REMARK    5  A    between atoms: N_17  and  N_18
REMARK    6  A    between atoms: C_19  and  C_20
REMARK    7  A    between atoms: C_25  and  O_26
REMARK                            x       y       z     vdW  Elec       q    Type
REMARK                         _______ _______ _______ _____ _____    ______ ____
ROOT
ATOM      1  C   UNL     1       3.520  -1.735   7.913  0.00  0.00    +0.263 C 
ATOM      2  O   UNL     1       4.375  -0.874   7.904  0.00  0.00    -0.271 OA
ATOM      3  N   UNL     1       2.715  -1.876   8.985  0.00  0.00    -0.205 N 
ATOM      4  H   UNL     1       2.032  -2.564   8.991  0.00  0.00    +0.177 HD
ENDROOT
BRANCH   1   7
ATOM      5  C   UNL     1       2.788  -1.911   4.668  0.00  0.00    +0.092 C 
ATOM      6  C   UNL     1       2.205  -2.191   5.850  0.00  0.00    +0.041 C 
ATOM      7  C   UNL     1       3.359  -2.648   6.725  0.00  0.00    +0.240 C 
ATOM      8  N   UNL     1       4.521  -2.549   5.827  0.00  0.00    -0.170 NA
ATOM      9  N   UNL     1       4.124  -2.147   4.730  0.00  0.00    -0.153 NA
BRANCH   5  13
ATOM     10  C   UNL     1       0.731  -0.503   1.223  0.00  0.00    -0.048 A 
ATOM     11  C   UNL     1       2.098  -0.709   1.173  0.00  0.00    +0.004 A 
ATOM     12  C   UNL     1       2.771  -1.165   2.288  0.00  0.00    +0.010 A 
ATOM     13  C   UNL     1       2.070  -1.419   3.466  0.00  0.00    +0.002 A 
ATOM     14  C   UNL     1       0.693  -1.211   3.510  0.00  0.00    +0.010 A 
ATOM     15  C   UNL     1       0.031  -0.749   2.391  0.00  0.00    +0.004 A 
BRANCH  10  17
ATOM     16  C   UNL     1      -0.019   1.526   0.010  0.00  0.00    +0.009 C 
ATOM     17  C   UNL     1       0.002  -0.004   0.002  0.00  0.00    +0.032 C 
ENDBRANCH  10  17
ENDBRANCH   5  13
ENDBRANCH   1   7
BRANCH   3  18
ATOM     18  N   UNL     1       2.865  -1.027  10.089  0.00  0.00    -0.188 NA
ATOM     19  C   UNL     1       2.090  -1.162  11.121  0.00  0.00    +0.142 C 
BRANCH  19  20
ATOM     20  C   UNL     1       2.248  -0.269  12.283  0.00  0.00    +0.036 A 
ATOM     21  C   UNL     1       1.420  -0.415  13.399  0.00  0.00    +0.013 A 
ATOM     22  C   UNL     1       1.573   0.424  14.482  0.00  0.00    +0.001 A 
ATOM     23  C   UNL     1       2.545   1.410  14.470  0.00  0.00    +0.004 A 
ATOM     24  C   UNL     1       3.370   1.565  13.373  0.00  0.00    +0.046 A 
ATOM     25  C   UNL     1       3.234   0.727  12.278  0.00  0.00    +0.125 A 
BRANCH  25  26
ATOM     26  O   UNL     1       4.048   0.875  11.201  0.00  0.00    -0.506 OA
ATOM     27  H   UNL     1       3.708   1.485  10.531  0.00  0.00    +0.292 HD
ENDBRANCH  25  26
ENDBRANCH  19  20
ENDBRANCH   3  18
TORSDOF 6
