REMARK  Name = ZINC40373141
REMARK  14 active torsions:
REMARK  status: ('A' for Active; 'I' for Inactive)
REMARK    1  A    between atoms: C_1  and  C_2
REMARK    2  A    between atoms: C_2  and  C_31
REMARK    3  A    between atoms: C_4  and  O_30
REMARK    4  A    between atoms: C_6  and  C_28
REMARK    5  A    between atoms: C_6  and  C_29
REMARK    6  A    between atoms: N_7  and  C_8
REMARK    7  A    between atoms: C_8  and  C_9
REMARK    8  A    between atoms: C_9  and  C_11
REMARK    9  A    between atoms: C_9  and  O_27
REMARK   10  A    between atoms: C_11  and  O_12
REMARK   11  A    between atoms: O_12  and  C_13
REMARK   12  A    between atoms: C_13  and  C_14
REMARK   13  A    between atoms: C_14  and  C_15
REMARK   14  A    between atoms: C_14  and  C_21
REMARK                            x       y       z     vdW  Elec       q    Type
REMARK                         _______ _______ _______ _____ _____    ______ ____
ROOT
ATOM      1  C   UNL     1       3.702  -0.182   3.133  0.00  0.00    +0.124 C 
ENDROOT
BRANCH   1   2
ATOM      2  O   UNL     1       4.470  -1.313   3.550  0.00  0.00    -0.391 OA
ATOM      3  H   UNL     1       5.420  -1.141   3.614  0.00  0.00    +0.210 HD
ENDBRANCH   1   2
BRANCH   1   4
ATOM      4  C   UNL     1       4.173   0.273   1.750  0.00  0.00    -0.043 C 
BRANCH   4  11
ATOM      5  C   UNL     1       5.366   0.766  -0.615  0.00  0.00    -0.010 C 
ATOM      6  C   UNL     1       5.409  -0.662  -0.061  0.00  0.00    -0.068 C 
ATOM      7  C   UNL     1       5.457  -1.662  -1.211  0.00  0.00    +0.019 C 
ATOM      8  C   UNL     1       4.090  -1.765  -1.886  0.00  0.00    +0.112 C 
ATOM      9  C   UNL     1       3.076  -2.228  -0.839  0.00  0.00    +0.019 C 
ATOM     10  C   UNL     1       3.011  -1.232   0.314  0.00  0.00    -0.068 C 
ATOM     11  N   UNL     1       4.315  -0.903   0.866  0.00  0.00    +0.388 N 
ATOM     12  C   UNL     1       2.178  -1.886   1.441  0.00  0.00    -0.010 C 
ATOM     13  C   UNL     1       2.258   0.026  -0.128  0.00  0.00    -0.010 C 
ATOM     14  C   UNL     1       6.731  -0.802   0.729  0.00  0.00    -0.010 C 
ATOM     15  H   UNL     1       4.596  -1.683   1.476  0.00  0.00    -0.080 HD
BRANCH   8  16
ATOM     16  O   UNL     1       4.155  -2.733  -2.939  0.00  0.00    -0.392 OA
ATOM     17  H   UNL     1       3.322  -2.854  -3.415  0.00  0.00    +0.210 HD
ENDBRANCH   8  16
ENDBRANCH   4  11
ENDBRANCH   1   4
BRANCH   1  18
ATOM     18  C   UNL     1       3.888   0.958   4.136  0.00  0.00    +0.189 C 
BRANCH  18  19
ATOM     19  O   UNL     1       3.342   0.575   5.400  0.00  0.00    -0.376 OA
BRANCH  19  20
ATOM     20  C   UNL     1       3.465   1.575   6.413  0.00  0.00    +0.172 C 
BRANCH  20  21
ATOM     21  C   UNL     1       2.850   1.059   7.716  0.00  0.00    +0.075 C 
BRANCH  21  22
ATOM     22  C   UNL     1       3.088   2.062   8.816  0.00  0.00    -0.038 A 
ATOM     23  C   UNL     1       4.058   1.822   9.771  0.00  0.00    +0.004 A 
ATOM     24  C   UNL     1       4.276   2.742  10.780  0.00  0.00    +0.000 A 
ATOM     25  C   UNL     1       3.524   3.901  10.832  0.00  0.00    +0.000 A 
ATOM     26  C   UNL     1       2.555   4.141   9.876  0.00  0.00    +0.000 A 
ATOM     27  C   UNL     1       2.340   3.223   8.865  0.00  0.00    +0.004 A 
ENDBRANCH  21  22
BRANCH  21  28
ATOM     28  C   UNL     1       1.368   0.861   7.528  0.00  0.00    -0.038 A 
ATOM     29  C   UNL     1       0.594   1.883   7.011  0.00  0.00    +0.004 A 
ATOM     30  C   UNL     1      -0.765   1.702   6.839  0.00  0.00    +0.000 A 
ATOM     31  C   UNL     1      -1.351   0.498   7.183  0.00  0.00    +0.000 A 
ATOM     32  C   UNL     1      -0.577  -0.524   7.699  0.00  0.00    +0.000 A 
ATOM     33  C   UNL     1       0.783  -0.344   7.868  0.00  0.00    +0.004 A 
ENDBRANCH  21  28
ENDBRANCH  20  21
ENDBRANCH  19  20
ENDBRANCH  18  19
ENDBRANCH   1  18
TORSDOF 10
