REMARK  Name = ZINC11441083
REMARK  9 active torsions:
REMARK  status: ('A' for Active; 'I' for Inactive)
REMARK    1  A    between atoms: C_3  and  N_30
REMARK    2  A    between atoms: C_6  and  N_7
REMARK    3  A    between atoms: C_8  and  C_10
REMARK    4  A    between atoms: C_10  and  O_11
REMARK    5  A    between atoms: O_11  and  C_12
REMARK    6  A    between atoms: C_12  and  C_14
REMARK    7  A    between atoms: C_14  and  C_15
REMARK    8  A    between atoms: C_15  and  N_16
REMARK    9  A    between atoms: N_19  and  C_20
REMARK                            x       y       z     vdW  Elec       q    Type
REMARK                         _______ _______ _______ _____ _____    ______ ____
ROOT
ATOM      1  C   UNL     1       3.796   7.511   0.426  0.00  0.00    +0.309 C 
ATOM      2  O   UNL     1       2.825   8.230   0.453  0.00  0.00    -0.251 OA
ENDROOT
BRANCH   1   3
ATOM      3  O   UNL     1       3.644   6.183   0.312  0.00  0.00    -0.455 OA
BRANCH   3   4
ATOM      4  C   UNL     1       2.284   5.679   0.226  0.00  0.00    +0.328 C 
BRANCH   4   6
ATOM      5  N   UNL     1       1.157   3.488   0.010  0.00  0.00    -0.283 N 
ATOM      6  C   UNL     1       2.311   4.178   0.104  0.00  0.00    +0.255 C 
ATOM      7  O   UNL     1       3.372   3.589   0.091  0.00  0.00    -0.272 OA
ATOM      8  H   UNL     1       0.313   3.962  -0.057  0.00  0.00    +0.155 HD
BRANCH   5  14
ATOM      9  C   UNL     1       2.135   1.405   0.745  0.00  0.00    +0.025 A 
ATOM     10  C   UNL     1       2.153   0.024   0.743  0.00  0.00    +0.025 A 
ATOM     11  C   UNL     1       1.213  -0.682   0.004  0.00  0.00    +0.030 A 
ATOM     12  C   UNL     1       0.254   0.001  -0.733  0.00  0.00    +0.025 A 
ATOM     13  C   UNL     1       0.236   1.381  -0.731  0.00  0.00    +0.025 A 
ATOM     14  C   UNL     1       1.176   2.087   0.008  0.00  0.00    +0.034 A 
BRANCH  11  15
ATOM     15  N   UNL     1       1.232  -2.081   0.002  0.00  0.00    -0.330 N 
ATOM     16  C   UNL     1       2.543  -2.589  -0.422  0.00  0.00    +0.105 C 
ATOM     17  C   UNL     1       2.574  -4.111  -0.274  0.00  0.00    +0.019 C 
ATOM     18  C   UNL     1       1.466  -4.726  -1.133  0.00  0.00    +0.003 C 
ATOM     19  C   UNL     1       0.116  -4.144  -0.705  0.00  0.00    +0.019 C 
ATOM     20  C   UNL     1       0.157  -2.620  -0.841  0.00  0.00    +0.105 C 
ENDBRANCH  11  15
ENDBRANCH   5  14
ENDBRANCH   4   6
ENDBRANCH   3   4
ENDBRANCH   1   3
BRANCH   1  21
ATOM     21  C   UNL     1       5.177   8.107   0.520  0.00  0.00    +0.139 C 
BRANCH  21  22
ATOM     22  C   UNL     1       5.070   9.628   0.641  0.00  0.00    +0.117 C 
BRANCH  22  23
ATOM     23  N   UNL     1       6.412  10.207   0.732  0.00  0.00    -0.299 N 
ATOM     24  C   UNL     1       6.565  11.541   0.847  0.00  0.00    +0.300 C 
ATOM     25  O   UNL     1       5.588  12.264   0.874  0.00  0.00    -0.253 OA
ATOM     26  N   UNL     1       7.800  12.073   0.931  0.00  0.00    -0.294 N 
ATOM     27  H   UNL     1       7.192   9.629   0.711  0.00  0.00    +0.150 HD
ATOM     28  H   UNL     1       8.580  11.496   0.909  0.00  0.00    +0.151 HD
BRANCH  26  29
ATOM     29  C   UNL     1       7.966  13.523   1.055  0.00  0.00    +0.037 C 
ATOM     30  C   UNL     1       7.349  14.213  -0.163  0.00  0.00    +0.029 C 
ATOM     31  C   UNL     1       7.522  15.728  -0.034  0.00  0.00    -0.008 C 
ATOM     32  C   UNL     1       9.012  16.066   0.043  0.00  0.00    +0.007 C 
ATOM     33  C   UNL     1       9.630  15.376   1.261  0.00  0.00    -0.008 C 
ATOM     34  C   UNL     1       9.456  13.861   1.132  0.00  0.00    +0.029 C 
ATOM     35  C   UNL     1       8.930  15.863   2.532  0.00  0.00    +0.007 C 
ATOM     36  C   UNL     1       7.440  15.524   2.455  0.00  0.00    -0.008 C 
ATOM     37  C   UNL     1       6.822  16.214   1.237  0.00  0.00    +0.007 C 
ATOM     38  C   UNL     1       7.267  14.010   2.326  0.00  0.00    +0.029 C 
ENDBRANCH  26  29
ENDBRANCH  22  23
ENDBRANCH  21  22
ENDBRANCH   1  21
TORSDOF 9
