REMARK  Name = ZINC05043466
REMARK  4 active torsions:
REMARK  status: ('A' for Active; 'I' for Inactive)
REMARK    1  A    between atoms: C_6  and  C_7
REMARK    2  A    between atoms: N_9  and  C_10
REMARK    3  A    between atoms: C_10  and  C_12
REMARK    4  A    between atoms: C_10  and  C_20
REMARK                            x       y       z     vdW  Elec       q    Type
REMARK                         _______ _______ _______ _____ _____    ______ ____
ROOT
ATOM      1  C   UNL     1       2.456  -4.279  -0.042  0.00  0.00    +0.165 C 
ENDROOT
BRANCH   1   2
ATOM      2  C   UNL     1       2.498  -4.468   1.476  0.00  0.00    -0.002 C 
ATOM      3  C   UNL     1       3.580  -3.564   2.072  0.00  0.00    +0.012 C 
ATOM      4  C   UNL     1       3.623  -3.753   3.590  0.00  0.00    -0.010 C 
ATOM      5  C   UNL     1       2.264  -3.384   4.188  0.00  0.00    +0.007 C 
ATOM      6  C   UNL     1       1.182  -4.287   3.592  0.00  0.00    -0.010 C 
ATOM      7  C   UNL     1       1.139  -4.098   2.074  0.00  0.00    +0.012 C 
ATOM      8  C   UNL     1       1.502  -5.747   3.916  0.00  0.00    +0.007 C 
ATOM      9  C   UNL     1       2.861  -6.117   3.318  0.00  0.00    -0.010 C 
ATOM     10  C   UNL     1       3.942  -5.213   3.914  0.00  0.00    +0.007 C 
ATOM     11  C   UNL     1       2.818  -5.928   1.800  0.00  0.00    +0.012 C 
ENDBRANCH   1   2
BRANCH   1  12
ATOM     12  C   UNL     1       3.756  -4.749  -0.643  0.00  0.00    +0.236 C 
ATOM     13  O   UNL     1       4.677  -3.972  -0.779  0.00  0.00    -0.274 OA
ATOM     14  N   UNL     1       3.895  -6.032  -1.029  0.00  0.00    -0.300 N 
ATOM     15  C   UNL     1       2.756  -6.959  -0.970  0.00  0.00    +0.108 C 
ATOM     16  C   UNL     1       2.579  -7.604  -2.353  0.00  0.00    +0.019 C 
ATOM     17  C   UNL     1       3.897  -8.254  -2.779  0.00  0.00    +0.003 C 
ATOM     18  C   UNL     1       4.986  -7.184  -2.883  0.00  0.00    +0.019 C 
ATOM     19  C   UNL     1       5.189  -6.534  -1.511  0.00  0.00    +0.108 C 
ENDBRANCH   1  12
BRANCH   1  22
ATOM     20  C   UNL     1       1.014  -2.345  -0.383  0.00  0.00    +0.245 C 
ATOM     21  O   UNL     1       0.055  -3.056  -0.153  0.00  0.00    -0.270 OA
ATOM     22  N   UNL     1       2.259  -2.861  -0.352  0.00  0.00    -0.299 N 
ATOM     23  H   UNL     1       3.024  -2.294  -0.536  0.00  0.00    +0.150 HD
BRANCH  20  29
ATOM     24  C   UNL     1      -0.473  -0.377  -0.730  0.00  0.00    +0.014 A 
ATOM     25  C   UNL     1      -0.653   0.958  -1.023  0.00  0.00    +0.021 A 
ATOM     26  C   UNL     1       0.441   1.766  -1.285  0.00  0.00    +0.041 A 
ATOM     27  C   UNL     1       1.722   1.238  -1.254  0.00  0.00    +0.021 A 
ATOM     28  C   UNL     1       1.914  -0.096  -0.962  0.00  0.00    +0.014 A 
ATOM     29  C   UNL     1       0.815  -0.915  -0.697  0.00  0.00    +0.037 A 
ATOM     30 CL   UNL     1       0.207   3.446  -1.655  0.00  0.00    -0.084 Cl
ENDBRANCH  20  29
ENDBRANCH   1  22
TORSDOF 4
