REMARK  Name = ZINC09308644
REMARK  4 active torsions:
REMARK  status: ('A' for Active; 'I' for Inactive)
REMARK    1  A    between atoms: C_1  and  O_2
REMARK    2  A    between atoms: O_2  and  C_3
REMARK    3  A    between atoms: C_8  and  C_9
REMARK    4  A    between atoms: C_12  and  C_24
REMARK                            x       y       z     vdW  Elec       q    Type
REMARK                         _______ _______ _______ _____ _____    ______ ____
ROOT
ATOM      1  C   UNL     1       0.018  -2.829  -0.013  0.00  0.00    +0.126 C 
ATOM      2  C   UNL     1       0.052  -3.711  -1.266  0.00  0.00    +0.057 C 
ATOM      3  C   UNL     1       1.204  -4.716  -1.160  0.00  0.00    +0.106 C 
ATOM      4  N   UNL     1       0.949  -5.603  -0.009  0.00  0.00    -0.309 N 
ATOM      5  C   UNL     1       0.510  -4.991   1.156  0.00  0.00    +0.175 A 
ATOM      6  N   UNL     1       0.072  -3.685   1.176  0.00  0.00    -0.306 N 
ATOM      7  C   UNL     1      -0.276  -3.394   2.465  0.00  0.00    +0.069 A 
ATOM      8  C   UNL     1      -0.774  -2.248   3.073  0.00  0.00    +0.028 A 
ATOM      9  C   UNL     1      -1.021  -2.312   4.435  0.00  0.00    +0.002 A 
ATOM     10  C   UNL     1      -0.786  -3.461   5.170  0.00  0.00    +0.002 A 
ATOM     11  C   UNL     1      -0.290  -4.614   4.589  0.00  0.00    +0.028 A 
ATOM     12  C   UNL     1      -0.033  -4.573   3.214  0.00  0.00    +0.065 A 
ATOM     13  N   UNL     1       0.440  -5.505   2.355  0.00  0.00    -0.327 N 
ATOM     14  H   UNL     1       1.082  -6.562  -0.064  0.00  0.00    +0.149 HD
ATOM     15  H   UNL     1       0.692  -6.411   2.593  0.00  0.00    +0.169 HD
ENDROOT
BRANCH   3  16
ATOM     16  C   UNL     1       2.502  -3.979  -0.958  0.00  0.00    -0.027 A 
ATOM     17  C   UNL     1       2.846  -3.516   0.299  0.00  0.00    +0.006 A 
ATOM     18  C   UNL     1       4.037  -2.840   0.484  0.00  0.00    +0.015 A 
ATOM     19  C   UNL     1       4.885  -2.626  -0.587  0.00  0.00    +0.018 A 
ATOM     20  C   UNL     1       4.541  -3.090  -1.844  0.00  0.00    +0.015 A 
ATOM     21  C   UNL     1       3.352  -3.770  -2.028  0.00  0.00    +0.006 A 
ATOM     22 BR   UNL     1       6.515  -1.701  -0.334  0.00  0.00    -0.050 Br
ENDBRANCH   3  16
BRANCH   1  28
ATOM     23  C   UNL     1      -1.200  -0.637   0.010  0.00  0.00    +0.125 A 
ATOM     24  C   UNL     1      -2.375   0.101   0.019  0.00  0.00    +0.046 A 
ATOM     25  C   UNL     1      -3.596  -0.545   0.027  0.00  0.00    +0.004 A 
ATOM     26  C   UNL     1      -3.648  -1.927   0.026  0.00  0.00    +0.001 A 
ATOM     27  C   UNL     1      -2.479  -2.665   0.017  0.00  0.00    +0.009 A 
ATOM     28  C   UNL     1      -1.255  -2.023   0.003  0.00  0.00    +0.017 A 
BRANCH  23  30
ATOM     29  C   UNL     1      -0.017   1.425   0.010  0.00  0.00    +0.277 C 
ATOM     30  O   UNL     1       0.002  -0.004   0.002  0.00  0.00    -0.495 OA
ENDBRANCH  23  30
ENDBRANCH   1  28
TORSDOF 3
