REMARK  Name = ZINC38656086
REMARK  11 active torsions:
REMARK  status: ('A' for Active; 'I' for Inactive)
REMARK    1  A    between atoms: C_1  and  C_2
REMARK    2  A    between atoms: C_2  and  C_3
REMARK    3  A    between atoms: C_3  and  C_4
REMARK    4  A    between atoms: C_4  and  O_5
REMARK    5  A    between atoms: O_5  and  C_6
REMARK    6  A    between atoms: C_11  and  C_12
REMARK    7  A    between atoms: C_12  and  O_14
REMARK    8  A    between atoms: O_14  and  C_15
REMARK    9  A    between atoms: C_22  and  N_36
REMARK   10  A    between atoms: C_23  and  C_34
REMARK   11  A    between atoms: C_24  and  C_26
REMARK                            x       y       z     vdW  Elec       q    Type
REMARK                         _______ _______ _______ _____ _____    ______ ____
ROOT
ATOM      1  C   UNL     1       3.842  -3.015  -6.674  0.00  0.00    +0.135 A 
ATOM      2  C   UNL     1       3.733  -1.670  -6.350  0.00  0.00    +0.047 A 
ATOM      3  C   UNL     1       4.244  -0.712  -7.203  0.00  0.00    +0.012 A 
ATOM      4  C   UNL     1       4.864  -1.087  -8.382  0.00  0.00    +0.008 A 
ATOM      5  C   UNL     1       4.976  -2.429  -8.710  0.00  0.00    +0.138 A 
ATOM      6  C   UNL     1       4.467  -3.394  -7.850  0.00  0.00    +0.093 A 
ATOM      7  O   UNL     1       5.580  -2.816  -9.860  0.00  0.00    -0.441 OA
ATOM      8  C   UNL     1       5.734  -1.938 -10.865  0.00  0.00    +0.199 C 
ATOM      9  C   UNL     1       5.667  -0.601 -10.665  0.00  0.00    +0.098 C 
ATOM     10  C   UNL     1       5.415  -0.027  -9.299  0.00  0.00    +0.098 C 
ENDROOT
BRANCH  10  11
ATOM     11  C   UNL     1       6.709   0.500  -8.732  0.00  0.00    -0.033 A 
ATOM     12  C   UNL     1       7.777  -0.357  -8.537  0.00  0.00    +0.006 A 
ATOM     13  C   UNL     1       8.963   0.125  -8.017  0.00  0.00    +0.022 A 
ATOM     14  C   UNL     1       9.084   1.464  -7.693  0.00  0.00    +0.059 A 
ATOM     15  C   UNL     1       8.015   2.322  -7.890  0.00  0.00    +0.060 A 
ATOM     16  C   UNL     1       6.829   1.839  -8.415  0.00  0.00    +0.026 A 
ATOM     17 CL   UNL     1       8.164   4.003  -7.483  0.00  0.00    -0.082 Cl
ATOM     18 CL   UNL     1      10.574   2.069  -7.040  0.00  0.00    -0.082 Cl
ENDBRANCH  10  11
BRANCH   8  19
ATOM     19  N   UNL     1       5.966  -2.410 -12.133  0.00  0.00    -0.328 N 
ATOM     20  H   UNL     1       6.017  -3.366 -12.293  0.00  0.00    +0.145 HD
ATOM     21  H   UNL     1       6.079  -1.789 -12.869  0.00  0.00    +0.145 HD
ENDBRANCH   8  19
BRANCH   9  22
ATOM     22  C   UNL     1       5.839   0.285 -11.777  0.00  0.00    +0.101 C 
ATOM     23  N   UNL     1       5.975   0.988 -12.659  0.00  0.00    -0.191 NA
ENDBRANCH   9  22
BRANCH   1  24
ATOM     24  O   UNL     1       3.340  -3.960  -5.835  0.00  0.00    -0.422 OA
BRANCH  24  25
ATOM     25  C   UNL     1       4.205  -4.639  -5.057  0.00  0.00    +0.348 C 
ATOM     26  O   UNL     1       5.401  -4.464  -5.182  0.00  0.00    -0.244 OA
BRANCH  25  32
ATOM     27  C   UNL     1       4.598  -6.304  -3.243  0.00  0.00    +0.134 A 
ATOM     28  C   UNL     1       4.111  -7.197  -2.299  0.00  0.00    +0.046 A 
ATOM     29  C   UNL     1       2.751  -7.389  -2.164  0.00  0.00    +0.004 A 
ATOM     30  C   UNL     1       1.861  -6.694  -2.969  0.00  0.00    +0.001 A 
ATOM     31  C   UNL     1       2.326  -5.804  -3.911  0.00  0.00    +0.018 A 
ATOM     32  C   UNL     1       3.701  -5.595  -4.055  0.00  0.00    +0.101 A 
BRANCH  27  33
ATOM     33  O   UNL     1       5.934  -6.114  -3.377  0.00  0.00    -0.491 OA
BRANCH  33  34
ATOM     34  C   UNL     1       6.786  -6.872  -2.515  0.00  0.00    +0.229 C 
BRANCH  34  35
ATOM     35  C   UNL     1       8.247  -6.526  -2.810  0.00  0.00    +0.041 C 
BRANCH  35  37
ATOM     36  C   UNL     1      10.620  -6.992  -2.183  0.00  0.00    +0.004 C 
ATOM     37  C   UNL     1       9.159  -7.338  -1.888  0.00  0.00    -0.000 C 
ENDBRANCH  35  37
ENDBRANCH  34  35
ENDBRANCH  33  34
ENDBRANCH  27  33
ENDBRANCH  25  32
ENDBRANCH  24  25
ENDBRANCH   1  24
TORSDOF 10
