REMARK  Name = ZINC12951032
REMARK  6 active torsions:
REMARK  status: ('A' for Active; 'I' for Inactive)
REMARK    1  A    between atoms: C_1  and  C_2
REMARK    2  A    between atoms: C_2  and  C_3
REMARK    3  A    between atoms: C_3  and  C_22
REMARK    4  A    between atoms: N_6  and  C_10
REMARK    5  A    between atoms: C_10  and  C_11
REMARK    6  A    between atoms: C_14  and  C_16
REMARK                            x       y       z     vdW  Elec       q    Type
REMARK                         _______ _______ _______ _____ _____    ______ ____
ROOT
ATOM      1  C   UNL     1      -2.514   0.979   0.019  0.00  0.00    +0.138 C 
ATOM      2  C   UNL     1      -2.942   0.654  -1.398  0.00  0.00    +0.251 C 
ATOM      3  O   UNL     1      -3.209   1.441  -2.281  0.00  0.00    -0.272 OA
ATOM      4  N   UNL     1      -2.965  -0.692  -1.473  0.00  0.00    -0.215 N 
ATOM      5  C   UNL     1      -2.614  -1.256  -0.311  0.00  0.00    +0.310 C 
ATOM      6  O   UNL     1      -2.560  -2.457  -0.133  0.00  0.00    -0.252 OA
ATOM      7  N   UNL     1      -2.328  -0.344   0.640  0.00  0.00    -0.281 N 
ATOM      8  H   UNL     1      -2.053  -0.522   1.553  0.00  0.00    +0.152 HD
ENDROOT
BRANCH   1   9
ATOM      9  C   UNL     1      -1.219   1.750   0.017  0.00  0.00    -0.015 A 
ATOM     10  C   UNL     1      -0.013   1.076   0.008  0.00  0.00    +0.007 A 
ATOM     11  C   UNL     1       1.175   1.783   0.000  0.00  0.00    +0.020 A 
ATOM     12  C   UNL     1       1.156   3.166   0.008  0.00  0.00    +0.041 A 
ATOM     13  C   UNL     1      -0.052   3.841   0.023  0.00  0.00    +0.020 A 
ATOM     14  C   UNL     1      -1.239   3.133   0.031  0.00  0.00    +0.007 A 
ATOM     15 CL   UNL     1       2.647   4.055  -0.002  0.00  0.00    -0.084 Cl
ENDBRANCH   1   9
BRANCH   1  17
ATOM     16  C   UNL     1      -4.872   0.911   0.841  0.00  0.00    +0.007 C 
ATOM     17  C   UNL     1      -3.607   1.766   0.745  0.00  0.00    +0.037 C 
ENDBRANCH   1  17
BRANCH   4  18
ATOM     18  C   UNL     1      -3.328  -1.443  -2.676  0.00  0.00    +0.214 C 
BRANCH  18  19
ATOM     19  C   UNL     1      -2.093  -1.701  -3.500  0.00  0.00    +0.214 A 
ATOM     20  N   UNL     1      -1.315  -2.742  -3.392  0.00  0.00    -0.220 NA
ATOM     21  C   UNL     1      -0.318  -2.634  -4.283  0.00  0.00    +0.161 A 
ATOM     22  C   UNL     1      -0.501  -1.473  -4.962  0.00  0.00    +0.155 A 
ATOM     23  O   UNL     1      -1.620  -0.900  -4.464  0.00  0.00    -0.438 OA
BRANCH  22  24
ATOM     24  C   UNL     1       0.356  -0.939  -6.042  0.00  0.00    +0.019 A 
ATOM     25  C   UNL     1       1.487  -1.646  -6.452  0.00  0.00    +0.011 A 
ATOM     26  C   UNL     1       2.280  -1.145  -7.464  0.00  0.00    +0.001 A 
ATOM     27  C   UNL     1       1.962   0.061  -8.064  0.00  0.00    +0.000 A 
ATOM     28  C   UNL     1       0.845   0.769  -7.658  0.00  0.00    +0.001 A 
ATOM     29  C   UNL     1       0.041   0.276  -6.651  0.00  0.00    +0.011 A 
ENDBRANCH  22  24
ENDBRANCH  18  19
ENDBRANCH   4  18
TORSDOF 5
