REMARK  Name = ZINC02387012
REMARK  10 active torsions:
REMARK  status: ('A' for Active; 'I' for Inactive)
REMARK    1  A    between atoms: C_1  and  C_2
REMARK    2  A    between atoms: C_2  and  C_3
REMARK    3  A    between atoms: C_3  and  C_5
REMARK    4  A    between atoms: C_3  and  C_6
REMARK    5  A    between atoms: C_6  and  O_7
REMARK    6  A    between atoms: O_7  and  C_8
REMARK    7  A    between atoms: C_8  and  C_10
REMARK    8  A    between atoms: N_21  and  C_24
REMARK    9  A    between atoms: C_22  and  N_23
REMARK   10  A    between atoms: C_24  and  C_25
REMARK                            x       y       z     vdW  Elec       q    Type
REMARK                         _______ _______ _______ _____ _____    ______ ____
ROOT
ATOM      1  C   UNL     1      -0.728  -1.229   3.385  0.00  0.00    +0.126 A 
ATOM      2  C   UNL     1       0.743  -1.228   3.426  0.00  0.00    +0.124 A 
ATOM      3  C   UNL     1       1.168  -0.755   2.105  0.00  0.00    +0.162 A 
ATOM      4  N   UNL     1       2.452  -0.639   1.842  0.00  0.00    -0.226 NA
ATOM      5  C   UNL     1       3.357  -0.965   2.775  0.00  0.00    +0.092 A 
ATOM      6  C   UNL     1       4.732  -0.850   2.499  0.00  0.00    +0.030 A 
ATOM      7  C   UNL     1       5.643  -1.183   3.453  0.00  0.00    +0.002 A 
ATOM      8  C   UNL     1       5.236  -1.638   4.706  0.00  0.00    +0.002 A 
ATOM      9  C   UNL     1       3.916  -1.762   5.009  0.00  0.00    +0.030 A 
ATOM     10  C   UNL     1       2.943  -1.428   4.049  0.00  0.00    +0.090 A 
ATOM     11  N   UNL     1       1.641  -1.545   4.336  0.00  0.00    -0.241 NA
ATOM     12  N   UNL     1       0.022  -0.500   1.381  0.00  0.00    -0.308 N 
ATOM     13  C   UNL     1      -1.087  -0.777   2.118  0.00  0.00    +0.114 A 
ENDROOT
BRANCH  13  14
ATOM     14  N   UNL     1      -2.376  -0.632   1.676  0.00  0.00    -0.344 N 
ATOM     15  H   UNL     1      -2.547  -0.310   0.777  0.00  0.00    +0.144 HD
ATOM     16  H   UNL     1      -3.117  -0.851   2.262  0.00  0.00    +0.144 HD
ENDBRANCH  13  14
BRANCH   1  17
ATOM     17  C   UNL     1      -1.605  -1.613   4.428  0.00  0.00    +0.345 C 
ATOM     18  O   UNL     1      -1.972  -2.770   4.519  0.00  0.00    -0.245 OA
BRANCH  17  19
ATOM     19  O   UNL     1      -2.035  -0.697   5.320  0.00  0.00    -0.461 OA
BRANCH  19  20
ATOM     20  C   UNL     1      -2.918  -1.155   6.346  0.00  0.00    +0.235 C 
BRANCH  20  21
ATOM     21  C   UNL     1      -3.295   0.017   7.255  0.00  0.00    +0.023 C 
ATOM     22  C   UNL     1      -4.100   1.044   6.457  0.00  0.00    +0.011 C 
BRANCH  21  24
ATOM     23  C   UNL     1      -4.410   0.652   9.399  0.00  0.00    +0.004 C 
ATOM     24  C   UNL     1      -4.139  -0.496   8.424  0.00  0.00    +0.003 C 
ENDBRANCH  21  24
ENDBRANCH  20  21
ENDBRANCH  19  20
ENDBRANCH  17  19
ENDBRANCH   1  17
BRANCH  12  25
ATOM     25  C   UNL     1       0.002  -0.004   0.002  0.00  0.00    +0.160 C 
BRANCH  25  26
ATOM     26  C   UNL     1      -0.018   1.503   0.010  0.00  0.00    -0.028 A 
ATOM     27  C   UNL     1      -1.225   2.177   0.020  0.00  0.00    +0.007 A 
ATOM     28  C   UNL     1      -1.244   3.559   0.033  0.00  0.00    +0.020 A 
ATOM     29  C   UNL     1      -0.056   4.268   0.025  0.00  0.00    +0.041 A 
ATOM     30  C   UNL     1       1.151   3.592   0.010  0.00  0.00    +0.020 A 
ATOM     31  C   UNL     1       1.169   2.210   0.003  0.00  0.00    +0.007 A 
ATOM     32 CL   UNL     1      -0.079   6.003   0.036  0.00  0.00    -0.084 Cl
ENDBRANCH  25  26
ENDBRANCH  12  25
TORSDOF 8
