REMARK  Name = ZINC62158759
REMARK  6 active torsions:
REMARK  status: ('A' for Active; 'I' for Inactive)
REMARK    1  A    between atoms: C_1  and  C_2
REMARK    2  A    between atoms: C_6  and  C_12
REMARK    3  A    between atoms: C_12  and  N_13
REMARK    4  A    between atoms: N_13  and  S_14
REMARK    5  A    between atoms: S_14  and  C_17
REMARK    6  A    between atoms: C_27  and  C_29
REMARK                            x       y       z     vdW  Elec       q    Type
REMARK                         _______ _______ _______ _____ _____    ______ ____
ROOT
ATOM      1  S   UNL     1       1.914  -7.888  -2.036  0.00  0.00    +0.059 S 
ATOM      2  O   UNL     1       3.293  -8.208  -2.159  0.00  0.00    -0.153 OA
ATOM      3  O   UNL     1       1.076  -8.492  -1.060  0.00  0.00    -0.153 OA
ENDROOT
BRANCH   1   4
ATOM      4  C   UNL     1       1.180  -8.216  -3.603  0.00  0.00    +0.106 A 
ATOM      5  C   UNL     1      -0.176  -8.476  -3.689  0.00  0.00    +0.030 A 
ATOM      6  C   UNL     1      -0.751  -8.734  -4.917  0.00  0.00    +0.026 A 
ATOM      7  C   UNL     1       0.032  -8.733  -6.066  0.00  0.00    +0.040 A 
ATOM      8  C   UNL     1       1.390  -8.470  -5.980  0.00  0.00    -0.024 A 
ATOM      9  C   UNL     1       1.958  -8.208  -4.744  0.00  0.00    +0.034 A 
ATOM     10  C   UNL     1       2.266  -8.450  -7.204  0.00  0.00    +0.038 C 
ATOM     11  C   UNL     1       1.610  -9.225  -8.346  0.00  0.00    +0.024 C 
ATOM     12  C   UNL     1       0.176  -8.711  -8.534  0.00  0.00    +0.114 C 
ATOM     13  N   UNL     1      -0.570  -9.003  -7.303  0.00  0.00    -0.271 N 
ATOM     14  C   UNL     1      -1.813  -9.521  -7.361  0.00  0.00    +0.217 C 
ATOM     15  O   UNL     1      -2.374  -9.867  -6.343  0.00  0.00    -0.276 OA
ATOM     16  C   UNL     1      -2.505  -9.673  -8.691  0.00  0.00    +0.109 C 
ENDBRANCH   1   4
BRANCH   1  17
ATOM     17  N   UNL     1       1.828  -6.253  -1.788  0.00  0.00    -0.186 NA
ATOM     18  H   UNL     1       2.641  -5.726  -1.736  0.00  0.00    +0.148 HD
BRANCH  17  19
ATOM     19  C   UNL     1       0.523  -5.601  -1.645  0.00  0.00    +0.141 C 
BRANCH  19  25
ATOM     20  C   UNL     1       1.610   1.798  -1.097  0.00  0.00    +0.063 C 
ATOM     21  C   UNL     1       1.384   0.316  -0.950  0.00  0.00    +0.014 A 
ATOM     22  C   UNL     1       1.287  -0.554  -1.968  0.00  0.00    +0.030 A 
ATOM     23  C   UNL     1       1.071  -1.878  -1.381  0.00  0.00    +0.000 A 
ATOM     24  C   UNL     1       0.897  -3.158  -1.911  0.00  0.00    +0.015 A 
ATOM     25  C   UNL     1       0.712  -4.220  -1.072  0.00  0.00    -0.031 A 
ATOM     26  C   UNL     1       0.695  -4.037   0.304  0.00  0.00    +0.007 A 
ATOM     27  C   UNL     1       0.865  -2.784   0.848  0.00  0.00    +0.026 A 
ATOM     28  C   UNL     1       1.055  -1.688   0.013  0.00  0.00    +0.047 A 
ATOM     29  N   UNL     1       1.253  -0.344   0.241  0.00  0.00    -0.358 N 
ATOM     30  H   UNL     1       1.292   0.072   1.116  0.00  0.00    +0.166 HD
ENDBRANCH  19  25
ENDBRANCH  17  19
ENDBRANCH   1  17
TORSDOF 4
