REMARK  Name = ZINC16885740
REMARK  6 active torsions:
REMARK  status: ('A' for Active; 'I' for Inactive)
REMARK    1  A    between atoms: C_1  and  C_2
REMARK    2  A    between atoms: C_3  and  C_29
REMARK    3  A    between atoms: N_6  and  C_21
REMARK    4  A    between atoms: C_12  and  C_15
REMARK    5  A    between atoms: C_21  and  C_22
REMARK    6  A    between atoms: C_29  and  C_30
REMARK                            x       y       z     vdW  Elec       q    Type
REMARK                         _______ _______ _______ _____ _____    ______ ____
ROOT
ATOM      1  C   UNL     1       1.871   4.760  -1.049  0.00  0.00    +0.066 C 
ATOM      2  C   UNL     1       0.717   3.877  -0.648  0.00  0.00    +0.050 A 
ATOM      3  C   UNL     1      -0.564   4.326  -0.786  0.00  0.00    +0.042 A 
ATOM      4  C   UNL     1      -1.624   3.484  -0.404  0.00  0.00    +0.259 A 
ATOM      5  O   UNL     1      -2.782   3.853  -0.514  0.00  0.00    -0.267 OA
ATOM      6  N   UNL     1      -1.336   2.257   0.081  0.00  0.00    -0.276 N 
ATOM      7  C   UNL     1      -0.038   1.866   0.201  0.00  0.00    +0.205 A 
ATOM      8  N   UNL     1       0.950   2.661  -0.159  0.00  0.00    -0.220 NA
ATOM      9  N   UNL     1       0.247   0.621   0.699  0.00  0.00    -0.264 N 
ATOM     10  C   UNL     1       1.565   0.252   0.936  0.00  0.00    +0.165 A 
ATOM     11  N   UNL     1       2.042  -0.882   1.412  0.00  0.00    -0.225 NA
ATOM     12  C   UNL     1       3.344  -1.067   1.573  0.00  0.00    +0.080 A 
ATOM     13  C   UNL     1       4.210  -0.060   1.249  0.00  0.00    +0.076 A 
ATOM     14  S   UNL     1       3.064   1.192   0.685  0.00  0.00    -0.060 S 
ATOM     15  H   UNL     1      -0.472  -0.003   0.886  0.00  0.00    +0.157 HD
ENDROOT
BRANCH  12  16
ATOM     16  C   UNL     1       3.858  -2.353   2.104  0.00  0.00    +0.001 A 
ATOM     17  C   UNL     1       5.229  -2.543   2.272  0.00  0.00    +0.010 A 
ATOM     18  C   UNL     1       5.701  -3.740   2.771  0.00  0.00    +0.001 A 
ATOM     19  C   UNL     1       4.817  -4.754   3.095  0.00  0.00    +0.000 A 
ATOM     20  C   UNL     1       3.456  -4.572   2.927  0.00  0.00    +0.001 A 
ATOM     21  C   UNL     1       2.972  -3.378   2.433  0.00  0.00    +0.010 A 
ENDBRANCH  12  16
BRANCH   6  22
ATOM     22  C   UNL     1      -2.416   1.353   0.482  0.00  0.00    +0.164 C 
BRANCH  22  23
ATOM     23  C   UNL     1      -3.006   1.823   1.787  0.00  0.00    -0.009 A 
ATOM     24  C   UNL     1      -4.161   2.582   1.790  0.00  0.00    +0.007 A 
ATOM     25  C   UNL     1      -4.702   3.013   2.987  0.00  0.00    +0.000 A 
ATOM     26  C   UNL     1      -4.088   2.685   4.181  0.00  0.00    +0.001 A 
ATOM     27  C   UNL     1      -2.933   1.925   4.180  0.00  0.00    +0.020 A 
ATOM     28  C   UNL     1      -2.394   1.489   2.982  0.00  0.00    +0.046 A 
ATOM     29 CL   UNL     1      -0.948   0.529   2.979  0.00  0.00    -0.083 Cl
ENDBRANCH  22  23
ENDBRANCH   6  22
BRANCH   3  30
ATOM     30  C   UNL     1      -0.839   5.701  -1.339  0.00  0.00    +0.077 C 
BRANCH  30  31
ATOM     31  C   UNL     1      -1.099   5.604  -2.820  0.00  0.00    -0.043 A 
ATOM     32  C   UNL     1      -0.050   5.712  -3.714  0.00  0.00    +0.004 A 
ATOM     33  C   UNL     1      -0.287   5.619  -5.073  0.00  0.00    +0.000 A 
ATOM     34  C   UNL     1      -1.575   5.426  -5.538  0.00  0.00    +0.000 A 
ATOM     35  C   UNL     1      -2.624   5.324  -4.644  0.00  0.00    +0.000 A 
ATOM     36  C   UNL     1      -2.386   5.412  -3.285  0.00  0.00    +0.004 A 
ENDBRANCH  30  31
ENDBRANCH   3  30
TORSDOF 5
