REMARK  Name = ZINC39694390
REMARK  9 active torsions:
REMARK  status: ('A' for Active; 'I' for Inactive)
REMARK    1  A    between atoms: C_1  and  C_2
REMARK    2  A    between atoms: C_2  and  C_3
REMARK    3  A    between atoms: C_3  and  C_5
REMARK    4  A    between atoms: C_3  and  C_6
REMARK    5  A    between atoms: C_6  and  C_7
REMARK    6  A    between atoms: C_11  and  C_20
REMARK    7  A    between atoms: N_22  and  C_23
REMARK    8  A    between atoms: C_23  and  C_24
REMARK    9  A    between atoms: C_29  and  N_30
REMARK                            x       y       z     vdW  Elec       q    Type
REMARK                         _______ _______ _______ _____ _____    ______ ____
ROOT
ATOM      1  C   UNL     1      -2.797  -2.212   0.443  0.00  0.00    +0.216 C 
ATOM      2  O   UNL     1      -3.797  -1.528   0.379  0.00  0.00    -0.276 OA
ATOM      3  N   UNL     1      -2.894  -3.555   0.387  0.00  0.00    -0.300 N 
ATOM      4  C   UNL     1      -1.791  -4.544   0.345  0.00  0.00    +0.121 C 
ATOM      5  C   UNL     1      -2.273  -5.704   1.245  0.00  0.00    +0.100 C 
ATOM      6  C   UNL     1      -3.807  -5.590   1.244  0.00  0.00    -0.004 C 
ATOM      7  C   UNL     1      -4.128  -4.377   0.359  0.00  0.00    +0.115 C 
ATOM      8  C   UNL     1      -4.430  -6.853   0.658  0.00  0.00    -0.010 C 
ATOM      9  C   UNL     1      -5.956  -6.740   0.721  0.00  0.00    -0.082 C 
ATOM     10  N   UNL     1      -6.378  -6.564   2.116  0.00  0.00    +0.379 N 
ATOM     11  C   UNL     1      -5.850  -5.300   2.644  0.00  0.00    -0.082 C 
ATOM     12  C   UNL     1      -4.319  -5.352   2.662  0.00  0.00    -0.010 C 
ATOM     13  H   UNL     1      -7.386  -6.551   2.162  0.00  0.00    -0.086 HD
ATOM     14  H   UNL     1      -6.029  -7.331   2.671  0.00  0.00    -0.086 HD
ENDROOT
BRANCH   5  15
ATOM     15  C   UNL     1      -1.733  -5.543   2.643  0.00  0.00    +0.218 C 
ATOM     16  O   UNL     1      -1.508  -4.435   3.082  0.00  0.00    -0.275 OA
ATOM     17  N   UNL     1      -1.501  -6.630   3.405  0.00  0.00    -0.311 N 
ATOM     18  H   UNL     1      -1.607  -7.518   3.028  0.00  0.00    +0.149 HD
BRANCH  17  19
ATOM     19  C   UNL     1      -1.087  -6.471   4.801  0.00  0.00    +0.141 C 
BRANCH  19  20
ATOM     20  C   UNL     1      -0.781  -7.824   5.391  0.00  0.00    -0.009 A 
ATOM     21  C   UNL     1      -1.702  -8.443   6.213  0.00  0.00    +0.007 A 
ATOM     22  C   UNL     1      -1.422  -9.684   6.756  0.00  0.00    +0.000 A 
ATOM     23  C   UNL     1      -0.220 -10.309   6.477  0.00  0.00    +0.002 A 
ATOM     24  C   UNL     1       0.705  -9.695   5.655  0.00  0.00    +0.023 A 
ATOM     25  C   UNL     1       0.424  -8.451   5.104  0.00  0.00    +0.035 A 
BRANCH  25  26
ATOM     26  N   UNL     1       1.355  -7.830   4.269  0.00  0.00    -0.325 N 
ATOM     27  C   UNL     1       2.409  -6.964   4.820  0.00  0.00    +0.133 C 
ATOM     28  C   UNL     1       3.757  -7.415   4.246  0.00  0.00    +0.178 C 
ATOM     29  O   UNL     1       3.664  -7.474   2.820  0.00  0.00    -0.377 OA
ATOM     30  C   UNL     1       2.713  -8.424   2.334  0.00  0.00    +0.178 C 
ATOM     31  C   UNL     1       1.315  -8.028   2.811  0.00  0.00    +0.133 C 
ENDBRANCH  25  26
ENDBRANCH  19  20
ENDBRANCH  17  19
ENDBRANCH   5  15
BRANCH   1  32
ATOM     32  C   UNL     1      -1.447  -1.559   0.586  0.00  0.00    +0.099 C 
BRANCH  32  33
ATOM     33  C   UNL     1      -1.600  -0.040   0.472  0.00  0.00    -0.006 C 
ATOM     34  C   UNL     1      -2.070   0.321  -0.938  0.00  0.00    +0.008 C 
BRANCH  33  36
ATOM     35  C   UNL     1      -0.424   2.150   0.723  0.00  0.00    +0.004 C 
ATOM     36  C   UNL     1      -0.252   0.630   0.748  0.00  0.00    +0.000 C 
ENDBRANCH  33  36
ENDBRANCH  32  33
ENDBRANCH   1  32
TORSDOF 7
