REMARK  Name = ZINC57992628
REMARK  6 active torsions:
REMARK  status: ('A' for Active; 'I' for Inactive)
REMARK    1  A    between atoms: C_1  and  C_2
REMARK    2  A    between atoms: C_2  and  C_3
REMARK    3  A    between atoms: C_2  and  C_4
REMARK    4  A    between atoms: C_7  and  N_10
REMARK    5  A    between atoms: C_11  and  C_13
REMARK    6  A    between atoms: N_29  and  C_32
REMARK                            x       y       z     vdW  Elec       q    Type
REMARK                         _______ _______ _______ _____ _____    ______ ____
ROOT
ATOM      1  C   UNL     1       4.308  -3.000  -5.915  0.00  0.00    +0.111 C 
ATOM      2  C   UNL     1       4.884  -1.785  -6.691  0.00  0.00    +0.034 C 
ATOM      3  C   UNL     1       5.998  -2.449  -7.534  0.00  0.00    +0.059 C 
ATOM      4  C   UNL     1       7.099  -1.417  -7.824  0.00  0.00    +0.020 C 
ATOM      5  C   UNL     1       8.348  -1.935  -7.076  0.00  0.00    +0.017 C 
ATOM      6  C   UNL     1       7.741  -2.834  -5.972  0.00  0.00    +0.086 C 
ATOM      7  N   UNL     1       6.574  -3.495  -6.648  0.00  0.00    -0.282 NA
ATOM      8  C   UNL     1       5.550  -3.867  -5.659  0.00  0.00    +0.138 C 
ATOM      9  C   UNL     1       6.053  -3.676  -4.253  0.00  0.00    +0.004 A 
ATOM     10  C   UNL     1       6.514  -2.582  -3.556  0.00  0.00    +0.008 A 
ATOM     11  C   UNL     1       6.917  -2.720  -2.239  0.00  0.00    +0.000 A 
ATOM     12  C   UNL     1       6.854  -3.959  -1.627  0.00  0.00    +0.002 A 
ATOM     13  C   UNL     1       6.394  -5.057  -2.323  0.00  0.00    +0.024 A 
ATOM     14  C   UNL     1       5.986  -4.927  -3.648  0.00  0.00    +0.041 A 
ATOM     15  N   UNL     1       5.489  -5.872  -4.547  0.00  0.00    -0.272 N 
ATOM     16  C   UNL     1       5.207  -5.332  -5.748  0.00  0.00    +0.245 C 
ATOM     17  O   UNL     1       4.763  -5.913  -6.715  0.00  0.00    -0.273 OA
ATOM     18  C   UNL     1       5.295  -7.287  -4.222  0.00  0.00    +0.138 C 
ENDROOT
BRANCH   1  20
ATOM     19  N   UNL     1       2.850  -3.381  -3.953  0.00  0.00    -0.285 N 
ATOM     20  C   UNL     1       3.688  -2.558  -4.614  0.00  0.00    +0.223 C 
ATOM     21  O   UNL     1       3.944  -1.462  -4.163  0.00  0.00    -0.275 OA
ATOM     22  H   UNL     1       2.704  -4.284  -4.274  0.00  0.00    +0.155 HD
BRANCH  19  26
ATOM     23  C   UNL     1       0.888  -2.044  -0.530  0.00  0.00    -0.045 A 
ATOM     24  C   UNL     1       1.163  -1.160  -1.557  0.00  0.00    +0.006 A 
ATOM     25  C   UNL     1       1.814  -1.600  -2.693  0.00  0.00    +0.023 A 
ATOM     26  C   UNL     1       2.192  -2.932  -2.803  0.00  0.00    +0.033 A 
ATOM     27  C   UNL     1       1.914  -3.817  -1.770  0.00  0.00    +0.023 A 
ATOM     28  C   UNL     1       1.267  -3.369  -0.634  0.00  0.00    +0.006 A 
BRANCH  23  30
ATOM     29  C   UNL     1       1.005  -0.458   1.373  0.00  0.00    +0.012 C 
ATOM     30  C   UNL     1       0.178  -1.560   0.709  0.00  0.00    +0.013 C 
ATOM     31  C   UNL     1      -1.196  -1.006   0.325  0.00  0.00    +0.012 C 
ENDBRANCH  23  30
ENDBRANCH  19  26
ENDBRANCH   1  20
TORSDOF 3
