REMARK  Name = ZINC11909317
REMARK  7 active torsions:
REMARK  status: ('A' for Active; 'I' for Inactive)
REMARK    1  A    between atoms: C_4  and  C_7
REMARK    2  A    between atoms: C_7  and  C_8
REMARK    3  A    between atoms: C_8  and  C_9
REMARK    4  A    between atoms: C_9  and  C_16
REMARK    5  A    between atoms: C_21  and  C_22
REMARK    6  A    between atoms: C_21  and  N_67
REMARK    7  A    between atoms: C_25  and  N_28
REMARK                            x       y       z     vdW  Elec       q    Type
REMARK                         _______ _______ _______ _____ _____    ______ ____
ROOT
ATOM      1  C   UNL     1       3.598   3.584   0.943  0.00  0.00    +0.018 C 
ATOM      2  C   UNL     1       2.838   3.931  -0.341  0.00  0.00    -0.013 C 
ATOM      3  C   UNL     1       1.387   3.461  -0.211  0.00  0.00    -0.078 C 
ATOM      4  C   UNL     1       2.043   1.659   1.270  0.00  0.00    -0.078 C 
ATOM      5  C   UNL     1       3.513   2.075   1.185  0.00  0.00    -0.013 C 
ATOM      6  N   UNL     1       1.374   1.998  -0.004  0.00  0.00    +0.382 N 
ATOM      7  H   UNL     1       1.880   1.547  -0.776  0.00  0.00    -0.081 HD
ENDROOT
BRANCH   1   8
ATOM      8  C   UNL     1       5.064   3.998   0.796  0.00  0.00    +0.115 C 
ATOM      9  C   UNL     1       5.171   5.477   0.479  0.00  0.00    +0.244 C 
ATOM     10  O   UNL     1       4.797   6.402   1.167  0.00  0.00    -0.273 OA
ATOM     11  N   UNL     1       5.770   5.549  -0.726  0.00  0.00    -0.238 N 
ATOM     12  C   UNL     1       6.053   4.334  -1.210  0.00  0.00    +0.307 C 
ATOM     13  O   UNL     1       6.594   4.142  -2.281  0.00  0.00    -0.252 OA
ATOM     14  N   UNL     1       5.673   3.345  -0.375  0.00  0.00    -0.285 N 
ATOM     15  H   UNL     1       5.971   6.379  -1.186  0.00  0.00    +0.159 HD
ATOM     16  H   UNL     1       5.778   2.391  -0.517  0.00  0.00    +0.151 HD
BRANCH   8  17
ATOM     17  C   UNL     1       5.846   3.662   2.067  0.00  0.00    +0.040 C 
BRANCH  17  18
ATOM     18  C   UNL     1       7.306   4.086   1.895  0.00  0.00    +0.038 C 
BRANCH  18  22
ATOM     19  C   UNL     1       9.491   3.147   5.444  0.00  0.00    +0.000 A 
ATOM     20  C   UNL     1       9.397   2.219   4.423  0.00  0.00    +0.000 A 
ATOM     21  C   UNL     1       8.690   2.522   3.275  0.00  0.00    +0.003 A 
ATOM     22  C   UNL     1       8.076   3.754   3.147  0.00  0.00    -0.047 A 
ATOM     23  C   UNL     1       8.174   4.684   4.165  0.00  0.00    +0.003 A 
ATOM     24  C   UNL     1       8.877   4.379   5.315  0.00  0.00    +0.000 A 
ENDBRANCH  18  22
ENDBRANCH  17  18
ENDBRANCH   8  17
ENDBRANCH   1   8
BRANCH   6  25
ATOM     25  C   UNL     1      -0.018   1.503   0.010  0.00  0.00    -0.043 C 
BRANCH  25  26
ATOM     26  C   UNL     1       0.002  -0.004   0.002  0.00  0.00    -0.064 A 
ATOM     27  C   UNL     1       0.011  -0.687  -1.200  0.00  0.00    +0.003 A 
ATOM     28  C   UNL     1       0.035  -2.068  -1.212  0.00  0.00    +0.023 A 
ATOM     29  C   UNL     1       0.040  -2.771  -0.013  0.00  0.00    +0.030 A 
ATOM     30  C   UNL     1       0.025  -2.081   1.193  0.00  0.00    +0.023 A 
ATOM     31  C   UNL     1       0.006  -0.701   1.197  0.00  0.00    +0.003 A 
BRANCH  29  32
ATOM     32  N   UNL     1       0.058  -4.167  -0.021  0.00  0.00    -0.330 N 
ATOM     33  C   UNL     1       1.300  -4.687   0.607  0.00  0.00    +0.105 C 
ATOM     34  C   UNL     1       0.924  -6.142   0.985  0.00  0.00    +0.020 C 
ATOM     35  C   UNL     1      -0.549  -6.013   1.435  0.00  0.00    +0.020 C 
ATOM     36  C   UNL     1      -1.058  -4.717   0.779  0.00  0.00    +0.105 C 
ENDBRANCH  29  32
ENDBRANCH  25  26
ENDBRANCH   6  25
TORSDOF 7
