REMARK  Name = ZINC09433306
REMARK  8 active torsions:
REMARK  status: ('A' for Active; 'I' for Inactive)
REMARK    1  A    between atoms: C_1  and  C_2
REMARK    2  A    between atoms: C_2  and  C_3
REMARK    3  A    between atoms: C_2  and  C_4
REMARK    4  A    between atoms: C_4  and  N_5
REMARK    5  A    between atoms: C_6  and  C_33
REMARK    6  A    between atoms: C_8  and  C_18
REMARK    7  A    between atoms: C_25  and  C_26
REMARK    8  A    between atoms: C_25  and  N_68
REMARK                            x       y       z     vdW  Elec       q    Type
REMARK                         _______ _______ _______ _____ _____    ______ ____
ROOT
ATOM      1  N   UNL     1      -8.105   6.449  -3.638  0.00  0.00    -0.289 N 
ATOM      2  C   UNL     1      -7.396   6.288  -4.906  0.00  0.00    +0.129 C 
ATOM      3  C   UNL     1      -6.602   4.985  -4.926  0.00  0.00    +0.131 C 
ATOM      4  C   UNL     1      -7.485   3.836  -4.517  0.00  0.00    -0.021 A 
ATOM      5  C   UNL     1      -7.294   2.579  -5.049  0.00  0.00    +0.005 A 
ATOM      6  C   UNL     1      -8.105   1.530  -4.652  0.00  0.00    +0.000 A 
ATOM      7  C   UNL     1      -9.110   1.734  -3.723  0.00  0.00    +0.001 A 
ATOM      8  C   UNL     1      -9.311   2.982  -3.190  0.00  0.00    +0.013 A 
ATOM      9  C   UNL     1      -8.502   4.044  -3.589  0.00  0.00    +0.041 A 
ATOM     10  C   UNL     1      -8.708   5.402  -3.043  0.00  0.00    +0.247 C 
ATOM     11  O   UNL     1      -9.414   5.572  -2.068  0.00  0.00    -0.270 OA
ENDROOT
BRANCH   3  12
ATOM     12  C   UNL     1      -5.444   5.091  -3.968  0.00  0.00    +0.223 C 
ATOM     13  O   UNL     1      -5.590   5.647  -2.899  0.00  0.00    -0.275 OA
ATOM     14  N   UNL     1      -4.246   4.569  -4.297  0.00  0.00    -0.318 N 
ATOM     15  C   UNL     1      -4.018   3.991  -5.630  0.00  0.00    +0.104 C 
ATOM     16  C   UNL     1      -2.749   4.619  -6.218  0.00  0.00    +0.000 C 
ATOM     17  C   UNL     1      -1.606   4.473  -5.210  0.00  0.00    -0.075 C 
ATOM     18  C   UNL     1      -3.137   4.564  -3.333  0.00  0.00    +0.033 C 
ATOM     19  N   UNL     1      -1.962   5.198  -3.971  0.00  0.00    +0.393 N 
ATOM     20  H   UNL     1      -2.196   6.169  -4.209  0.00  0.00    -0.079 HD
BRANCH  19  21
ATOM     21  C   UNL     1      -0.817   5.195  -3.037  0.00  0.00    -0.039 C 
BRANCH  21  22
ATOM     22  C   UNL     1      -1.168   6.030  -1.833  0.00  0.00    -0.046 A 
ATOM     23  C   UNL     1      -1.486   5.417  -0.635  0.00  0.00    +0.003 A 
ATOM     24  C   UNL     1      -1.808   6.183   0.469  0.00  0.00    +0.000 A 
ATOM     25  C   UNL     1      -1.812   7.562   0.378  0.00  0.00    +0.001 A 
ATOM     26  C   UNL     1      -1.494   8.176  -0.819  0.00  0.00    +0.020 A 
ATOM     27  C   UNL     1      -1.177   7.410  -1.927  0.00  0.00    +0.042 A 
ATOM     28 CL   UNL     1      -0.786   8.181  -3.432  0.00  0.00    -0.083 Cl
ENDBRANCH  21  22
ENDBRANCH  19  21
ENDBRANCH   3  12
BRANCH   2  29
ATOM     29  C   UNL     1      -6.452   7.447  -5.096  0.00  0.00    +0.011 A 
ATOM     30  C   UNL     1      -6.307   8.264  -6.168  0.00  0.00    +0.013 A 
ATOM     31  C   UNL     1      -5.365   9.274  -6.119  0.00  0.00    +0.008 A 
ATOM     32  C   UNL     1      -4.614   9.419  -5.000  0.00  0.00    +0.045 A 
ATOM     33  S   UNL     1      -5.239   8.106  -3.964  0.00  0.00    -0.100 S 
ENDBRANCH   2  29
BRANCH   1  34
ATOM     34  C   UNL     1      -8.159   7.769  -3.004  0.00  0.00    +0.111 C 
BRANCH  34  36
ATOM     35  C   UNL     1     -10.641   7.908  -3.263  0.00  0.00    +0.009 C 
ATOM     36  C   UNL     1      -9.309   8.578  -3.608  0.00  0.00    +0.000 C 
ATOM     37  C   UNL     1      -9.290   9.997  -3.037  0.00  0.00    +0.009 C 
ENDBRANCH  34  36
ENDBRANCH   1  34
TORSDOF 6
