REMARK  Name = ZINC41600877
REMARK  5 active torsions:
REMARK  status: ('A' for Active; 'I' for Inactive)
REMARK    1  A    between atoms: C_1  and  C_2
REMARK    2  A    between atoms: C_2  and  C_3
REMARK    3  A    between atoms: C_9  and  S_14
REMARK    4  A    between atoms: S_14  and  N_17
REMARK    5  A    between atoms: C_22  and  C_24
REMARK                            x       y       z     vdW  Elec       q    Type
REMARK                         _______ _______ _______ _____ _____    ______ ____
ROOT
ATOM      1  C   UNL     1      -1.485  -0.088   0.034  0.00  0.00    +0.190 C 
ATOM      2  C   UNL     1      -1.385  -1.612   0.184  0.00  0.00    +0.146 C 
ATOM      3  N   UNL     1      -2.754  -2.155   0.145  0.00  0.00    -0.337 N 
ATOM      4  C   UNL     1      -3.642  -1.618  -0.800  0.00  0.00    +0.071 A 
ATOM      5  C   UNL     1      -4.833  -2.267  -1.081  0.00  0.00    +0.055 A 
ATOM      6  C   UNL     1      -5.707  -1.733  -2.010  0.00  0.00    +0.107 A 
ATOM      7  C   UNL     1      -5.391  -0.553  -2.659  0.00  0.00    +0.032 A 
ATOM      8  C   UNL     1      -4.203   0.098  -2.384  0.00  0.00    +0.049 A 
ATOM      9  C   UNL     1      -3.321  -0.431  -1.454  0.00  0.00    +0.142 A 
ATOM     10  O   UNL     1      -2.152   0.214  -1.194  0.00  0.00    -0.485 OA
ATOM     11  H   UNL     1      -3.032  -2.858   0.752  0.00  0.00    +0.146 HD
ENDROOT
BRANCH   6  12
ATOM     12  S   UNL     1      -7.222  -2.557  -2.369  0.00  0.00    +0.061 S 
ATOM     13  O   UNL     1      -7.612  -2.142  -3.671  0.00  0.00    -0.153 OA
ATOM     14  O   UNL     1      -7.032  -3.924  -2.031  0.00  0.00    -0.153 OA
BRANCH  12  15
ATOM     15  N   UNL     1      -8.361  -1.965  -1.323  0.00  0.00    -0.174 NA
ATOM     16  C   UNL     1      -8.674  -2.675  -0.076  0.00  0.00    +0.110 C 
ATOM     17  C   UNL     1     -10.185  -2.919  -0.012  0.00  0.00    +0.017 C 
ATOM     18  C   UNL     1     -10.920  -1.587  -0.177  0.00  0.00    +0.003 C 
ATOM     19  C   UNL     1     -10.585  -0.984  -1.543  0.00  0.00    +0.020 C 
ATOM     20  C   UNL     1      -9.074  -0.715  -1.622  0.00  0.00    +0.077 C 
ATOM     21  C   UNL     1      -8.708  -0.239  -3.029  0.00  0.00    +0.026 C 
ENDBRANCH  12  15
ENDBRANCH   6  12
BRANCH   1  23
ATOM     22  C   UNL     1      -0.185   2.046  -0.014  0.00  0.00    +0.007 C 
ATOM     23  C   UNL     1      -0.081   0.520   0.017  0.00  0.00    +0.043 C 
ENDBRANCH   1  23
TORSDOF 3
