REMARK  Name = ZINC41584767
REMARK  4 active torsions:
REMARK  status: ('A' for Active; 'I' for Inactive)
REMARK    1  A    between atoms: C_5  and  C_7
REMARK    2  A    between atoms: C_14  and  O_35
REMARK    3  A    between atoms: C_15  and  C_18
REMARK    4  A    between atoms: C_18  and  N_19
REMARK                            x       y       z     vdW  Elec       q    Type
REMARK                         _______ _______ _______ _____ _____    ______ ____
ROOT
ATOM      1  C   UNL     1       1.255  -2.153  -0.023  0.00  0.00    +0.059 C 
ATOM      2  C   UNL     1       0.100  -2.855   0.087  0.00  0.00    +0.176 C 
ATOM      3  C   UNL     1      -0.022  -4.317   0.202  0.00  0.00    +0.231 C 
ATOM      4  O   UNL     1       0.875  -5.141   0.220  0.00  0.00    -0.283 OA
ATOM      5  C   UNL     1      -1.473  -4.561   0.293  0.00  0.00    +0.068 A 
ATOM      6  C   UNL     1      -2.240  -5.720   0.417  0.00  0.00    +0.019 A 
ATOM      7  C   UNL     1      -3.602  -5.631   0.478  0.00  0.00    +0.046 A 
ATOM      8  C   UNL     1      -4.226  -4.388   0.415  0.00  0.00    +0.122 A 
ATOM      9  C   UNL     1      -3.477  -3.229   0.292  0.00  0.00    +0.020 A 
ATOM     10  C   UNL     1      -2.091  -3.301   0.229  0.00  0.00    +0.144 A 
ATOM     11  O   UNL     1      -1.151  -2.337   0.116  0.00  0.00    -0.451 OA
ENDROOT
BRANCH   1  16
ATOM     12  C   UNL     1       0.015   1.384  -0.105  0.00  0.00    +0.001 A 
ATOM     13  C   UNL     1       1.185   2.084   0.138  0.00  0.00    +0.001 A 
ATOM     14  C   UNL     1       2.378   1.409   0.328  0.00  0.00    +0.016 A 
ATOM     15  C   UNL     1       2.410   0.030   0.278  0.00  0.00    +0.025 A 
ATOM     16  C   UNL     1       1.231  -0.685   0.033  0.00  0.00    -0.007 A 
ATOM     17  C   UNL     1       0.029   0.007  -0.158  0.00  0.00    +0.009 A 
ATOM     18 BR   UNL     1       4.041  -0.891   0.537  0.00  0.00    -0.050 Br
ENDBRANCH   1  16
BRANCH   8  19
ATOM     19  O   UNL     1      -5.580  -4.311   0.476  0.00  0.00    -0.506 OA
ATOM     20  H   UNL     1      -5.929  -4.223   1.373  0.00  0.00    +0.292 HD
ENDBRANCH   8  19
BRANCH   9  21
ATOM     21  C   UNL     1      -4.166  -1.891   0.225  0.00  0.00    -0.036 C 
BRANCH  21  22
ATOM     22  N   UNL     1      -4.322  -1.352   1.583  0.00  0.00    +0.383 N 
ATOM     23  C   UNL     1      -4.875   0.004   1.508  0.00  0.00    -0.073 C 
ATOM     24  C   UNL     1      -5.056   0.600   2.896  0.00  0.00    -0.007 C 
ATOM     25  C   UNL     1      -5.939  -0.303   3.763  0.00  0.00    +0.011 C 
ATOM     26  C   UNL     1      -5.286  -1.690   3.793  0.00  0.00    +0.020 C 
ATOM     27  C   UNL     1      -5.229  -2.219   2.351  0.00  0.00    -0.069 C 
ATOM     28  C   UNL     1      -3.867  -1.557   4.299  0.00  0.00    +0.023 A 
ATOM     29  C   UNL     1      -3.331  -2.621   4.952  0.00  0.00    +0.022 A 
ATOM     30  C   UNL     1      -2.002  -2.590   5.389  0.00  0.00    +0.007 A 
ATOM     31  C   UNL     1      -1.247  -1.484   5.127  0.00  0.00    +0.070 A 
ATOM     32  C   UNL     1      -1.830  -0.406   4.448  0.00  0.00    +0.251 A 
ATOM     33  O   UNL     1      -1.148   0.563   4.154  0.00  0.00    -0.268 OA
ATOM     34  N   UNL     1      -3.144  -0.427   4.115  0.00  0.00    -0.312 N 
ATOM     35  C   UNL     1      -3.725   0.809   3.599  0.00  0.00    +0.126 C 
ATOM     36  H   UNL     1      -3.422  -1.322   2.037  0.00  0.00    -0.081 HD
ENDBRANCH  21  22
ENDBRANCH   9  21
TORSDOF 4
