REMARK  Name = ZINC38610866
REMARK  7 active torsions:
REMARK  status: ('A' for Active; 'I' for Inactive)
REMARK    1  A    between atoms: C_1  and  C_2
REMARK    2  A    between atoms: C_4  and  C_8
REMARK    3  A    between atoms: N_10  and  N_11
REMARK    4  A    between atoms: C_12  and  C_13
REMARK    5  A    between atoms: C_15  and  C_20
REMARK    6  A    between atoms: C_18  and  O_19
REMARK    7  A    between atoms: C_20  and  C_21
REMARK                            x       y       z     vdW  Elec       q    Type
REMARK                         _______ _______ _______ _____ _____    ______ ____
ROOT
ATOM      1  C   UNL     1      -4.193  -5.423   3.725  0.00  0.00    +0.036 A 
ATOM      2  C   UNL     1      -5.469  -5.987   3.799  0.00  0.00    +0.017 A 
ATOM      3  C   UNL     1      -5.853  -6.672   4.933  0.00  0.00    -0.042 A 
ATOM      4  C   UNL     1      -4.978  -6.803   5.999  0.00  0.00    +0.007 A 
ATOM      5  C   UNL     1      -3.713  -6.250   5.938  0.00  0.00    +0.046 A 
ATOM      6  C   UNL     1      -3.310  -5.564   4.804  0.00  0.00    +0.125 A 
ENDROOT
BRANCH   1   8
ATOM      7  N   UNL     1      -2.588  -4.173   2.448  0.00  0.00    -0.188 NA
ATOM      8  C   UNL     1      -3.776  -4.691   2.516  0.00  0.00    +0.142 C 
BRANCH   7  11
ATOM      9  C   UNL     1      -0.958  -2.939   1.229  0.00  0.00    +0.262 C 
ATOM     10  O   UNL     1      -0.190  -3.058   2.161  0.00  0.00    -0.271 OA
ATOM     11  N   UNL     1      -2.191  -3.477   1.299  0.00  0.00    -0.205 N 
ATOM     12  H   UNL     1      -2.805  -3.381   0.554  0.00  0.00    +0.177 HD
BRANCH   9  16
ATOM     13  C   UNL     1      -0.018   1.503   0.010  0.00  0.00    +0.067 C 
ATOM     14  C   UNL     1       0.002  -0.004   0.002  0.00  0.00    +0.059 C 
ATOM     15  C   UNL     1      -1.086  -0.777   0.003  0.00  0.00    +0.035 C 
ATOM     16  C   UNL     1      -0.531  -2.190  -0.007  0.00  0.00    +0.240 C 
ATOM     17  N   UNL     1       0.926  -1.973  -0.013  0.00  0.00    -0.170 NA
ATOM     18  N   UNL     1       1.125  -0.756  -0.013  0.00  0.00    -0.159 NA
ENDBRANCH   9  16
ENDBRANCH   7  11
ENDBRANCH   1   8
BRANCH   6  19
ATOM     19  O   UNL     1      -2.065  -5.024   4.740  0.00  0.00    -0.506 OA
ATOM     20  H   UNL     1      -2.012  -4.117   5.071  0.00  0.00    +0.292 HD
ENDBRANCH   6  19
BRANCH   3  21
ATOM     21  C   UNL     1      -7.229  -7.279   5.013  0.00  0.00    +0.071 C 
BRANCH  21  22
ATOM     22  C   UNL     1      -7.189  -8.688   4.480  0.00  0.00    -0.025 A 
ATOM     23  C   UNL     1      -7.509  -8.937   3.159  0.00  0.00    +0.005 A 
ATOM     24  C   UNL     1      -7.472 -10.229   2.670  0.00  0.00    +0.000 A 
ATOM     25  C   UNL     1      -7.114 -11.274   3.502  0.00  0.00    +0.001 A 
ATOM     26  C   UNL     1      -6.793 -11.026   4.824  0.00  0.00    +0.020 A 
ATOM     27  C   UNL     1      -6.824  -9.732   5.312  0.00  0.00    +0.044 A 
ATOM     28 CL   UNL     1      -6.415  -9.419   6.970  0.00  0.00    -0.083 Cl
ENDBRANCH  21  22
ENDBRANCH   3  21
TORSDOF 6
