REMARK  Name = ZINC43726811
REMARK  12 active torsions:
REMARK  status: ('A' for Active; 'I' for Inactive)
REMARK    1  A    between atoms: C_1  and  C_2
REMARK    2  A    between atoms: C_2  and  O_3
REMARK    3  A    between atoms: O_3  and  C_4
REMARK    4  A    between atoms: C_4  and  C_6
REMARK    5  A    between atoms: C_6  and  C_7
REMARK    6  A    between atoms: C_7  and  C_8
REMARK    7  A    between atoms: C_8  and  C_10
REMARK    8  A    between atoms: C_8  and  C_11
REMARK    9  A    between atoms: C_17  and  C_39
REMARK   10  A    between atoms: C_18  and  O_38
REMARK   11  A    between atoms: C_30  and  C_37
REMARK   12  A    between atoms: C_33  and  O_36
REMARK                            x       y       z     vdW  Elec       q    Type
REMARK                         _______ _______ _______ _____ _____    ______ ____
ROOT
ATOM      1  C   UNL     1      -3.759  -6.202  -0.077  0.00  0.00    +0.001 C 
ATOM      2  C   UNL     1      -3.163  -6.911  -1.320  0.00  0.00    +0.005 C 
ATOM      3  C   UNL     1      -4.148  -8.061  -1.680  0.00  0.00    +0.005 C 
ATOM      4  C   UNL     1      -4.817  -8.334  -0.322  0.00  0.00    +0.008 C 
ATOM      5  C   UNL     1      -5.107  -6.891   0.161  0.00  0.00    +0.000 C 
ATOM      6  C   UNL     1      -5.577  -6.977   1.596  0.00  0.00    +0.121 C 
ATOM      7  C   UNL     1      -6.862  -7.807   1.661  0.00  0.00    +0.036 C 
ATOM      8  C   UNL     1      -6.765  -9.173   1.002  0.00  0.00    +0.008 C 
ATOM      9  C   UNL     1      -6.100  -9.125  -0.367  0.00  0.00    +0.063 C 
ATOM     10  C   UNL     1      -5.833 -10.514  -0.897  0.00  0.00    +0.137 C 
ATOM     11  O   UNL     1      -6.063 -10.787  -2.053  0.00  0.00    -0.297 OA
ATOM     12  C   UNL     1      -5.273 -11.554   0.044  0.00  0.00    +0.078 C 
ATOM     13  C   UNL     1      -6.201 -11.613   1.262  0.00  0.00    +0.005 C 
ATOM     14  C   UNL     1      -6.244 -10.246   1.946  0.00  0.00    -0.025 C 
ATOM     15  C   UNL     1      -4.876  -9.889   2.513  0.00  0.00    +0.010 C 
ATOM     16  C   UNL     1      -4.368 -10.976   3.460  0.00  0.00    +0.032 C 
ATOM     17  C   UNL     1      -4.308 -12.321   2.739  0.00  0.00    +0.115 C 
ATOM     18  C   UNL     1      -5.696 -12.691   2.218  0.00  0.00    +0.035 C 
ATOM     19  C   UNL     1      -7.243 -10.360   3.118  0.00  0.00    +0.012 C 
ATOM     20  C   UNL     1      -6.162  -6.202  -0.704  0.00  0.00    +0.014 C 
ENDROOT
BRANCH   1  21
ATOM     21  C   UNL     1      -3.973  -4.716  -0.373  0.00  0.00    -0.010 C 
ATOM     22  C   UNL     1      -4.526  -4.022   0.874  0.00  0.00    +0.008 C 
BRANCH  21  23
ATOM     23  C   UNL     1      -2.639  -4.077  -0.763  0.00  0.00    +0.014 C 
BRANCH  23  24
ATOM     24  C   UNL     1      -2.873  -2.623  -1.179  0.00  0.00    +0.121 C 
BRANCH  24  25
ATOM     25  C   UNL     1      -1.559  -1.993  -1.563  0.00  0.00    +0.307 C 
ATOM     26  O   UNL     1      -0.540  -2.640  -1.510  0.00  0.00    -0.251 OA
BRANCH  25  27
ATOM     27  O   UNL     1      -1.520  -0.713  -1.965  0.00  0.00    -0.465 OA
BRANCH  27  29
ATOM     28  C   UNL     1      -0.396   1.280  -2.743  0.00  0.00    +0.048 C 
ATOM     29  C   UNL     1      -0.241  -0.180  -2.314  0.00  0.00    +0.229 C 
ENDBRANCH  27  29
ENDBRANCH  25  27
ENDBRANCH  24  25
ENDBRANCH  23  24
ENDBRANCH  21  23
ENDBRANCH   1  21
BRANCH  17  30
ATOM     30  O   UNL     1      -3.857 -13.329   3.647  0.00  0.00    -0.392 OA
ATOM     31  H   UNL     1      -2.978 -13.162   4.015  0.00  0.00    +0.210 HD
ENDBRANCH  17  30
BRANCH   6  32
ATOM     32  O   UNL     1      -5.835  -5.660   2.099  0.00  0.00    -0.391 OA
ATOM     33  H   UNL     1      -6.140  -5.642   3.017  0.00  0.00    +0.210 HD
ENDBRANCH   6  32
TORSDOF 8
