REMARK  Name = ZINC45356252
REMARK  9 active torsions:
REMARK  status: ('A' for Active; 'I' for Inactive)
REMARK    1  A    between atoms: C_1  and  C_2
REMARK    2  A    between atoms: C_2  and  C_4
REMARK    3  A    between atoms: C_2  and  N_14
REMARK    4  A    between atoms: C_7  and  S_10
REMARK    5  A    between atoms: S_10  and  N_13
REMARK    6  A    between atoms: N_14  and  C_15
REMARK    7  A    between atoms: N_14  and  C_16
REMARK    8  A    between atoms: C_16  and  C_17
REMARK    9  A    between atoms: N_19  and  C_20
REMARK                            x       y       z     vdW  Elec       q    Type
REMARK                         _______ _______ _______ _____ _____    ______ ____
ROOT
ATOM      1  C   UNL     1      -0.019   1.526   0.010  0.00  0.00    -0.008 C 
ATOM      2  C   UNL     1       0.002  -0.004   0.002  0.00  0.00    -0.041 C 
ENDROOT
BRANCH   2   3
ATOM      3  C   UNL     1       0.731  -0.503   1.223  0.00  0.00    -0.061 A 
ATOM      4  C   UNL     1       2.113  -0.514   1.247  0.00  0.00    +0.004 A 
ATOM      5  C   UNL     1       2.782  -0.972   2.366  0.00  0.00    +0.029 A 
ATOM      6  C   UNL     1       2.068  -1.419   3.463  0.00  0.00    +0.105 A 
ATOM      7  C   UNL     1       0.686  -1.407   3.439  0.00  0.00    +0.029 A 
ATOM      8  C   UNL     1       0.017  -0.945   2.321  0.00  0.00    +0.004 A 
BRANCH   6   9
ATOM      9  S   UNL     1       2.920  -2.003   4.890  0.00  0.00    +0.056 S 
ATOM     10  O   UNL     1       2.026  -2.874   5.569  0.00  0.00    -0.153 OA
ATOM     11  O   UNL     1       4.206  -2.422   4.452  0.00  0.00    -0.153 OA
BRANCH   9  12
ATOM     12  N   UNL     1       3.159  -0.702   5.885  0.00  0.00    -0.204 NA
ATOM     13  H   UNL     1       2.842   0.176   5.621  0.00  0.00    +0.144 HD
ATOM     14  H   UNL     1       3.617  -0.817   6.732  0.00  0.00    +0.144 HD
ENDBRANCH   9  12
ENDBRANCH   6   9
ENDBRANCH   2   3
BRANCH   2  15
ATOM     15  N   UNL     1       0.690  -0.478  -1.207  0.00  0.00    +0.388 N 
ATOM     16  C   UNL     1      -0.021   0.009  -2.397  0.00  0.00    -0.095 C 
ATOM     17  H   UNL     1       1.636  -0.129  -1.214  0.00  0.00    -0.081 HD
BRANCH  15  18
ATOM     18  C   UNL     1       0.710  -1.947  -1.215  0.00  0.00    +0.019 C 
BRANCH  18  19
ATOM     19  C   UNL     1       1.520  -2.432  -2.389  0.00  0.00    +0.197 C 
ATOM     20  O   UNL     1       2.031  -1.632  -3.145  0.00  0.00    -0.278 OA
ATOM     21  N   UNL     1       1.677  -3.753  -2.599  0.00  0.00    -0.314 N 
ATOM     22  H   UNL     1       1.269  -4.393  -1.995  0.00  0.00    +0.149 HD
BRANCH  21  23
ATOM     23  C   UNL     1       2.465  -4.225  -3.741  0.00  0.00    +0.073 C 
ATOM     24  C   UNL     1       1.577  -4.282  -4.985  0.00  0.00    +0.022 C 
ATOM     25  C   UNL     1       2.400  -4.774  -6.177  0.00  0.00    +0.002 C 
ATOM     26  C   UNL     1       2.947  -6.171  -5.877  0.00  0.00    +0.000 C 
ATOM     27  C   UNL     1       3.835  -6.114  -4.633  0.00  0.00    +0.002 C 
ATOM     28  C   UNL     1       3.013  -5.622  -3.441  0.00  0.00    +0.022 C 
ENDBRANCH  21  23
ENDBRANCH  18  19
ENDBRANCH  15  18
ENDBRANCH   2  15
TORSDOF 7
