REMARK  Name = ZINC39500324
REMARK  9 active torsions:
REMARK  status: ('A' for Active; 'I' for Inactive)
REMARK    1  A    between atoms: C_4  and  C_7
REMARK    2  A    between atoms: C_7  and  N_8
REMARK    3  A    between atoms: C_9  and  C_23
REMARK    4  A    between atoms: C_13  and  S_15
REMARK    5  A    between atoms: S_15  and  C_16
REMARK    6  A    between atoms: C_16  and  C_17
REMARK    7  A    between atoms: C_23  and  N_24
REMARK    8  A    between atoms: C_25  and  C_27
REMARK    9  A    between atoms: C_30  and  C_33
REMARK                            x       y       z     vdW  Elec       q    Type
REMARK                         _______ _______ _______ _____ _____    ______ ____
ROOT
ATOM      1  N   UNL     1       4.397  -0.580   1.610  0.00  0.00    +0.411 N 
ATOM      2  C   UNL     1       5.532  -1.518   1.483  0.00  0.00    +0.036 C 
ATOM      3  N   UNL     1       6.630  -0.966   2.309  0.00  0.00    -0.269 NA
ATOM      4  N   UNL     1       5.952  -0.112   3.297  0.00  0.00    -0.262 NA
ATOM      5  C   UNL     1       4.852   0.504   2.510  0.00  0.00    +0.077 C 
ATOM      6  H   UNL     1       7.271  -0.428   1.746  0.00  0.00    +0.139 HD
ATOM      7  H   UNL     1       6.579   0.593   3.656  0.00  0.00    +0.139 HD
ATOM      8  H   UNL     1       3.600  -1.052   2.010  0.00  0.00    -0.075 HD
ENDROOT
BRANCH   1   9
ATOM      9  C   UNL     1       4.049  -0.030   0.293  0.00  0.00    -0.037 C 
BRANCH   9  13
ATOM     10  C   UNL     1       0.624   2.496   0.664  0.00  0.00    +0.000 A 
ATOM     11  C   UNL     1       1.893   3.026   0.809  0.00  0.00    +0.000 A 
ATOM     12  C   UNL     1       3.001   2.209   0.689  0.00  0.00    +0.002 A 
ATOM     13  C   UNL     1       2.841   0.861   0.425  0.00  0.00    -0.064 A 
ATOM     14  C   UNL     1       1.572   0.331   0.281  0.00  0.00    +0.002 A 
ATOM     15  C   UNL     1       0.464   1.149   0.400  0.00  0.00    +0.000 A 
ENDBRANCH   9  13
ENDBRANCH   1   9
BRANCH   5  16
ATOM     16  S   UNL     1       3.504   1.027   3.606  0.00  0.00    -0.157 S 
BRANCH  16  17
ATOM     17  C   UNL     1       3.192  -0.428   4.643  0.00  0.00    +0.100 C 
BRANCH  17  18
ATOM     18  C   UNL     1       1.985  -0.162   5.545  0.00  0.00    +0.128 C 
ATOM     19  C   UNL     1       1.774  -1.354   6.502  0.00  0.00    +0.034 C 
ATOM     20  C   UNL     1       0.226  -1.479   6.536  0.00  0.00    +0.031 C 
ATOM     21  C   UNL     1      -0.134  -1.067   5.087  0.00  0.00    +0.160 C 
ATOM     22  O   UNL     1       0.802  -0.029   4.747  0.00  0.00    -0.376 OA
ENDBRANCH  17  18
ENDBRANCH  16  17
ENDBRANCH   5  16
BRANCH   2  23
ATOM     23  C   UNL     1       5.129  -2.901   2.001  0.00  0.00    +0.105 C 
BRANCH  23  24
ATOM     24  N   UNL     1       6.222  -3.848   1.765  0.00  0.00    -0.314 N 
ATOM     25  C   UNL     1       6.057  -5.154   2.055  0.00  0.00    +0.243 C 
ATOM     26  O   UNL     1       4.975  -5.561   2.422  0.00  0.00    -0.273 OA
ATOM     27  H   UNL     1       7.065  -3.535   1.401  0.00  0.00    +0.149 HD
BRANCH  25  28
ATOM     28  C   UNL     1       7.216  -6.107   1.922  0.00  0.00    +0.238 C 
ATOM     29  C   UNL     1       7.327  -6.622   0.497  0.00  0.00    +0.040 C 
ATOM     30  C   UNL     1       7.151  -7.951   0.620  0.00  0.00    +0.092 C 
ATOM     31  N   UNL     1       6.953  -8.286   1.922  0.00  0.00    -0.153 NA
ATOM     32  N   UNL     1       6.975  -7.330   2.706  0.00  0.00    -0.170 NA
BRANCH  30  33
ATOM     33  C   UNL     1       7.171  -8.915  -0.508  0.00  0.00    +0.002 A 
ATOM     34  C   UNL     1       7.388  -8.465  -1.809  0.00  0.00    +0.010 A 
ATOM     35  C   UNL     1       7.406  -9.366  -2.854  0.00  0.00    +0.001 A 
ATOM     36  C   UNL     1       7.209 -10.713  -2.613  0.00  0.00    +0.000 A 
ATOM     37  C   UNL     1       6.993 -11.166  -1.324  0.00  0.00    +0.001 A 
ATOM     38  C   UNL     1       6.978 -10.275  -0.270  0.00  0.00    +0.010 A 
ENDBRANCH  30  33
ENDBRANCH  25  28
ENDBRANCH  23  24
ENDBRANCH   2  23
TORSDOF 9
