REMARK  Name = ZINC08589056
REMARK  11 active torsions:
REMARK  status: ('A' for Active; 'I' for Inactive)
REMARK    1  A    between atoms: C_1  and  C_2
REMARK    2  A    between atoms: C_2  and  C_3
REMARK    3  A    between atoms: C_6  and  N_9
REMARK    4  A    between atoms: C_10  and  C_12
REMARK    5  A    between atoms: C_12  and  S_13
REMARK    6  A    between atoms: S_13  and  C_14
REMARK    7  A    between atoms: C_18  and  C_20
REMARK    8  A    between atoms: C_23  and  C_26
REMARK    9  A    between atoms: C_29  and  C_37
REMARK   10  A    between atoms: C_32  and  C_35
REMARK   11  A    between atoms: C_35  and  O_36
REMARK                            x       y       z     vdW  Elec       q    Type
REMARK                         _______ _______ _______ _____ _____    ______ ____
ROOT
ATOM      1  C   UNL     1       7.185  -2.847  -7.200  0.00  0.00    +0.108 A 
ATOM      2  C   UNL     1       8.562  -3.006  -7.350  0.00  0.00    +0.051 A 
ATOM      3  C   UNL     1       9.061  -3.358  -8.594  0.00  0.00    +0.229 A 
ATOM      4  N   UNL     1       8.211  -3.533  -9.604  0.00  0.00    -0.193 NA
ATOM      5  C   UNL     1       6.907  -3.374  -9.430  0.00  0.00    +0.165 A 
ATOM      6  N   UNL     1       6.395  -3.043  -8.253  0.00  0.00    -0.221 NA
ATOM      7  O   UNL     1      10.386  -3.524  -8.795  0.00  0.00    -0.436 OA
ATOM      8  C   UNL     1      11.211  -3.730  -7.743  0.00  0.00    +0.155 A 
ATOM      9  C   UNL     1      12.469  -4.283  -7.947  0.00  0.00    +0.081 A 
ATOM     10  N   UNL     1      13.284  -4.490  -6.932  0.00  0.00    -0.256 NA
ATOM     11  C   UNL     1      12.946  -4.185  -5.694  0.00  0.00    +0.117 A 
ATOM     12  C   UNL     1      11.711  -3.631  -5.413  0.00  0.00    +0.003 A 
ATOM     13  C   UNL     1      10.826  -3.398  -6.453  0.00  0.00    +0.008 A 
ATOM     14  C   UNL     1       9.477  -2.796  -6.177  0.00  0.00    +0.082 C 
ATOM     15  C   UNL     1      12.906  -4.651  -9.341  0.00  0.00    +0.069 C 
ENDROOT
BRANCH   5  16
ATOM     16  C   UNL     1       5.996  -3.579 -10.582  0.00  0.00    +0.019 A 
ATOM     17  C   UNL     1       4.621  -3.412 -10.424  0.00  0.00    +0.012 A 
ATOM     18  C   UNL     1       3.777  -3.603 -11.499  0.00  0.00    +0.004 A 
ATOM     19  C   UNL     1       4.294  -3.959 -12.732  0.00  0.00    -0.050 A 
ATOM     20  C   UNL     1       5.657  -4.126 -12.895  0.00  0.00    +0.004 A 
ATOM     21  C   UNL     1       6.511  -3.932 -11.828  0.00  0.00    +0.012 A 
ATOM     22  C   UNL     1       3.367  -4.166 -13.902  0.00  0.00    +0.044 C 
ENDBRANCH   5  16
BRANCH   1  23
ATOM     23  S   UNL     1       6.501  -2.400  -5.639  0.00  0.00    -0.096 S 
BRANCH  23  24
ATOM     24  C   UNL     1       4.715  -2.327  -5.947  0.00  0.00    +0.171 C 
BRANCH  24  26
ATOM     25  N   UNL     1       2.657  -1.834  -4.665  0.00  0.00    -0.285 N 
ATOM     26  C   UNL     1       4.000  -1.949  -4.676  0.00  0.00    +0.227 C 
ATOM     27  O   UNL     1       4.634  -1.749  -3.661  0.00  0.00    -0.275 OA
ATOM     28  H   UNL     1       2.145  -2.067  -5.455  0.00  0.00    +0.155 HD
BRANCH  25  32
ATOM     29  C   UNL     1       0.708  -0.471  -1.245  0.00  0.00    -0.048 A 
ATOM     30  C   UNL     1       1.965   0.011  -1.561  0.00  0.00    +0.005 A 
ATOM     31  C   UNL     1       2.614  -0.438  -2.695  0.00  0.00    +0.023 A 
ATOM     32  C   UNL     1       2.003  -1.377  -3.516  0.00  0.00    +0.033 A 
ATOM     33  C   UNL     1       0.741  -1.860  -3.195  0.00  0.00    +0.023 A 
ATOM     34  C   UNL     1       0.100  -1.410  -2.058  0.00  0.00    +0.005 A 
BRANCH  29  36
ATOM     35  C   UNL     1       0.372  -0.872   1.179  0.00  0.00    +0.009 C 
ATOM     36  C   UNL     1       0.003   0.021  -0.007  0.00  0.00    +0.032 C 
ENDBRANCH  29  36
ENDBRANCH  25  32
ENDBRANCH  24  26
ENDBRANCH  23  24
ENDBRANCH   1  23
BRANCH  12  37
ATOM     37  C   UNL     1      11.333  -3.286  -3.995  0.00  0.00    +0.193 C 
BRANCH  37  38
ATOM     38  O   UNL     1      12.412  -3.621  -3.120  0.00  0.00    -0.390 OA
ATOM     39  H   UNL     1      12.238  -3.425  -2.189  0.00  0.00    +0.210 HD
ENDBRANCH  37  38
ENDBRANCH  12  37
TORSDOF 8
