REMARK  Name = ZINC51171220
REMARK  2 active torsions:
REMARK  status: ('A' for Active; 'I' for Inactive)
REMARK    1  A    between atoms: C_6  and  C_7
REMARK    2  A    between atoms: C_7  and  C_9
REMARK                            x       y       z     vdW  Elec       q    Type
REMARK                         _______ _______ _______ _____ _____    ______ ____
ROOT
ATOM      1  C   UNL     1       0.062   1.286   0.511  0.00  0.00    +0.014 A 
ATOM      2  C   UNL     1       1.242   1.994   0.473  0.00  0.00    +0.030 A 
ATOM      3  C   UNL     1       2.372   1.430  -0.104  0.00  0.00    +0.087 A 
ATOM      4  C   UNL     1       2.318   0.144  -0.649  0.00  0.00    +0.157 A 
ATOM      5  C   UNL     1       1.136  -0.569  -0.613  0.00  0.00    +0.060 A 
ATOM      6  C   UNL     1      -0.000  -0.001  -0.031  0.00  0.00    +0.026 A 
ATOM      7  O   UNL     1       3.552  -0.139  -1.135  0.00  0.00    -0.408 OA
ATOM      8  C   UNL     1       4.361   0.910  -0.915  0.00  0.00    +0.419 A 
ATOM      9  O   UNL     1       5.533   0.971  -1.234  0.00  0.00    -0.223 OA
ATOM     10  N   UNL     1       3.674   1.885  -0.288  0.00  0.00    -0.288 N 
ATOM     11  H   UNL     1       4.023   2.748  -0.016  0.00  0.00    +0.172 HD
ENDROOT
BRANCH   6  12
ATOM     12  C   UNL     1      -1.267  -0.760   0.010  0.00  0.00    +0.200 C 
ATOM     13  O   UNL     1      -2.325  -0.172   0.142  0.00  0.00    -0.286 OA
BRANCH  12  14
ATOM     14  C   UNL     1      -1.250  -2.218  -0.109  0.00  0.00    +0.061 A 
ATOM     15  C   UNL     1      -2.318  -3.100  -0.222  0.00  0.00    +0.021 A 
ATOM     16  C   UNL     1      -1.987  -4.428  -0.318  0.00  0.00    +0.028 A 
ATOM     17  C   UNL     1      -0.676  -4.785  -0.297  0.00  0.00    +0.079 A 
ATOM     18  S   UNL     1       0.145  -3.326  -0.153  0.00  0.00    -0.074 S 
ATOM     19 CL   UNL     1      -0.003  -6.381  -0.402  0.00  0.00    -0.076 Cl
ENDBRANCH  12  14
ENDBRANCH   6  12
TORSDOF 2
