REMARK  Name = ZINC02731781
REMARK  12 active torsions:
REMARK  status: ('A' for Active; 'I' for Inactive)
REMARK    1  A    between atoms: C_1  and  O_2
REMARK    2  A    between atoms: O_2  and  C_3
REMARK    3  A    between atoms: C_5  and  N_29
REMARK    4  A    between atoms: C_8  and  C_9
REMARK    5  A    between atoms: N_11  and  C_12
REMARK    6  A    between atoms: C_14  and  N_25
REMARK    7  A    between atoms: C_16  and  S_18
REMARK    8  A    between atoms: S_18  and  C_19
REMARK    9  A    between atoms: C_19  and  C_20
REMARK   10  A    between atoms: C_20  and  C_22
REMARK   11  A    between atoms: C_20  and  O_24
REMARK   12  A    between atoms: C_22  and  O_23
REMARK                            x       y       z     vdW  Elec       q    Type
REMARK                         _______ _______ _______ _____ _____    ______ ____
ROOT
ATOM      1  C   UNL     1       6.520   2.177  -4.640  0.00  0.00    +0.252 C 
ATOM      2  O   UNL     1       5.330   2.222  -4.888  0.00  0.00    -0.270 OA
ATOM      3  N   UNL     1       6.954   2.382  -3.381  0.00  0.00    -0.281 N 
ATOM      4  H   UNL     1       7.906   2.420  -3.196  0.00  0.00    +0.155 HD
ENDROOT
BRANCH   1  10
ATOM      5  C   UNL     1       7.037   1.676  -7.027  0.00  0.00    +0.134 A 
ATOM      6  C   UNL     1       7.952   1.419  -8.034  0.00  0.00    +0.075 A 
ATOM      7  C   UNL     1       9.307   1.368  -7.744  0.00  0.00    +0.091 A 
ATOM      8  C   UNL     1       9.755   1.581  -6.443  0.00  0.00    +0.067 A 
ATOM      9  C   UNL     1       8.855   1.843  -5.435  0.00  0.00    +0.038 A 
ATOM     10  C   UNL     1       7.486   1.896  -5.717  0.00  0.00    +0.080 A 
ATOM     11 CL   UNL     1      11.454   1.515  -6.091  0.00  0.00    -0.081 Cl
BRANCH   7  12
ATOM     12  N   UNL     1      10.228   1.101  -8.764  0.00  0.00    -0.199 N 
ATOM     13  C   UNL     1       9.975   0.968 -10.085  0.00  0.00    +0.250 A 
ATOM     14  N   UNL     1      11.116   0.727 -10.676  0.00  0.00    -0.116 NA
ATOM     15  N   UNL     1      12.072   0.691  -9.819  0.00  0.00    -0.023 NA
ATOM     16  N   UNL     1      11.615   0.909  -8.633  0.00  0.00    -0.039 NA
ENDBRANCH   7  12
BRANCH   5  18
ATOM     17  C   UNL     1       5.325   1.487  -8.664  0.00  0.00    +0.277 C 
ATOM     18  O   UNL     1       5.710   1.721  -7.307  0.00  0.00    -0.494 OA
ENDBRANCH   5  18
ENDBRANCH   1  10
BRANCH   3  19
ATOM     19  C   UNL     1       6.033   2.541  -2.341  0.00  0.00    +0.037 A 
ATOM     20  C   UNL     1       6.328   3.381  -1.273  0.00  0.00    +0.056 A 
ATOM     21  C   UNL     1       5.418   3.540  -0.245  0.00  0.00    +0.129 A 
ATOM     22  C   UNL     1       4.211   2.869  -0.277  0.00  0.00    +0.047 A 
ATOM     23  C   UNL     1       3.913   2.022  -1.339  0.00  0.00    +0.012 A 
ATOM     24  C   UNL     1       4.824   1.861  -2.374  0.00  0.00    +0.038 A 
BRANCH  21  25
ATOM     25  N   UNL     1       5.736   4.436   0.889  0.00  0.00    +0.057 N 
ATOM     26  O   UNL     1       6.797   5.032   0.916  0.00  0.00    -0.126 OA
ATOM     27  O   UNL     1       4.935   4.576   1.797  0.00  0.00    -0.126 OA
ENDBRANCH  21  25
BRANCH  23  28
ATOM     28  S   UNL     1       2.376   1.161  -1.375  0.00  0.00    -0.122 S 
BRANCH  28  29
ATOM     29  C   UNL     1       1.546   1.680   0.152  0.00  0.00    +0.108 C 
BRANCH  29  30
ATOM     30  C   UNL     1       0.180   0.997   0.248  0.00  0.00    +0.150 C 
BRANCH  30  31
ATOM     31  O   UNL     1       0.362  -0.415   0.377  0.00  0.00    -0.389 OA
ATOM     32  H   UNL     1       0.868  -0.676   1.159  0.00  0.00    +0.210 HD
ENDBRANCH  30  31
BRANCH  30  33
ATOM     33  C   UNL     1      -0.572   1.528   1.470  0.00  0.00    +0.188 C 
BRANCH  33  34
ATOM     34  O   UNL     1      -1.890   0.978   1.494  0.00  0.00    -0.392 OA
ATOM     35  H   UNL     1      -2.425   1.272   2.244  0.00  0.00    +0.210 HD
ENDBRANCH  33  34
ENDBRANCH  30  33
ENDBRANCH  29  30
ENDBRANCH  28  29
ENDBRANCH  23  28
ENDBRANCH   3  19
TORSDOF 11
