REMARK  Name = ZINC03329253
REMARK  4 active torsions:
REMARK  status: ('A' for Active; 'I' for Inactive)
REMARK    1  A    between atoms: C_3  and  C_18
REMARK    2  A    between atoms: C_5  and  C_11
REMARK    3  A    between atoms: N_20  and  C_21
REMARK    4  A    between atoms: C_26  and  C_27
REMARK                            x       y       z     vdW  Elec       q    Type
REMARK                         _______ _______ _______ _____ _____    ______ ____
ROOT
ATOM      1  C   UNL     1       2.525   2.712  -3.448  0.00  0.00    +0.029 C 
ATOM      2  C   UNL     1       3.092   2.505  -2.275  0.00  0.00    +0.019 C 
ATOM      3  C   UNL     1       2.785   1.268  -1.456  0.00  0.00    +0.144 C 
ATOM      4  C   UNL     1       2.479   1.725  -0.023  0.00  0.00    +0.123 C 
ATOM      5  N   UNL     1       3.531   2.631   0.434  0.00  0.00    -0.291 N 
ATOM      6  C   UNL     1       4.199   3.438  -0.402  0.00  0.00    +0.304 C 
ATOM      7  O   UNL     1       5.012   4.216   0.059  0.00  0.00    -0.253 OA
ATOM      8  N   UNL     1       4.003   3.419  -1.733  0.00  0.00    -0.273 N 
ATOM      9  H   UNL     1       3.754   2.649   1.378  0.00  0.00    +0.151 HD
ATOM     10  H   UNL     1       4.487   4.031  -2.310  0.00  0.00    +0.156 HD
ENDROOT
BRANCH   4  11
ATOM     11  C   UNL     1       1.153   2.441   0.003  0.00  0.00    -0.008 A 
ATOM     12  C   UNL     1       1.006   3.647  -0.655  0.00  0.00    +0.007 A 
ATOM     13  C   UNL     1      -0.210   4.304  -0.631  0.00  0.00    +0.000 A 
ATOM     14  C   UNL     1      -1.280   3.753   0.050  0.00  0.00    +0.001 A 
ATOM     15  C   UNL     1      -1.136   2.545   0.704  0.00  0.00    +0.020 A 
ATOM     16  C   UNL     1       0.083   1.890   0.685  0.00  0.00    +0.046 A 
ATOM     17 CL   UNL     1       0.268   0.374   1.512  0.00  0.00    -0.083 Cl
ENDBRANCH   4  11
BRANCH   3  18
ATOM     18  C   UNL     1       1.588   0.557  -2.032  0.00  0.00    +0.228 C 
ATOM     19  O   UNL     1       0.551   0.508  -1.405  0.00  0.00    -0.275 OA
ATOM     20  N   UNL     1       1.669  -0.026  -3.245  0.00  0.00    -0.284 N 
ATOM     21  H   UNL     1       2.521  -0.062  -3.709  0.00  0.00    +0.155 HD
BRANCH  20  22
ATOM     22  C   UNL     1       0.526  -0.577  -3.834  0.00  0.00    +0.045 A 
ATOM     23  C   UNL     1      -0.733  -0.114  -3.478  0.00  0.00    +0.024 A 
ATOM     24  C   UNL     1      -1.859  -0.656  -4.066  0.00  0.00    +0.002 A 
ATOM     25  C   UNL     1      -1.733  -1.667  -5.001  0.00  0.00    +0.001 A 
ATOM     26  C   UNL     1      -0.481  -2.134  -5.354  0.00  0.00    +0.014 A 
ATOM     27  C   UNL     1       0.649  -1.592  -4.774  0.00  0.00    +0.076 A 
BRANCH  27  28
ATOM     28  C   UNL     1       2.014  -2.102  -5.160  0.00  0.00    +0.419 C 
ATOM     29  F   UNL     1       1.880  -3.116  -6.114  0.00  0.00    -0.166 F 
ATOM     30  F   UNL     1       2.769  -1.053  -5.696  0.00  0.00    -0.166 F 
ATOM     31  F   UNL     1       2.659  -2.610  -4.027  0.00  0.00    -0.166 F 
ENDBRANCH  27  28
ENDBRANCH  20  22
ENDBRANCH   3  18
TORSDOF 4
