REMARK  Name = ZINC41673292
REMARK  8 active torsions:
REMARK  status: ('A' for Active; 'I' for Inactive)
REMARK    1  A    between atoms: C_1  and  C_2
REMARK    2  A    between atoms: C_2  and  C_3
REMARK    3  A    between atoms: C_2  and  C_4
REMARK    4  A    between atoms: C_2  and  N_10
REMARK    5  A    between atoms: C_11  and  C_13
REMARK    6  A    between atoms: C_13  and  C_22
REMARK    7  A    between atoms: C_14  and  C_15
REMARK    8  A    between atoms: C_19  and  O_21
REMARK                            x       y       z     vdW  Elec       q    Type
REMARK                         _______ _______ _______ _____ _____    ______ ____
ROOT
ATOM      1  N   UNL     1       0.586  -0.558  -1.466  0.00  0.00    -0.302 N 
ATOM      2  C   UNL     1       1.857  -0.233  -1.773  0.00  0.00    +0.255 C 
ATOM      3  O   UNL     1       2.548   0.351  -0.961  0.00  0.00    -0.269 OA
ATOM      4  H   UNL     1       0.034  -1.024  -2.115  0.00  0.00    +0.150 HD
ENDROOT
BRANCH   1   6
ATOM      5  C   UNL     1       0.137   1.303   0.055  0.00  0.00    +0.036 C 
ATOM      6  C   UNL     1       0.036  -0.209  -0.154  0.00  0.00    +0.054 C 
ATOM      7  C   UNL     1       0.830  -0.928   0.939  0.00  0.00    +0.036 C 
BRANCH   6   8
ATOM      8  C   UNL     1      -1.409  -0.631  -0.086  0.00  0.00    -0.025 A 
ATOM      9  C   UNL     1      -1.993  -0.899   1.138  0.00  0.00    +0.006 A 
ATOM     10  C   UNL     1      -3.319  -1.286   1.201  0.00  0.00    +0.000 A 
ATOM     11  C   UNL     1      -4.060  -1.404   0.040  0.00  0.00    +0.000 A 
ATOM     12  C   UNL     1      -3.476  -1.135  -1.183  0.00  0.00    +0.000 A 
ATOM     13  C   UNL     1      -2.151  -0.744  -1.246  0.00  0.00    +0.006 A 
ENDBRANCH   6   8
ENDBRANCH   1   6
BRANCH   2  14
ATOM     14  C   UNL     1       2.409  -0.584  -3.093  0.00  0.00    +0.114 C 
ATOM     15  C   UNL     1       3.697  -0.254  -3.404  0.00  0.00    +0.032 C 
BRANCH  15  16
ATOM     16  C   UNL     1       4.200  -0.465  -4.766  0.00  0.00    -0.020 A 
ATOM     17  C   UNL     1       3.324  -0.399  -5.858  0.00  0.00    +0.008 A 
ATOM     18  C   UNL     1       3.802  -0.598  -7.135  0.00  0.00    +0.004 A 
ATOM     19  C   UNL     1       5.144  -0.862  -7.345  0.00  0.00    +0.045 A 
ATOM     20  C   UNL     1       6.021  -0.930  -6.270  0.00  0.00    +0.117 A 
ATOM     21  C   UNL     1       5.558  -0.727  -4.982  0.00  0.00    +0.053 A 
BRANCH  20  22
ATOM     22  O   UNL     1       7.338  -1.190  -6.484  0.00  0.00    -0.507 OA
ATOM     23  H   UNL     1       7.878  -0.399  -6.621  0.00  0.00    +0.292 HD
ENDBRANCH  20  22
ENDBRANCH  15  16
BRANCH  14  24
ATOM     24  C   UNL     1       1.595  -1.272  -4.050  0.00  0.00    +0.104 C 
ATOM     25  N   UNL     1       0.949  -1.817  -4.808  0.00  0.00    -0.191 NA
ENDBRANCH  14  24
ENDBRANCH   2  14
TORSDOF 6
