REMARK  Name = ZINC55184933
REMARK  9 active torsions:
REMARK  status: ('A' for Active; 'I' for Inactive)
REMARK    1  A    between atoms: C_1  and  N_2
REMARK    2  A    between atoms: N_2  and  C_3
REMARK    3  A    between atoms: C_8  and  N_10
REMARK    4  A    between atoms: N_12  and  C_13
REMARK    5  A    between atoms: C_13  and  C_14
REMARK    6  A    between atoms: C_17  and  C_19
REMARK    7  A    between atoms: C_22  and  N_26
REMARK    8  A    between atoms: N_29  and  C_30
REMARK    9  A    between atoms: C_30  and  C_31
REMARK                            x       y       z     vdW  Elec       q    Type
REMARK                         _______ _______ _______ _____ _____    ______ ____
ROOT
ATOM      1  N   UNL     1      -0.163  -0.750  -4.479  0.00  0.00    -0.204 NA
ATOM      2  C   UNL     1       0.902  -0.260  -5.056  0.00  0.00    +0.185 C 
ATOM      3  N   UNL     1       2.139  -0.657  -4.649  0.00  0.00    -0.328 N 
ATOM      4  H   UNL     1       2.232  -1.244  -3.883  0.00  0.00    +0.147 HD
ENDROOT
BRANCH   1  12
ATOM      5  C   UNL     1      -0.263   0.071   0.359  0.00  0.00    +0.132 C 
ATOM      6  N   UNL     1      -0.049  -1.364   0.160  0.00  0.00    -0.306 N 
ATOM      7  C   UNL     1       0.093  -2.252   1.317  0.00  0.00    +0.132 C 
ATOM      8  C   UNL     1       0.020  -1.881  -1.118  0.00  0.00    +0.223 A 
ATOM      9  N   UNL     1       0.209  -3.184  -1.299  0.00  0.00    -0.181 NA
ATOM     10  C   UNL     1       0.276  -3.685  -2.529  0.00  0.00    +0.222 A 
ATOM     11  N   UNL     1       0.153  -2.882  -3.581  0.00  0.00    -0.177 NA
ATOM     12  C   UNL     1      -0.037  -1.575  -3.402  0.00  0.00    +0.257 A 
ATOM     13  N   UNL     1      -0.109  -1.076  -2.167  0.00  0.00    -0.177 NA
ATOM     14  N   UNL     1       0.472  -5.038  -2.713  0.00  0.00    -0.309 N 
ATOM     15  H   UNL     1       0.637  -5.613  -1.949  0.00  0.00    +0.149 HD
BRANCH  14  16
ATOM     16  C   UNL     1       0.432  -5.607  -4.063  0.00  0.00    +0.139 C 
BRANCH  16  17
ATOM     17  C   UNL     1       0.553  -7.107  -3.979  0.00  0.00    -0.030 A 
ATOM     18  C   UNL     1       1.801  -7.697  -3.909  0.00  0.00    +0.005 A 
ATOM     19  C   UNL     1       1.913  -9.072  -3.833  0.00  0.00    +0.000 A 
ATOM     20  C   UNL     1       0.775  -9.858  -3.826  0.00  0.00    +0.000 A 
ATOM     21  C   UNL     1      -0.473  -9.269  -3.896  0.00  0.00    +0.000 A 
ATOM     22  C   UNL     1      -0.584  -7.893  -3.968  0.00  0.00    +0.005 A 
ENDBRANCH  16  17
ENDBRANCH  14  16
ENDBRANCH   1  12
BRANCH   3  23
ATOM     23  C   UNL     1       3.329  -0.197  -5.369  0.00  0.00    +0.176 C 
BRANCH  23  24
ATOM     24  C   UNL     1       4.551  -0.872  -4.800  0.00  0.00    +0.123 A 
ATOM     25  C   UNL     1       5.126  -1.991  -5.282  0.00  0.00    +0.047 A 
ATOM     26  C   UNL     1       6.235  -2.272  -4.459  0.00  0.00    +0.050 A 
ATOM     27  C   UNL     1       6.276  -1.298  -3.511  0.00  0.00    +0.137 A 
ATOM     28  O   UNL     1       5.252  -0.453  -3.734  0.00  0.00    -0.458 OA
BRANCH  27  29
ATOM     29  C   UNL     1       7.275  -1.185  -2.427  0.00  0.00    +0.036 A 
ATOM     30  C   UNL     1       7.479  -2.248  -1.547  0.00  0.00    +0.015 A 
ATOM     31  C   UNL     1       8.412  -2.136  -0.538  0.00  0.00    +0.033 A 
ATOM     32  C   UNL     1       9.147  -0.972  -0.397  0.00  0.00    +0.128 A 
ATOM     33  C   UNL     1       8.951   0.087  -1.265  0.00  0.00    +0.053 A 
ATOM     34  C   UNL     1       8.023  -0.014  -2.284  0.00  0.00    +0.054 A 
ATOM     35 CL   UNL     1       7.783   1.312  -3.377  0.00  0.00    -0.083 Cl
BRANCH  32  36
ATOM     36  N   UNL     1      10.147  -0.858   0.689  0.00  0.00    +0.056 N 
ATOM     37  O   UNL     1      10.321  -1.782   1.449  0.00  0.00    -0.126 OA
ATOM     38  O   UNL     1      10.790   0.158   0.814  0.00  0.00    -0.126 OA
ENDBRANCH  32  36
ENDBRANCH  27  29
ENDBRANCH  23  24
ENDBRANCH   3  23
TORSDOF 7
