REMARK  Name = ZINC01239385
REMARK  9 active torsions:
REMARK  status: ('A' for Active; 'I' for Inactive)
REMARK    1  A    between atoms: C_1  and  C_2
REMARK    2  A    between atoms: C_2  and  C_3
REMARK    3  A    between atoms: C_3  and  C_29
REMARK    4  A    between atoms: C_10  and  N_26
REMARK    5  A    between atoms: C_12  and  S_14
REMARK    6  A    between atoms: S_14  and  C_15
REMARK    7  A    between atoms: C_15  and  C_16
REMARK    8  A    between atoms: N_18  and  C_19
REMARK    9  A    between atoms: C_22  and  C_25
REMARK                            x       y       z     vdW  Elec       q    Type
REMARK                         _______ _______ _______ _____ _____    ______ ____
ROOT
ATOM      1  C   UNL     1       2.387 -12.779   0.663  0.00  0.00    +0.071 C 
ATOM      2  C   UNL     1       2.083 -11.449  -0.032  0.00  0.00    +0.071 C 
ATOM      3  C   UNL     1       3.385 -10.657  -0.130  0.00  0.00    -0.020 A 
ATOM      4  C   UNL     1       4.566 -11.295   0.024  0.00  0.00    +0.021 A 
ATOM      5  S   UNL     1       5.797 -10.036  -0.157  0.00  0.00    -0.071 S 
ATOM      6  C   UNL     1       4.724  -8.651  -0.440  0.00  0.00    +0.115 A 
ATOM      7  C   UNL     1       3.434  -9.218  -0.383  0.00  0.00    +0.051 A 
ATOM      8  C   UNL     1       2.356  -8.310  -0.581  0.00  0.00    +0.129 A 
ATOM      9  N   UNL     1       2.618  -7.032  -0.794  0.00  0.00    -0.207 NA
ATOM     10  C   UNL     1       3.860  -6.564  -0.840  0.00  0.00    +0.191 A 
ATOM     11  N   UNL     1       4.903  -7.364  -0.663  0.00  0.00    -0.214 NA
ATOM     12  C   UNL     1       4.755 -12.756   0.288  0.00  0.00    +0.203 C 
ATOM     13  O   UNL     1       3.504 -13.417   0.038  0.00  0.00    -0.368 OA
ATOM     14  C   UNL     1       2.714 -12.519   2.135  0.00  0.00    +0.042 C 
ENDROOT
BRANCH   8  15
ATOM     15  N   UNL     1       1.049  -8.759  -0.546  0.00  0.00    -0.343 N 
ATOM     16  H   UNL     1       0.863  -9.711  -0.538  0.00  0.00    +0.144 HD
ATOM     17  H   UNL     1       0.318  -8.122  -0.528  0.00  0.00    +0.144 HD
ENDBRANCH   8  15
BRANCH   1  19
ATOM     18  C   UNL     1       1.419 -14.971   1.368  0.00  0.00    +0.007 C 
ATOM     19  C   UNL     1       1.163 -13.692   0.569  0.00  0.00    +0.032 C 
ENDBRANCH   1  19
BRANCH  10  20
ATOM     20  S   UNL     1       4.127  -4.848  -1.136  0.00  0.00    -0.077 S 
BRANCH  20  21
ATOM     21  C   UNL     1       2.414  -4.286  -1.294  0.00  0.00    +0.173 C 
BRANCH  21  22
ATOM     22  C   UNL     1       2.394  -2.802  -1.558  0.00  0.00    +0.227 C 
ATOM     23  O   UNL     1       3.436  -2.186  -1.633  0.00  0.00    -0.275 OA
ATOM     24  N   UNL     1       1.219  -2.161  -1.712  0.00  0.00    -0.285 N 
ATOM     25  H   UNL     1       0.385  -2.638  -1.578  0.00  0.00    +0.155 HD
BRANCH  24  26
ATOM     26  C   UNL     1       1.202  -0.807  -2.066  0.00  0.00    +0.033 A 
ATOM     27  C   UNL     1       2.192  -0.291  -2.891  0.00  0.00    +0.023 A 
ATOM     28  C   UNL     1       2.172   1.046  -3.239  0.00  0.00    +0.005 A 
ATOM     29  C   UNL     1       1.167   1.870  -2.765  0.00  0.00    -0.050 A 
ATOM     30  C   UNL     1       0.180   1.359  -1.943  0.00  0.00    +0.005 A 
ATOM     31  C   UNL     1       0.194   0.023  -1.592  0.00  0.00    +0.023 A 
ATOM     32  C   UNL     1       1.149   3.328  -3.147  0.00  0.00    +0.044 C 
ENDBRANCH  24  26
ENDBRANCH  21  22
ENDBRANCH  20  21
ENDBRANCH  10  20
TORSDOF 6
