REMARK  Name = ZINC44937558
REMARK  7 active torsions:
REMARK  status: ('A' for Active; 'I' for Inactive)
REMARK    1  A    between atoms: C_1  and  C_2
REMARK    2  A    between atoms: C_7  and  C_8
REMARK    3  A    between atoms: C_8  and  C_10
REMARK    4  A    between atoms: C_8  and  N_16
REMARK    5  A    between atoms: C_17  and  C_19
REMARK    6  A    between atoms: N_24  and  C_26
REMARK    7  A    between atoms: C_26  and  C_27
REMARK                            x       y       z     vdW  Elec       q    Type
REMARK                         _______ _______ _______ _____ _____    ______ ____
ROOT
ATOM      1  N   UNL     1       0.843  -0.976   3.530  0.00  0.00    -0.304 N 
ATOM      2  C   UNL     1       1.431  -0.417   4.606  0.00  0.00    +0.215 C 
ATOM      3  O   UNL     1       1.323   0.774   4.807  0.00  0.00    -0.276 OA
ATOM      4  H   UNL     1       0.929  -1.929   3.370  0.00  0.00    +0.150 HD
ENDROOT
BRANCH   2   5
ATOM      5  C   UNL     1       2.224  -1.273   5.560  0.00  0.00    +0.058 C 
ATOM      6  C   UNL     1       3.383  -1.936   4.811  0.00  0.00    +0.009 C 
ATOM      7  C   UNL     1       4.227  -2.740   5.804  0.00  0.00    -0.018 C 
ATOM      8  C   UNL     1       4.714  -1.812   6.919  0.00  0.00    -0.078 C 
ATOM      9  N   UNL     1       3.560  -1.230   7.614  0.00  0.00    +0.383 N 
ATOM     10  C   UNL     1       2.784  -0.399   6.685  0.00  0.00    -0.066 C 
ATOM     11  H   UNL     1       2.974  -1.970   7.970  0.00  0.00    -0.081 HD
BRANCH   9  12
ATOM     12  C   UNL     1       4.031  -0.402   8.732  0.00  0.00    -0.043 C 
BRANCH  12  13
ATOM     13  C   UNL     1       4.713  -1.276   9.753  0.00  0.00    -0.064 A 
ATOM     14  C   UNL     1       3.979  -1.843  10.778  0.00  0.00    +0.003 A 
ATOM     15  C   UNL     1       4.604  -2.646  11.714  0.00  0.00    +0.015 A 
ATOM     16  C   UNL     1       5.964  -2.881  11.625  0.00  0.00    +0.018 A 
ATOM     17  C   UNL     1       6.698  -2.313  10.599  0.00  0.00    +0.015 A 
ATOM     18  C   UNL     1       6.071  -1.515   9.661  0.00  0.00    +0.003 A 
ATOM     19 BR   UNL     1       6.819  -3.978  12.905  0.00  0.00    -0.050 Br
ENDBRANCH  12  13
ENDBRANCH   9  12
ENDBRANCH   2   5
BRANCH   1  20
ATOM     20  C   UNL     1       0.072  -0.144   2.603  0.00  0.00    +0.134 C 
BRANCH  20  27
ATOM     21  C   UNL     1       2.406  -0.039   0.903  0.00  0.00    +0.044 C 
ATOM     22  C   UNL     1       1.162  -0.748   0.432  0.00  0.00    -0.045 A 
ATOM     23  C   UNL     1       1.140  -1.353  -0.811  0.00  0.00    +0.004 A 
ATOM     24  C   UNL     1      -0.001  -2.002  -1.243  0.00  0.00    +0.000 A 
ATOM     25  C   UNL     1      -1.119  -2.048  -0.432  0.00  0.00    +0.000 A 
ATOM     26  C   UNL     1      -1.097  -1.444   0.811  0.00  0.00    +0.006 A 
ATOM     27  C   UNL     1       0.046  -0.798   1.245  0.00  0.00    -0.020 A 
ENDBRANCH  20  27
BRANCH  20  28
ATOM     28  C   UNL     1      -1.337   0.006   3.115  0.00  0.00    -0.023 A 
ATOM     29  C   UNL     1      -1.947  -1.042   3.778  0.00  0.00    +0.006 A 
ATOM     30  C   UNL     1      -3.240  -0.904   4.248  0.00  0.00    +0.000 A 
ATOM     31  C   UNL     1      -3.922   0.283   4.056  0.00  0.00    +0.000 A 
ATOM     32  C   UNL     1      -3.312   1.331   3.393  0.00  0.00    +0.000 A 
ATOM     33  C   UNL     1      -2.018   1.195   2.927  0.00  0.00    +0.006 A 
ENDBRANCH  20  28
ENDBRANCH   1  20
TORSDOF 6
