REMARK  Name = ZINC28196743
REMARK  6 active torsions:
REMARK  status: ('A' for Active; 'I' for Inactive)
REMARK    1  A    between atoms: C_7  and  C_11
REMARK    2  A    between atoms: C_11  and  C_12
REMARK    3  A    between atoms: N_14  and  N_15
REMARK    4  A    between atoms: C_16  and  C_18
REMARK    5  A    between atoms: C_22  and  S_24
REMARK    6  A    between atoms: S_24  and  N_27
REMARK                            x       y       z     vdW  Elec       q    Type
REMARK                         _______ _______ _______ _____ _____    ______ ____
ROOT
ATOM      1  N   UNL     1       6.697  -0.096  -3.977  0.00  0.00    -0.230 N 
ATOM      2  C   UNL     1       6.269   0.206  -2.735  0.00  0.00    +0.260 C 
ATOM      3  O   UNL     1       6.673   1.209  -2.179  0.00  0.00    -0.269 OA
ATOM      4  H   UNL     1       6.331  -1.004  -4.479  0.00  0.00    +0.173 HD
ENDROOT
BRANCH   2   5
ATOM      5  C   UNL     1       5.308  -0.683  -2.048  0.00  0.00    +0.040 A 
ATOM      6  C   UNL     1       4.842  -1.836  -2.683  0.00  0.00    +0.013 A 
ATOM      7  C   UNL     1       3.946  -2.662  -2.036  0.00  0.00    +0.003 A 
ATOM      8  C   UNL     1       3.513  -2.352  -0.758  0.00  0.00    +0.028 A 
ATOM      9  C   UNL     1       3.966  -1.208  -0.126  0.00  0.00    +0.106 A 
ATOM     10  C   UNL     1       4.862  -0.374  -0.762  0.00  0.00    +0.041 A 
BRANCH   9  11
ATOM     11  S   UNL     1       3.402  -0.819   1.497  0.00  0.00    +0.061 S 
ATOM     12  O   UNL     1       4.396   0.011   2.084  0.00  0.00    -0.153 OA
ATOM     13  O   UNL     1       2.987  -2.043   2.087  0.00  0.00    -0.153 OA
BRANCH  11  14
ATOM     14  N   UNL     1       2.043   0.113   1.334  0.00  0.00    -0.177 NA
ATOM     15  C   UNL     1       0.714  -0.508   1.262  0.00  0.00    +0.109 C 
ATOM     16  C   UNL     1       0.002  -0.004   0.002  0.00  0.00    +0.017 C 
ATOM     17  C   UNL     1      -0.019   1.526   0.010  0.00  0.00    +0.003 C 
ATOM     18  C   UNL     1       1.417   2.058  -0.000  0.00  0.00    +0.017 C 
ATOM     19  C   UNL     1       2.144   1.577   1.259  0.00  0.00    +0.109 C 
ENDBRANCH  11  14
ENDBRANCH   9  11
ENDBRANCH   2   5
BRANCH   1  22
ATOM     20  C   UNL     1       8.035   0.445  -5.870  0.00  0.00    +0.233 C 
ATOM     21  O   UNL     1       7.632  -0.556  -6.423  0.00  0.00    -0.274 OA
ATOM     22  N   UNL     1       7.607   0.746  -4.628  0.00  0.00    -0.234 N 
ATOM     23  H   UNL     1       7.973   1.654  -4.125  0.00  0.00    +0.173 HD
BRANCH  20  24
ATOM     24  C   UNL     1       9.015   1.351  -6.570  0.00  0.00    +0.134 C 
BRANCH  24  31
ATOM     25  C   UNL     1       6.912   1.709 -10.744  0.00  0.00    +0.001 A 
ATOM     26  C   UNL     1       7.574   1.009 -11.744  0.00  0.00    +0.002 A 
ATOM     27  C   UNL     1       8.724   0.304 -11.466  0.00  0.00    +0.026 A 
ATOM     28  C   UNL     1       9.230   0.292 -10.170  0.00  0.00    +0.047 A 
ATOM     29  C   UNL     1       8.557   1.002  -9.160  0.00  0.00    +0.003 A 
ATOM     30  C   UNL     1       7.392   1.710  -9.464  0.00  0.00    +0.010 A 
ATOM     31  C   UNL     1       9.329   0.792  -7.934  0.00  0.00    -0.014 A 
ATOM     32  C   UNL     1      10.374   0.013  -8.256  0.00  0.00    +0.087 A 
ATOM     33  N   UNL     1      10.328  -0.300  -9.587  0.00  0.00    -0.360 N 
ATOM     34  H   UNL     1      11.008  -0.917 -10.194  0.00  0.00    +0.165 HD
ENDBRANCH  24  31
ENDBRANCH  20  24
ENDBRANCH   1  22
TORSDOF 6
