REMARK  Name = ZINC39608813
REMARK  7 active torsions:
REMARK  status: ('A' for Active; 'I' for Inactive)
REMARK    1  A    between atoms: C_1  and  C_2
REMARK    2  A    between atoms: C_16  and  C_17
REMARK    3  A    between atoms: C_17  and  O_19
REMARK    4  A    between atoms: O_19  and  C_20
REMARK    5  A    between atoms: C_20  and  C_21
REMARK    6  A    between atoms: C_21  and  C_23
REMARK    7  A    between atoms: C_24  and  C_33
REMARK                            x       y       z     vdW  Elec       q    Type
REMARK                         _______ _______ _______ _____ _____    ______ ____
ROOT
ATOM      1  C   UNL     1       0.015  -0.123   2.554  0.00  0.00    +0.347 C 
ATOM      2  O   UNL     1      -0.018   1.076   2.754  0.00  0.00    -0.244 OA
ENDROOT
BRANCH   1  18
ATOM      3  C   UNL     1      -0.050   1.570   0.032  0.00  0.00    +0.046 C 
ATOM      4  C   UNL     1      -0.009   0.064   0.011  0.00  0.00    -0.015 A 
ATOM      5  C   UNL     1       0.005  -0.619  -1.207  0.00  0.00    +0.076 A 
ATOM      6  C   UNL     1       0.043  -2.030  -1.122  0.00  0.00    +0.116 A 
ATOM      7  N   UNL     1       0.056  -2.797  -2.204  0.00  0.00    -0.226 NA
ATOM      8  C   UNL     1       0.030  -2.290  -3.404  0.00  0.00    +0.114 A 
ATOM      9  N   UNL     1      -0.004  -0.942  -3.612  0.00  0.00    -0.296 N 
ATOM     10  C   UNL     1      -0.013  -0.075  -2.585  0.00  0.00    +0.263 A 
ATOM     11  O   UNL     1      -0.034   1.126  -2.782  0.00  0.00    -0.267 OA
ATOM     12  C   UNL     1      -0.035  -0.454  -4.997  0.00  0.00    +0.126 C 
ATOM     13  C   UNL     1      -1.423  -0.698  -5.584  0.00  0.00    +0.022 C 
ATOM     14  C   UNL     1      -1.509  -2.064  -6.243  0.00  0.00    +0.002 C 
ATOM     15  C   UNL     1      -1.360  -3.195  -5.240  0.00  0.00    +0.008 C 
ATOM     16  C   UNL     1       0.033  -3.196  -4.614  0.00  0.00    +0.074 C 
ATOM     17  S   UNL     1       0.060  -2.332   0.627  0.00  0.00    -0.062 S 
ATOM     18  C   UNL     1       0.019  -0.636   1.182  0.00  0.00    +0.102 A 
ENDBRANCH   1  18
BRANCH   1  19
ATOM     19  O   UNL     1       0.046  -0.981   3.595  0.00  0.00    -0.453 OA
BRANCH  19  20
ATOM     20  C   UNL     1       0.040  -0.411   4.905  0.00  0.00    +0.312 C 
BRANCH  20  21
ATOM     21  C   UNL     1       0.078  -1.513   5.932  0.00  0.00    +0.203 C 
ATOM     22  O   UNL     1       0.011  -2.673   5.581  0.00  0.00    -0.288 OA
BRANCH  21  23
ATOM     23  C   UNL     1       0.194  -1.195   7.309  0.00  0.00    +0.049 A 
ATOM     24  C   UNL     1       1.358  -0.962   8.010  0.00  0.00    +0.025 A 
ATOM     25  N   UNL     1       1.065  -0.690   9.296  0.00  0.00    -0.358 N 
ATOM     26  H   UNL     1       1.722  -0.494   9.981  0.00  0.00    +0.166 HD
ATOM     27  C   UNL     1      -0.299  -0.730   9.504  0.00  0.00    +0.047 A 
ATOM     28  C   UNL     1      -0.908  -1.040   8.278  0.00  0.00    +0.011 A 
ATOM     29  C   UNL     1      -2.293  -1.141   8.192  0.00  0.00    +0.011 A 
ATOM     30  C   UNL     1      -3.064  -0.931   9.315  0.00  0.00    +0.001 A 
ATOM     31  C   UNL     1      -2.465  -0.622  10.527  0.00  0.00    +0.002 A 
ATOM     32  C   UNL     1      -1.094  -0.527  10.628  0.00  0.00    +0.026 A 
ATOM     33  C   UNL     1       2.747  -1.006   7.426  0.00  0.00    +0.064 C 
ENDBRANCH  21  23
ENDBRANCH  20  21
ENDBRANCH  19  20
ENDBRANCH   1  19
TORSDOF 5
