REMARK  Name = ZINC05626206
REMARK  4 active torsions:
REMARK  status: ('A' for Active; 'I' for Inactive)
REMARK    1  A    between atoms: C_3  and  C_9
REMARK    2  A    between atoms: C_17  and  C_25
REMARK    3  A    between atoms: C_19  and  C_20
REMARK    4  A    between atoms: C_19  and  C_22
REMARK                            x       y       z     vdW  Elec       q    Type
REMARK                         _______ _______ _______ _____ _____    ______ ____
ROOT
ATOM      1  C   UNL     1      -0.735   1.963  -1.246  0.00  0.00    +0.066 C 
ATOM      2  C   UNL     1      -2.121   1.389  -0.946  0.00  0.00    +0.009 C 
ATOM      3  C   UNL     1      -3.011   1.395  -2.169  0.00  0.00    -0.074 C 
ATOM      4  C   UNL     1      -4.803   2.485  -0.981  0.00  0.00    -0.055 C 
ATOM      5  C   UNL     1      -3.922   2.621   0.236  0.00  0.00    -0.045 C 
ATOM      6  C   UNL     1      -2.694   2.137   0.224  0.00  0.00    -0.051 C 
ATOM      7  C   UNL     1      -1.797   2.372   1.383  0.00  0.00    +0.163 C 
ATOM      8  C   UNL     1      -0.462   2.183   1.235  0.00  0.00    +0.065 C 
ATOM      9  C   UNL     1       0.174   1.720  -0.041  0.00  0.00    +0.188 C 
ATOM     10  N   UNL     1       0.346   2.427   2.310  0.00  0.00    -0.304 NA
ATOM     11  H   UNL     1       1.305   2.300   2.234  0.00  0.00    +0.186 HD
ATOM     12  N   UNL     1      -3.934   2.537  -2.174  0.00  0.00    +0.382 N 
ATOM     13  H   UNL     1      -4.515   2.502  -3.020  0.00  0.00    -0.085 HD
ATOM     14  H   UNL     1      -3.395   3.411  -2.164  0.00  0.00    -0.085 HD
ENDROOT
BRANCH   1  17
ATOM     15  C   UNL     1       0.408  -0.727  -3.636  0.00  0.00    +0.002 A 
ATOM     16  C   UNL     1      -0.117  -0.100  -2.521  0.00  0.00    +0.005 A 
ATOM     17  C   UNL     1      -0.158   1.280  -2.459  0.00  0.00    -0.021 A 
ATOM     18  C   UNL     1       0.336   2.035  -3.508  0.00  0.00    +0.063 A 
ATOM     19  C   UNL     1       0.866   1.407  -4.622  0.00  0.00    +0.060 A 
ATOM     20  C   UNL     1       0.902   0.026  -4.685  0.00  0.00    +0.021 A 
ATOM     21 CL   UNL     1       1.486   2.353  -5.939  0.00  0.00    -0.082 Cl
ATOM     22 CL   UNL     1       0.290   3.769  -3.427  0.00  0.00    -0.082 Cl
ENDBRANCH   1  17
BRANCH   9  23
ATOM     23  C   UNL     1       0.462   0.281   0.061  0.00  0.00    +0.091 C 
ATOM     24  N   UNL     1       0.684  -0.831   0.139  0.00  0.00    -0.195 NA
ENDBRANCH   9  23
BRANCH   9  25
ATOM     25  C   UNL     1       1.437   2.449  -0.238  0.00  0.00    +0.091 C 
ATOM     26  N   UNL     1       2.413   3.012  -0.391  0.00  0.00    -0.195 NA
ENDBRANCH   9  25
BRANCH   7  27
ATOM     27  C   UNL     1      -2.335   2.794   2.641  0.00  0.00    +0.076 C 
ATOM     28  N   UNL     1      -2.762   3.128   3.639  0.00  0.00    -0.196 NA
ENDBRANCH   7  27
TORSDOF 4
