REMARK  Name = ZINC16548212
REMARK  7 active torsions:
REMARK  status: ('A' for Active; 'I' for Inactive)
REMARK    1  A    between atoms: C_3  and  C_9
REMARK    2  A    between atoms: C_4  and  N_8
REMARK    3  A    between atoms: C_9  and  O_11
REMARK    4  A    between atoms: O_11  and  C_12
REMARK    5  A    between atoms: C_12  and  C_13
REMARK    6  A    between atoms: C_22  and  S_24
REMARK    7  A    between atoms: S_24  and  N_27
REMARK                            x       y       z     vdW  Elec       q    Type
REMARK                         _______ _______ _______ _____ _____    ______ ____
ROOT
ATOM      1  C   UNL     1       3.017   5.138  -1.684  0.00  0.00    +0.258 C 
ATOM      2  O   UNL     1       2.154   5.979  -1.817  0.00  0.00    -0.272 OA
ATOM      3  N   UNL     1       2.752   3.849  -1.973  0.00  0.00    -0.268 N 
ATOM      4  C   UNL     1       3.709   2.746  -1.852  0.00  0.00    +0.118 C 
ATOM      5  C   UNL     1       2.938   1.492  -2.292  0.00  0.00    +0.056 C 
ATOM      6  C   UNL     1       1.556   1.997  -2.641  0.00  0.00    -0.023 A 
ATOM      7  C   UNL     1       1.522   3.367  -2.432  0.00  0.00    +0.040 A 
ATOM      8  C   UNL     1       0.339   4.062  -2.688  0.00  0.00    +0.026 A 
ATOM      9  C   UNL     1      -0.778   3.392  -3.142  0.00  0.00    +0.030 A 
ATOM     10  C   UNL     1      -0.732   2.026  -3.352  0.00  0.00    +0.105 A 
ATOM     11  C   UNL     1       0.435   1.330  -3.095  0.00  0.00    +0.034 A 
ENDROOT
BRANCH  10  12
ATOM     12  S   UNL     1      -2.158   1.174  -3.940  0.00  0.00    +0.056 S 
ATOM     13  O   UNL     1      -2.953   2.135  -4.621  0.00  0.00    -0.153 OA
ATOM     14  O   UNL     1      -1.692  -0.012  -4.567  0.00  0.00    -0.153 OA
BRANCH  12  15
ATOM     15  N   UNL     1      -3.025   0.698  -2.612  0.00  0.00    -0.204 NA
ATOM     16  H   UNL     1      -2.704   0.909  -1.721  0.00  0.00    +0.144 HD
ATOM     17  H   UNL     1      -3.855   0.208  -2.724  0.00  0.00    +0.144 HD
ENDBRANCH  12  15
ENDBRANCH  10  12
BRANCH   1  18
ATOM     18  C   UNL     1       4.386   5.534  -1.195  0.00  0.00    +0.328 C 
BRANCH  18  19
ATOM     19  O   UNL     1       4.419   6.966  -0.955  0.00  0.00    -0.452 OA
BRANCH  19  20
ATOM     20  C   UNL     1       5.581   7.485  -0.511  0.00  0.00    +0.341 C 
ATOM     21  O   UNL     1       6.540   6.762  -0.329  0.00  0.00    -0.245 OA
BRANCH  20  24
ATOM     22  C   UNL     1       4.662  11.095  -0.085  0.00  0.00    +0.039 A 
ATOM     23  C   UNL     1       4.556   9.746  -0.334  0.00  0.00    +0.019 A 
ATOM     24  C   UNL     1       5.688   8.929  -0.246  0.00  0.00    +0.080 A 
ATOM     25  C   UNL     1       6.926   9.494   0.102  0.00  0.00    +0.041 A 
ATOM     26  C   UNL     1       7.016  10.858   0.343  0.00  0.00    +0.061 A 
ATOM     27  C   UNL     1       5.888  11.652   0.253  0.00  0.00    +0.125 A 
ATOM     28  F   UNL     1       5.980  12.979   0.495  0.00  0.00    -0.205 F 
BRANCH  25  29
ATOM     29  N   UNL     1       8.056   8.693   0.198  0.00  0.00    -0.357 N 
ATOM     30  H   UNL     1       8.094   7.849  -0.279  0.00  0.00    +0.142 HD
ATOM     31  H   UNL     1       8.807   8.976   0.743  0.00  0.00    +0.142 HD
ENDBRANCH  25  29
ENDBRANCH  20  24
ENDBRANCH  19  20
ENDBRANCH  18  19
ENDBRANCH   1  18
TORSDOF 7
