REMARK  Name = ZINC34791335
REMARK  15 active torsions:
REMARK  status: ('A' for Active; 'I' for Inactive)
REMARK    1  A    between atoms: C_1  and  C_2
REMARK    2  A    between atoms: C_2  and  N_3
REMARK    3  A    between atoms: C_6  and  C_11
REMARK    4  A    between atoms: C_14  and  C_18
REMARK    5  A    between atoms: C_16  and  C_17
REMARK    6  A    between atoms: N_21  and  C_23
REMARK    7  A    between atoms: C_23  and  C_25
REMARK    8  A    between atoms: C_23  and  C_29
REMARK    9  A    between atoms: C_25  and  C_26
REMARK   10  A    between atoms: C_26  and  C_27
REMARK   11  A    between atoms: C_26  and  C_28
REMARK   12  A    between atoms: C_35  and  C_38
REMARK   13  A    between atoms: C_38  and  O_40
REMARK   14  A    between atoms: O_40  and  C_41
REMARK   15  A    between atoms: C_41  and  C_42
REMARK                            x       y       z     vdW  Elec       q    Type
REMARK                         _______ _______ _______ _____ _____    ______ ____
ROOT
ATOM      1  N   UNL     1       0.781  -0.121  -1.834  0.00  0.00    -0.257 N 
ATOM      2  C   UNL     1      -0.156  -0.504  -2.751  0.00  0.00    +0.042 C 
ATOM      3  C   UNL     1       0.196  -1.149  -3.881  0.00  0.00    +0.058 C 
ATOM      4  C   UNL     1       1.668  -1.436  -4.100  0.00  0.00    +0.142 C 
ATOM      5  N   UNL     1       2.598  -0.982  -3.053  0.00  0.00    -0.288 N 
ATOM      6  C   UNL     1       2.094  -0.343  -1.978  0.00  0.00    +0.307 C 
ATOM      7  O   UNL     1       2.854   0.039  -1.111  0.00  0.00    -0.252 OA
ATOM      8  C   UNL     1      -0.946  -1.435  -4.658  0.00  0.00    +0.247 C 
ATOM      9  O   UNL     1      -0.922  -2.012  -5.730  0.00  0.00    -0.270 OA
ATOM     10  N   UNL     1      -2.065  -0.987  -4.061  0.00  0.00    -0.281 N 
ATOM     11  C   UNL     1      -1.660  -0.356  -2.796  0.00  0.00    +0.160 C 
ATOM     12  H   UNL     1       3.552  -1.136  -3.136  0.00  0.00    +0.151 HD
ENDROOT
BRANCH   4  13
ATOM     13  C   UNL     1       1.833  -2.926  -4.254  0.00  0.00    -0.020 A 
ATOM     14  C   UNL     1       0.830  -3.780  -3.835  0.00  0.00    +0.006 A 
ATOM     15  C   UNL     1       0.982  -5.146  -3.977  0.00  0.00    +0.004 A 
ATOM     16  C   UNL     1       2.137  -5.659  -4.537  0.00  0.00    -0.050 A 
ATOM     17  C   UNL     1       3.140  -4.805  -4.956  0.00  0.00    +0.007 A 
ATOM     18  C   UNL     1       2.986  -3.438  -4.819  0.00  0.00    -0.045 A 
ATOM     19  C   UNL     1       4.077  -2.507  -5.281  0.00  0.00    +0.044 C 
ATOM     20  C   UNL     1       2.303  -7.149  -4.690  0.00  0.00    +0.044 C 
ENDBRANCH   4  13
BRANCH   1  22
ATOM     21  C   UNL     1       0.306   2.085  -0.889  0.00  0.00    +0.025 C 
ATOM     22  C   UNL     1       0.326   0.577  -0.629  0.00  0.00    +0.111 C 
ENDBRANCH   1  22
BRANCH  10  23
ATOM     23  C   UNL     1      -3.431  -1.105  -4.575  0.00  0.00    +0.163 C 
BRANCH  23  24
ATOM     24  C   UNL     1      -3.778  -2.561  -4.749  0.00  0.00    +0.236 C 
ATOM     25  O   UNL     1      -2.898  -3.378  -4.919  0.00  0.00    -0.274 OA
ATOM     26  N   UNL     1      -5.067  -2.956  -4.714  0.00  0.00    -0.299 N 
ATOM     27  C   UNL     1      -6.150  -1.968  -4.625  0.00  0.00    +0.108 C 
ATOM     28  C   UNL     1      -7.141  -2.217  -5.766  0.00  0.00    +0.020 C 
ATOM     29  C   UNL     1      -7.612  -3.673  -5.717  0.00  0.00    +0.018 C 
ATOM     30  C   UNL     1      -6.414  -4.605  -5.905  0.00  0.00    +0.115 C 
ATOM     31  C   UNL     1      -5.415  -4.382  -4.772  0.00  0.00    +0.122 C 
BRANCH  30  32
ATOM     32  C   UNL     1      -6.883  -6.037  -5.891  0.00  0.00    +0.312 C 
ATOM     33  O   UNL     1      -6.461  -6.803  -5.057  0.00  0.00    -0.250 OA
BRANCH  32  34
ATOM     34  O   UNL     1      -7.771  -6.462  -6.803  0.00  0.00    -0.465 OA
BRANCH  34  35
ATOM     35  C   UNL     1      -8.172  -7.832  -6.730  0.00  0.00    +0.229 C 
ATOM     36  C   UNL     1      -9.179  -8.129  -7.843  0.00  0.00    +0.048 C 
ENDBRANCH  34  35
ENDBRANCH  32  34
ENDBRANCH  30  32
ENDBRANCH  23  24
BRANCH  23  37
ATOM     37  C   UNL     1      -3.532  -0.392  -5.925  0.00  0.00    +0.035 C 
BRANCH  37  38
ATOM     38  C   UNL     1      -3.263   1.102  -5.734  0.00  0.00    -0.015 C 
ATOM     39  C   UNL     1      -3.240   1.794  -7.098  0.00  0.00    +0.007 C 
ATOM     40  C   UNL     1      -4.368   1.713  -4.870  0.00  0.00    +0.007 C 
ENDBRANCH  37  38
ENDBRANCH  23  37
ENDBRANCH  10  23
TORSDOF 9
