REMARK  Name = ZINC13299828
REMARK  8 active torsions:
REMARK  status: ('A' for Active; 'I' for Inactive)
REMARK    1  A    between atoms: C_3  and  S_11
REMARK    2  A    between atoms: C_6  and  C_7
REMARK    3  A    between atoms: C_8  and  C_9
REMARK    4  A    between atoms: S_11  and  N_14
REMARK    5  A    between atoms: N_14  and  C_15
REMARK    6  A    between atoms: C_18  and  C_21
REMARK    7  A    between atoms: C_24  and  C_25
REMARK    8  A    between atoms: C_28  and  C_31
REMARK                            x       y       z     vdW  Elec       q    Type
REMARK                         _______ _______ _______ _____ _____    ______ ____
ROOT
ATOM      1  C   UNL     1      -0.501   3.929  -0.026  0.00  0.00    +0.048 A 
ATOM      2  C   UNL     1       0.789   3.436  -0.199  0.00  0.00    +0.025 A 
ATOM      3  C   UNL     1       0.995   2.084  -0.355  0.00  0.00    +0.015 A 
ATOM      4  C   UNL     1      -0.093   1.206  -0.339  0.00  0.00    +0.037 A 
ATOM      5  C   UNL     1      -1.388   1.706  -0.171  0.00  0.00    +0.015 A 
ATOM      6  C   UNL     1      -1.586   3.059  -0.009  0.00  0.00    +0.025 A 
ENDROOT
BRANCH   4   7
ATOM      7  C   UNL     1       0.123  -0.243  -0.505  0.00  0.00    +0.232 C 
ATOM      8  N   UNL     1      -0.832  -1.133  -0.498  0.00  0.00    -0.205 NA
ATOM      9  C   UNL     1      -0.289  -2.371  -0.680  0.00  0.00    +0.152 C 
ATOM     10  C   UNL     1      -0.956  -3.575  -0.738  0.00  0.00    +0.043 C 
ATOM     11  C   UNL     1       1.167  -2.148  -0.796  0.00  0.00    +0.364 C 
ATOM     12  O   UNL     1       2.031  -2.987  -0.963  0.00  0.00    -0.243 OA
ATOM     13  O   UNL     1       1.332  -0.813  -0.678  0.00  0.00    -0.402 OA
BRANCH  10  14
ATOM     14  C   UNL     1      -2.400  -3.624  -0.492  0.00  0.00    -0.023 A 
ATOM     15  C   UNL     1      -3.060  -4.860  -0.434  0.00  0.00    +0.009 A 
ATOM     16  C   UNL     1      -4.404  -4.905  -0.200  0.00  0.00    +0.019 A 
ATOM     17  C   UNL     1      -5.125  -3.719  -0.028  0.00  0.00    +0.052 A 
ATOM     18  C   UNL     1      -4.470  -2.485  -0.090  0.00  0.00    +0.019 A 
ATOM     19  C   UNL     1      -3.125  -2.436  -0.320  0.00  0.00    +0.009 A 
BRANCH  17  20
ATOM     20  C   UNL     1      -6.536  -3.767   0.213  0.00  0.00    +0.099 C 
ATOM     21  N   UNL     1      -7.655  -3.806   0.404  0.00  0.00    -0.191 NA
ENDBRANCH  17  20
ENDBRANCH  10  14
ENDBRANCH   4   7
BRANCH   1  22
ATOM     22  N   UNL     1      -0.705   5.298   0.131  0.00  0.00    -0.216 N 
ATOM     23  H   UNL     1      -0.141   5.807   0.733  0.00  0.00    +0.174 HD
BRANCH  22  24
ATOM     24  S   UNL     1      -1.913   6.056  -0.711  0.00  0.00    +0.072 S 
ATOM     25  O   UNL     1      -3.095   5.297  -0.497  0.00  0.00    -0.150 OA
ATOM     26  O   UNL     1      -1.827   7.438  -0.389  0.00  0.00    -0.150 OA
BRANCH  24  29
ATOM     27  C   UNL     1      -1.772   4.763  -4.510  0.00  0.00    +0.010 A 
ATOM     28  C   UNL     1      -2.072   4.883  -3.169  0.00  0.00    +0.029 A 
ATOM     29  C   UNL     1      -1.524   5.912  -2.423  0.00  0.00    +0.109 A 
ATOM     30  C   UNL     1      -0.677   6.832  -3.017  0.00  0.00    +0.029 A 
ATOM     31  C   UNL     1      -0.364   6.723  -4.355  0.00  0.00    +0.010 A 
ATOM     32  C   UNL     1      -0.913   5.685  -5.115  0.00  0.00    -0.025 A 
BRANCH  32  33
ATOM     33  C   UNL     1      -0.588   5.565  -6.546  0.00  0.00    +0.015 C 
ATOM     34  C   UNL     1       0.241   6.457  -7.127  0.00  0.00    +0.096 C 
BRANCH  34  35
ATOM     35  C   UNL     1       0.564   6.337  -8.548  0.00  0.00    +0.380 C 
ATOM     36  O   UNL     1       0.085   5.434  -9.206  0.00  0.00    -0.241 OA
ATOM     37  O   UNL     1       1.393   7.229  -9.129  0.00  0.00    -0.241 OA
ENDBRANCH  34  35
ENDBRANCH  32  33
ENDBRANCH  24  29
ENDBRANCH  22  24
ENDBRANCH   1  22
TORSDOF 8
