REMARK  Name = ZINC00592281
REMARK  8 active torsions:
REMARK  status: ('A' for Active; 'I' for Inactive)
REMARK    1  A    between atoms: C_3  and  O_33
REMARK    2  A    between atoms: C_6  and  C_7
REMARK    3  A    between atoms: C_9  and  C_21
REMARK    4  A    between atoms: N_13  and  C_14
REMARK    5  A    between atoms: C_21  and  C_22
REMARK    6  A    between atoms: C_22  and  C_23
REMARK    7  A    between atoms: C_23  and  C_25
REMARK    8  A    between atoms: C_23  and  O_32
REMARK                            x       y       z     vdW  Elec       q    Type
REMARK                         _______ _______ _______ _____ _____    ______ ____
ROOT
ATOM      1  C   UNL     1      -4.295   0.965   2.709  0.00  0.00    +0.123 C 
ATOM      2  C   UNL     1      -2.837   1.443   2.600  0.00  0.00    +0.101 C 
ATOM      3  C   UNL     1      -2.563   0.598   3.827  0.00  0.00    +0.226 C 
ATOM      4  O   UNL     1      -1.574   0.370   4.492  0.00  0.00    -0.275 OA
ATOM      5  N   UNL     1      -3.859   0.199   3.890  0.00  0.00    -0.263 N 
ENDROOT
BRANCH   5   6
ATOM      6  C   UNL     1      -4.544  -0.648   4.771  0.00  0.00    +0.037 A 
ATOM      7  C   UNL     1      -5.902  -0.880   4.597  0.00  0.00    +0.026 A 
ATOM      8  C   UNL     1      -6.575  -1.719   5.464  0.00  0.00    +0.040 A 
ATOM      9  C   UNL     1      -5.898  -2.320   6.512  0.00  0.00    +0.124 A 
ATOM     10  C   UNL     1      -4.545  -2.086   6.690  0.00  0.00    +0.040 A 
ATOM     11  C   UNL     1      -3.868  -1.252   5.823  0.00  0.00    +0.026 A 
ATOM     12  F   UNL     1      -6.559  -3.136   7.362  0.00  0.00    -0.205 F 
ENDBRANCH   5   6
BRANCH   1  18
ATOM     13  C   UNL     1      -5.415   2.506   4.332  0.00  0.00    +0.009 A 
ATOM     14  C   UNL     1      -6.306   3.520   4.626  0.00  0.00    +0.046 A 
ATOM     15  C   UNL     1      -7.065   4.090   3.614  0.00  0.00    +0.117 A 
ATOM     16  C   UNL     1      -6.923   3.644   2.308  0.00  0.00    +0.046 A 
ATOM     17  C   UNL     1      -6.027   2.634   2.018  0.00  0.00    +0.009 A 
ATOM     18  C   UNL     1      -5.271   2.067   3.028  0.00  0.00    -0.026 A 
BRANCH  15  19
ATOM     19  O   UNL     1      -7.946   5.084   3.902  0.00  0.00    -0.507 OA
ATOM     20  H   UNL     1      -8.547   5.536   3.099  0.00  0.00    +0.292 HD
ENDBRANCH  15  19
ENDBRANCH   1  18
BRANCH   2  21
ATOM     21  C   UNL     1      -2.121   0.950   1.341  0.00  0.00    +0.018 C 
BRANCH  21  22
ATOM     22  C   UNL     1      -0.729   1.579   1.267  0.00  0.00    +0.037 C 
BRANCH  22  23
ATOM     23  C   UNL     1      -0.013   1.086   0.008  0.00  0.00    +0.145 C 
BRANCH  23  24
ATOM     24  C   UNL     1       1.401   1.607  -0.003  0.00  0.00    -0.019 A 
ATOM     25  C   UNL     1       1.656   2.903  -0.413  0.00  0.00    +0.009 A 
ATOM     26  C   UNL     1       2.952   3.384  -0.419  0.00  0.00    +0.039 A 
ATOM     27  C   UNL     1       3.996   2.564  -0.023  0.00  0.00    +0.123 A 
ATOM     28  C   UNL     1       3.739   1.266   0.383  0.00  0.00    +0.039 A 
ATOM     29  C   UNL     1       2.442   0.789   0.393  0.00  0.00    +0.009 A 
ATOM     30  F   UNL     1       5.263   3.032  -0.033  0.00  0.00    -0.205 F 
ENDBRANCH  23  24
BRANCH  23  31
ATOM     31  O   UNL     1      -0.704   1.559  -1.150  0.00  0.00    -0.387 OA
ATOM     32  H   UNL     1      -0.334   1.304  -2.154  0.00  0.00    +0.210 HD
ENDBRANCH  23  31
ENDBRANCH  22  23
ENDBRANCH  21  22
ENDBRANCH   2  21
TORSDOF 8
