REMARK  Name = ZINC02430950
REMARK  7 active torsions:
REMARK  status: ('A' for Active; 'I' for Inactive)
REMARK    1  A    between atoms: C_1  and  C_2
REMARK    2  A    between atoms: C_5  and  C_27
REMARK    3  A    between atoms: N_14  and  C_15
REMARK    4  A    between atoms: C_15  and  C_16
REMARK    5  A    between atoms: C_16  and  C_18
REMARK    6  A    between atoms: N_21  and  C_26
REMARK    7  A    between atoms: N_24  and  C_25
REMARK                            x       y       z     vdW  Elec       q    Type
REMARK                         _______ _______ _______ _____ _____    ______ ____
ROOT
ATOM      1  C   UNL     1      -2.301   2.652   8.031  0.00  0.00    +0.009 C 
ATOM      2  C   UNL     1      -2.571   2.160   6.607  0.00  0.00    +0.004 C 
ATOM      3  C   UNL     1      -3.854   1.324   6.590  0.00  0.00    +0.009 C 
ATOM      4  C   UNL     1      -4.084   0.786   5.175  0.00  0.00    +0.004 C 
ATOM      5  C   UNL     1      -2.868  -0.036   4.743  0.00  0.00    +0.111 C 
ATOM      6  N   UNL     1      -1.667   0.808   4.776  0.00  0.00    -0.300 N 
ATOM      7  C   UNL     1      -1.399   1.298   6.134  0.00  0.00    +0.111 C 
ATOM      8  C   UNL     1      -0.578   0.136   4.270  0.00  0.00    +0.201 A 
ATOM      9  N   UNL     1      -0.149  -1.040   4.683  0.00  0.00    -0.196 NA
ATOM     10  C   UNL     1       0.929  -1.401   3.986  0.00  0.00    +0.170 A 
ATOM     11  C   UNL     1       1.196  -0.389   3.070  0.00  0.00    +0.153 A 
ATOM     12  N   UNL     1       0.222   0.581   3.265  0.00  0.00    -0.302 N 
ATOM     13  C   UNL     1       2.294  -0.521   2.202  0.00  0.00    +0.282 A 
ATOM     14  O   UNL     1       2.547   0.353   1.391  0.00  0.00    -0.265 OA
ATOM     15  N   UNL     1       3.065  -1.626   2.275  0.00  0.00    -0.262 N 
ATOM     16  C   UNL     1       2.798  -2.598   3.164  0.00  0.00    +0.333 A 
ATOM     17  O   UNL     1       3.515  -3.580   3.202  0.00  0.00    -0.246 OA
ATOM     18  N   UNL     1       1.757  -2.512   4.014  0.00  0.00    -0.280 N 
ATOM     19  C   UNL     1       1.500  -3.593   4.968  0.00  0.00    +0.155 C 
ATOM     20  C   UNL     1       4.210  -1.768   1.372  0.00  0.00    +0.157 C 
ATOM     21  C   UNL     1      -4.277   1.957   4.209  0.00  0.00    +0.009 C 
ENDROOT
BRANCH  12  22
ATOM     22  C   UNL     1       0.086   1.842   2.533  0.00  0.00    +0.155 C 
BRANCH  22  23
ATOM     23  C   UNL     1      -0.785   1.629   1.321  0.00  0.00    -0.060 C 
ATOM     24  C   UNL     1      -2.067   1.888   1.383  0.00  0.00    +0.009 C 
ATOM     25  C   UNL     1      -0.180   1.117   0.039  0.00  0.00    +0.040 C 
ENDBRANCH  22  23
ENDBRANCH  12  22
TORSDOF 2
