REMARK  Name = ZINC39945361
REMARK  8 active torsions:
REMARK  status: ('A' for Active; 'I' for Inactive)
REMARK    1  A    between atoms: C_1  and  C_2
REMARK    2  A    between atoms: C_4  and  C_12
REMARK    3  A    between atoms: N_13  and  N_14
REMARK    4  A    between atoms: C_15  and  C_25
REMARK    5  A    between atoms: N_20  and  C_21
REMARK    6  A    between atoms: C_21  and  C_22
REMARK    7  A    between atoms: C_22  and  C_24
REMARK    8  A    between atoms: C_29  and  C_31
REMARK                            x       y       z     vdW  Elec       q    Type
REMARK                         _______ _______ _______ _____ _____    ______ ____
ROOT
ATOM      1  N   UNL     1       0.822  -0.493  -4.856  0.00  0.00    -0.195 N 
ATOM      2  C   UNL     1       1.627  -1.052  -5.926  0.00  0.00    +0.140 C 
ATOM      3  C   UNL     1       1.151  -0.617  -7.331  0.00  0.00    +0.106 C 
ATOM      4  S   UNL     1      -0.506   0.069  -6.912  0.00  0.00    -0.089 S 
ATOM      5  C   UNL     1      -0.225   0.351  -5.171  0.00  0.00    +0.151 C 
ATOM      6  N   UNL     1      -0.861   1.169  -4.380  0.00  0.00    -0.363 N 
ATOM      7  H   UNL     1      -0.559   1.293  -3.466  0.00  0.00    +0.162 HD
ENDROOT
BRANCH   2   8
ATOM      8  C   UNL     1       3.055  -0.608  -5.741  0.00  0.00    -0.024 A 
ATOM      9  C   UNL     1       3.330   0.682  -5.329  0.00  0.00    +0.005 A 
ATOM     10  C   UNL     1       4.640   1.089  -5.159  0.00  0.00    +0.001 A 
ATOM     11  C   UNL     1       5.675   0.206  -5.402  0.00  0.00    +0.012 A 
ATOM     12  C   UNL     1       5.400  -1.084  -5.814  0.00  0.00    +0.055 A 
ATOM     13  C   UNL     1       4.090  -1.493  -5.979  0.00  0.00    +0.018 A 
BRANCH  12  14
ATOM     14  C   UNL     1       6.529  -2.047  -6.080  0.00  0.00    +0.417 C 
ATOM     15  F   UNL     1       7.751  -1.409  -5.842  0.00  0.00    -0.166 F 
ATOM     16  F   UNL     1       6.407  -3.153  -5.232  0.00  0.00    -0.166 F 
ATOM     17  F   UNL     1       6.476  -2.472  -7.411  0.00  0.00    -0.166 F 
ENDBRANCH  12  14
ENDBRANCH   2   8
BRANCH   1  19
ATOM     18  C   UNL     1       2.026  -1.693  -3.235  0.00  0.00    +0.137 C 
ATOM     19  N   UNL     1       1.099  -0.811  -3.521  0.00  0.00    -0.185 NA
BRANCH  18  22
ATOM     20  C   UNL     1       3.057  -4.316  -1.776  0.00  0.00    +0.035 C 
ATOM     21  C   UNL     1       3.438  -2.885  -1.393  0.00  0.00    +0.109 C 
ATOM     22  C   UNL     1       2.396  -1.914  -1.904  0.00  0.00    +0.003 C 
ATOM     23  C   UNL     1       1.881  -1.286  -0.770  0.00  0.00    +0.005 A 
ATOM     24  C   UNL     1       0.892  -0.294  -0.596  0.00  0.00    +0.010 A 
ATOM     25  C   UNL     1       0.586   0.140   0.653  0.00  0.00    +0.001 A 
ATOM     26  C   UNL     1       1.229  -0.371   1.784  0.00  0.00    +0.002 A 
ATOM     27  C   UNL     1       2.188  -1.324   1.691  0.00  0.00    +0.026 A 
ATOM     28  C   UNL     1       2.561  -1.829   0.418  0.00  0.00    +0.043 A 
ATOM     29  N   UNL     1       3.449  -2.738   0.066  0.00  0.00    -0.377 N 
ATOM     30  H   UNL     1       4.019  -3.233   0.675  0.00  0.00    +0.160 HD
ENDBRANCH  18  22
ENDBRANCH   1  19
BRANCH   6  31
ATOM     31  C   UNL     1      -2.031   1.901  -4.870  0.00  0.00    +0.144 C 
BRANCH  31  32
ATOM     32  C   UNL     1      -2.578   2.771  -3.768  0.00  0.00    -0.061 C 
ATOM     33  C   UNL     1      -2.217   4.027  -3.685  0.00  0.00    +0.009 C 
ATOM     34  C   UNL     1      -3.539   2.195  -2.760  0.00  0.00    +0.040 C 
ENDBRANCH  31  32
ENDBRANCH   6  31
TORSDOF 6
