REMARK  Name = ZINC04132346
REMARK  5 active torsions:
REMARK  status: ('A' for Active; 'I' for Inactive)
REMARK    1  A    between atoms: C_1  and  O_2
REMARK    2  A    between atoms: O_2  and  C_3
REMARK    3  A    between atoms: C_6  and  C_9
REMARK    4  A    between atoms: N_13  and  C_14
REMARK    5  A    between atoms: C_15  and  C_25
REMARK                            x       y       z     vdW  Elec       q    Type
REMARK                         _______ _______ _______ _____ _____    ______ ____
ROOT
ATOM      1  C   UNL     1      -3.666   2.317   0.116  0.00  0.00    +0.164 A 
ATOM      2  N   UNL     1      -4.647   1.443   0.224  0.00  0.00    -0.214 NA
ATOM      3  C   UNL     1      -4.178   0.213   0.035  0.00  0.00    +0.246 A 
ATOM      4  N   UNL     1      -2.893   0.269  -0.203  0.00  0.00    -0.152 NA
ATOM      5  N   UNL     1      -2.524   1.623  -0.151  0.00  0.00    -0.205 N 
ENDROOT
BRANCH   5   6
ATOM      6  C   UNL     1      -1.251   2.150  -0.341  0.00  0.00    +0.123 A 
ATOM      7  C   UNL     1      -0.083   1.837   0.325  0.00  0.00    +0.088 A 
ATOM      8  C   UNL     1       1.151   2.522  -0.070  0.00  0.00    -0.018 A 
ATOM      9  C   UNL     1       0.976   3.445  -1.035  0.00  0.00    -0.004 A 
ATOM     10  S   UNL     1      -0.743   3.362  -1.467  0.00  0.00    -0.073 S 
ATOM     11  C   UNL     1       1.991   4.381  -1.628  0.00  0.00    +0.043 C 
ATOM     12  C   UNL     1       2.171   5.542  -0.633  0.00  0.00    +0.005 C 
ATOM     13  C   UNL     1       2.513   4.949   0.738  0.00  0.00    +0.000 C 
ATOM     14  C   UNL     1       3.825   4.217   0.545  0.00  0.00    +0.000 C 
ATOM     15  C   UNL     1       3.669   2.814  -0.017  0.00  0.00    +0.005 C 
ATOM     16  C   UNL     1       2.467   2.087   0.571  0.00  0.00    +0.037 C 
BRANCH   7  17
ATOM     17  C   UNL     1      -0.077   0.862   1.374  0.00  0.00    +0.102 C 
ATOM     18  N   UNL     1      -0.071   0.088   2.205  0.00  0.00    -0.191 NA
ENDBRANCH   7  17
ENDBRANCH   5   6
BRANCH   1  22
ATOM     19  C   UNL     1      -4.002   6.532   0.532  0.00  0.00    +0.120 A 
ATOM     20  C   UNL     1      -5.135   5.768   0.284  0.00  0.00    +0.046 A 
ATOM     21  C   UNL     1      -5.030   4.400   0.148  0.00  0.00    +0.015 A 
ATOM     22  C   UNL     1      -3.783   3.783   0.261  0.00  0.00    +0.019 A 
ATOM     23  C   UNL     1      -2.647   4.554   0.515  0.00  0.00    +0.015 A 
ATOM     24  C   UNL     1      -2.760   5.922   0.644  0.00  0.00    +0.046 A 
BRANCH  19  26
ATOM     25  C   UNL     1      -2.905   8.604   0.919  0.00  0.00    +0.277 C 
ATOM     26  O   UNL     1      -4.110   7.879   0.665  0.00  0.00    -0.495 OA
ENDBRANCH  19  26
ENDBRANCH   1  22
TORSDOF 4
