REMARK  Name = ZINC43729321
REMARK  4 active torsions:
REMARK  status: ('A' for Active; 'I' for Inactive)
REMARK    1  A    between atoms: C_8  and  C_27
REMARK    2  A    between atoms: C_10  and  C_18
REMARK    3  A    between atoms: C_21  and  N_24
REMARK    4  A    between atoms: C_27  and  C_29
REMARK                            x       y       z     vdW  Elec       q    Type
REMARK                         _______ _______ _______ _____ _____    ______ ____
ROOT
ATOM      1  C   UNL     1      -0.231   1.279  -0.261  0.00  0.00    +0.000 A 
ATOM      2  C   UNL     1       0.937   2.005  -0.401  0.00  0.00    +0.002 A 
ATOM      3  C   UNL     1       2.155   1.361  -0.458  0.00  0.00    +0.023 A 
ATOM      4  C   UNL     1       2.217  -0.029  -0.375  0.00  0.00    +0.039 A 
ATOM      5  C   UNL     1       1.036  -0.748  -0.234  0.00  0.00    +0.004 A 
ATOM      6  C   UNL     1      -0.178  -0.101  -0.177  0.00  0.00    +0.008 A 
ATOM      7  C   UNL     1       1.436  -2.199  -0.175  0.00  0.00    +0.137 C 
ATOM      8  C   UNL     1       1.005  -2.834   1.150  0.00  0.00    +0.103 C 
ATOM      9  C   UNL     1       0.108  -4.026   0.761  0.00  0.00    +0.050 C 
ATOM     10  C   UNL     1      -0.273  -3.759  -0.707  0.00  0.00    +0.077 C 
ATOM     11  N   UNL     1       0.827  -2.961  -1.274  0.00  0.00    -0.271 NA
ATOM     12  C   UNL     1       0.443  -2.043  -2.371  0.00  0.00    +0.155 C 
ATOM     13  S   UNL     1      -1.396  -2.158  -2.395  0.00  0.00    -0.144 S 
ATOM     14  C   UNL     1      -1.611  -2.966  -0.738  0.00  0.00    +0.090 C 
ATOM     15  C   UNL     1       2.939  -2.185  -0.298  0.00  0.00    +0.243 C 
ATOM     16  O   UNL     1       3.673  -3.151  -0.297  0.00  0.00    -0.273 OA
ATOM     17  N   UNL     1       3.310  -0.897  -0.408  0.00  0.00    -0.283 N 
ATOM     18  H   UNL     1       4.231  -0.605  -0.501  0.00  0.00    +0.155 HD
ENDROOT
BRANCH   9  19
ATOM     19  C   UNL     1      -1.124  -4.062   1.629  0.00  0.00    -0.042 A 
ATOM     20  C   UNL     1      -1.695  -5.274   1.968  0.00  0.00    +0.006 A 
ATOM     21  C   UNL     1      -2.825  -5.307   2.764  0.00  0.00    +0.033 A 
ATOM     22  C   UNL     1      -3.384  -4.128   3.220  0.00  0.00    +0.126 A 
ATOM     23  C   UNL     1      -2.812  -2.916   2.881  0.00  0.00    +0.033 A 
ATOM     24  C   UNL     1      -1.680  -2.883   2.089  0.00  0.00    +0.006 A 
BRANCH  22  25
ATOM     25  N   UNL     1      -4.594  -4.163   4.071  0.00  0.00    +0.056 N 
ATOM     26  O   UNL     1      -5.094  -5.223   4.367  0.00  0.00    -0.126 OA
ATOM     27  O   UNL     1      -5.083  -3.132   4.471  0.00  0.00    -0.126 OA
ENDBRANCH  22  25
ENDBRANCH   9  19
BRANCH   8  28
ATOM     28  C   UNL     1       2.211  -3.314   1.915  0.00  0.00    +0.169 C 
ATOM     29  O   UNL     1       2.604  -4.453   1.775  0.00  0.00    -0.292 OA
BRANCH  28  30
ATOM     30  C   UNL     1       2.912  -2.402   2.831  0.00  0.00    +0.018 A 
ATOM     31  C   UNL     1       2.458  -1.089   2.999  0.00  0.00    +0.014 A 
ATOM     32  C   UNL     1       3.119  -0.240   3.859  0.00  0.00    +0.039 A 
ATOM     33  C   UNL     1       4.233  -0.684   4.557  0.00  0.00    +0.123 A 
ATOM     34  C   UNL     1       4.688  -1.984   4.395  0.00  0.00    +0.039 A 
ATOM     35  C   UNL     1       4.032  -2.845   3.543  0.00  0.00    +0.014 A 
ATOM     36  F   UNL     1       4.877   0.155   5.398  0.00  0.00    -0.205 F 
ENDBRANCH  28  30
ENDBRANCH   8  28
TORSDOF 4
