REMARK  Name = ZINC06073561
REMARK  7 active torsions:
REMARK  status: ('A' for Active; 'I' for Inactive)
REMARK    1  A    between atoms: C_2  and  C_3
REMARK    2  A    between atoms: C_3  and  N_4
REMARK    3  A    between atoms: C_5  and  C_21
REMARK    4  A    between atoms: C_8  and  S_9
REMARK    5  A    between atoms: S_9  and  C_10
REMARK    6  A    between atoms: C_10  and  C_11
REMARK    7  A    between atoms: N_13  and  C_14
REMARK                            x       y       z     vdW  Elec       q    Type
REMARK                         _______ _______ _______ _____ _____    ______ ____
ROOT
ATOM      1  N   UNL     1      -1.914   1.456   1.318  0.00  0.00    -0.298 N 
ATOM      2  C   UNL     1      -2.048   2.317   2.383  0.00  0.00    +0.166 A 
ATOM      3  N   UNL     1      -2.950   1.800   3.184  0.00  0.00    -0.128 NA
ATOM      4  N   UNL     1      -3.384   0.691   2.700  0.00  0.00    -0.122 NA
ATOM      5  C   UNL     1      -2.788   0.435   1.556  0.00  0.00    +0.193 A 
ENDROOT
BRANCH   2   6
ATOM      6  C   UNL     1      -1.315   3.584   2.587  0.00  0.00    +0.033 A 
ATOM      7  C   UNL     1      -1.226   4.517   1.553  0.00  0.00    +0.013 A 
ATOM      8  C   UNL     1      -0.539   5.697   1.749  0.00  0.00    +0.001 A 
ATOM      9  C   UNL     1       0.060   5.958   2.969  0.00  0.00    +0.001 A 
ATOM     10  C   UNL     1      -0.024   5.038   3.999  0.00  0.00    +0.016 A 
ATOM     11  C   UNL     1      -0.712   3.855   3.817  0.00  0.00    +0.029 A 
ATOM     12 BR   UNL     1      -0.833   2.602   5.228  0.00  0.00    -0.050 Br
ENDBRANCH   2   6
BRANCH   1  13
ATOM     13  C   UNL     1      -1.023   1.608   0.164  0.00  0.00    +0.152 C 
BRANCH  13  15
ATOM     14  C   UNL     1       1.403   1.493   0.406  0.00  0.00    +0.005 C 
ATOM     15  C   UNL     1       0.259   0.857   0.417  0.00  0.00    -0.013 C 
ENDBRANCH  13  15
ENDBRANCH   1  13
BRANCH   5  16
ATOM     16  S   UNL     1      -3.064  -0.968   0.526  0.00  0.00    -0.077 S 
BRANCH  16  17
ATOM     17  C   UNL     1      -4.325  -1.829   1.497  0.00  0.00    +0.173 C 
BRANCH  17  18
ATOM     18  C   UNL     1      -4.726  -3.096   0.789  0.00  0.00    +0.227 C 
ATOM     19  O   UNL     1      -4.210  -3.389  -0.269  0.00  0.00    -0.275 OA
ATOM     20  N   UNL     1      -5.659  -3.905   1.330  0.00  0.00    -0.285 N 
ATOM     21  H   UNL     1      -6.125  -3.636   2.138  0.00  0.00    +0.155 HD
BRANCH  20  22
ATOM     22  C   UNL     1      -5.955  -5.133   0.728  0.00  0.00    +0.033 A 
ATOM     23  C   UNL     1      -7.245  -5.643   0.786  0.00  0.00    +0.024 A 
ATOM     24  C   UNL     1      -7.536  -6.853   0.186  0.00  0.00    +0.017 A 
ATOM     25  C   UNL     1      -6.541  -7.562  -0.462  0.00  0.00    +0.018 A 
ATOM     26  C   UNL     1      -5.253  -7.059  -0.517  0.00  0.00    +0.017 A 
ATOM     27  C   UNL     1      -4.958  -5.847   0.076  0.00  0.00    +0.024 A 
ATOM     28 BR   UNL     1      -6.941  -9.221  -1.277  0.00  0.00    -0.050 Br
ENDBRANCH  20  22
ENDBRANCH  17  18
ENDBRANCH  16  17
ENDBRANCH   5  16
TORSDOF 7
