REMARK  Name = ZINC00985829
REMARK  10 active torsions:
REMARK  status: ('A' for Active; 'I' for Inactive)
REMARK    1  A    between atoms: C_1  and  C_2
REMARK    2  A    between atoms: C_2  and  C_3
REMARK    3  A    between atoms: C_2  and  C_4
REMARK    4  A    between atoms: C_4  and  C_5
REMARK    5  A    between atoms: C_8  and  C_11
REMARK    6  A    between atoms: C_17  and  C_25
REMARK    7  A    between atoms: C_19  and  C_23
REMARK    8  A    between atoms: C_20  and  N_22
REMARK    9  A    between atoms: C_29  and  O_31
REMARK   10  A    between atoms: O_31  and  C_32
REMARK                            x       y       z     vdW  Elec       q    Type
REMARK                         _______ _______ _______ _____ _____    ______ ____
ROOT
ATOM      1  C   UNL     1      -1.367  -6.260  -0.491  0.00  0.00    +0.084 C 
ATOM      2  N   UNL     1      -1.389  -6.951  -1.599  0.00  0.00    -0.150 NA
ATOM      3  N   UNL     1      -1.328  -8.325  -1.366  0.00  0.00    -0.115 NA
ATOM      4  C   UNL     1      -1.206  -8.597  -0.116  0.00  0.00    +0.227 C 
ATOM      5  C   UNL     1      -1.314  -7.271   0.632  0.00  0.00    +0.140 C 
ATOM      6  C   UNL     1      -0.013  -7.132   1.432  0.00  0.00    +0.082 C 
ATOM      7  C   UNL     1       0.334  -8.464   2.040  0.00  0.00    +0.095 C 
ATOM      8  C   UNL     1      -0.133  -9.649   1.594  0.00  0.00    +0.200 C 
ATOM      9  O   UNL     1      -0.995  -9.755   0.546  0.00  0.00    -0.425 OA
ENDROOT
BRANCH   1  13
ATOM     10  C   UNL     1      -1.416  -2.035  -0.119  0.00  0.00    -0.047 A 
ATOM     11  C   UNL     1      -1.450  -2.616  -1.375  0.00  0.00    +0.004 A 
ATOM     12  C   UNL     1      -1.434  -3.989  -1.504  0.00  0.00    +0.010 A 
ATOM     13  C   UNL     1      -1.383  -4.794  -0.362  0.00  0.00    -0.001 A 
ATOM     14  C   UNL     1      -1.349  -4.199   0.903  0.00  0.00    +0.010 A 
ATOM     15  C   UNL     1      -1.360  -2.825   1.016  0.00  0.00    +0.004 A 
BRANCH  10  16
ATOM     16  C   UNL     1      -1.433  -0.534   0.013  0.00  0.00    +0.038 C 
BRANCH  16  18
ATOM     17  C   UNL     1      -0.019   1.526   0.010  0.00  0.00    +0.007 C 
ATOM     18  C   UNL     1       0.002  -0.004   0.002  0.00  0.00    -0.013 C 
ATOM     19  C   UNL     1       0.742  -0.511   1.242  0.00  0.00    +0.007 C 
ENDBRANCH  16  18
ENDBRANCH  10  16
ENDBRANCH   1  13
BRANCH   6  20
ATOM     20  C   UNL     1       1.098  -6.690   0.515  0.00  0.00    -0.035 A 
ATOM     21  C   UNL     1       1.450  -7.471  -0.571  0.00  0.00    +0.004 A 
ATOM     22  C   UNL     1       2.469  -7.069  -1.414  0.00  0.00    +0.004 A 
ATOM     23  C   UNL     1       3.138  -5.884  -1.173  0.00  0.00    +0.045 A 
ATOM     24  C   UNL     1       2.787  -5.098  -0.086  0.00  0.00    +0.120 A 
ATOM     25  C   UNL     1       1.760  -5.502   0.755  0.00  0.00    +0.050 A 
BRANCH  24  26
ATOM     26  O   UNL     1       3.443  -3.933   0.152  0.00  0.00    -0.495 OA
ATOM     27  C   UNL     1       4.486  -3.577  -0.758  0.00  0.00    +0.277 C 
ENDBRANCH  24  26
ENDBRANCH   6  20
BRANCH   8  28
ATOM     28  N   UNL     1       0.276 -10.796   2.227  0.00  0.00    -0.328 N 
ATOM     29  H   UNL     1       0.886 -10.744   2.979  0.00  0.00    +0.145 HD
ATOM     30  H   UNL     1      -0.047 -11.659   1.923  0.00  0.00    +0.145 HD
ENDBRANCH   8  28
BRANCH   7  31
ATOM     31  C   UNL     1       1.217  -8.475   3.167  0.00  0.00    +0.100 C 
ATOM     32  N   UNL     1       1.919  -8.484   4.060  0.00  0.00    -0.191 NA
ENDBRANCH   7  31
TORSDOF 7
