REMARK  Name = ZINC08715395
REMARK  6 active torsions:
REMARK  status: ('A' for Active; 'I' for Inactive)
REMARK    1  A    between atoms: C_1  and  C_2
REMARK    2  A    between atoms: N_8  and  S_9
REMARK    3  A    between atoms: S_9  and  C_12
REMARK    4  A    between atoms: C_15  and  N_18
REMARK    5  A    between atoms: C_19  and  C_21
REMARK    6  A    between atoms: C_21  and  N_22
REMARK                            x       y       z     vdW  Elec       q    Type
REMARK                         _______ _______ _______ _____ _____    ______ ____
ROOT
ATOM      1  N   UNL     1       2.376   8.262  -1.714  0.00  0.00    -0.284 N 
ATOM      2  C   UNL     1       2.422   9.018  -0.599  0.00  0.00    +0.236 C 
ATOM      3  O   UNL     1       2.458  10.227  -0.687  0.00  0.00    -0.274 OA
ATOM      4  H   UNL     1       2.416   7.295  -1.647  0.00  0.00    +0.155 HD
ENDROOT
BRANCH   1   8
ATOM      5  C   UNL     1       2.066  10.078  -5.451  0.00  0.00    +0.106 A 
ATOM      6  C   UNL     1       2.809  10.679  -4.452  0.00  0.00    +0.030 A 
ATOM      7  C   UNL     1       2.914  10.079  -3.212  0.00  0.00    +0.025 A 
ATOM      8  C   UNL     1       2.272   8.873  -2.969  0.00  0.00    +0.034 A 
ATOM      9  C   UNL     1       1.529   8.270  -3.976  0.00  0.00    +0.025 A 
ATOM     10  C   UNL     1       1.424   8.877  -5.212  0.00  0.00    +0.030 A 
BRANCH   5  11
ATOM     11  S   UNL     1       1.934  10.846  -7.031  0.00  0.00    +0.061 S 
ATOM     12  O   UNL     1       0.842  10.225  -7.695  0.00  0.00    -0.153 OA
ATOM     13  O   UNL     1       1.992  12.248  -6.807  0.00  0.00    -0.153 OA
BRANCH  11  20
ATOM     14  C   UNL     1       2.048   8.429  -8.500  0.00  0.00    +0.026 C 
ATOM     15  C   UNL     1       3.392   9.155  -8.578  0.00  0.00    +0.077 C 
ATOM     16  C   UNL     1       3.754   9.416 -10.048  0.00  0.00    +0.020 C 
ATOM     17  C   UNL     1       5.029  10.260 -10.112  0.00  0.00    +0.003 C 
ATOM     18  C   UNL     1       4.785  11.608  -9.430  0.00  0.00    +0.017 C 
ATOM     19  C   UNL     1       4.433  11.374  -7.957  0.00  0.00    +0.110 C 
ATOM     20  N   UNL     1       3.296  10.447  -7.885  0.00  0.00    -0.174 NA
ENDBRANCH  11  20
ENDBRANCH   5  11
ENDBRANCH   1   8
BRANCH   2  21
ATOM     21  C   UNL     1       2.430   8.361   0.757  0.00  0.00    +0.230 C 
BRANCH  21  22
ATOM     22  N   UNL     1       2.483   9.390   1.798  0.00  0.00    -0.159 N 
ATOM     23  C   UNL     1       3.577   9.994   2.288  0.00  0.00    +0.268 C 
ATOM     24  O   UNL     1       4.684   9.712   1.874  0.00  0.00    -0.268 OA
ATOM     25  C   UNL     1       3.399  11.005   3.338  0.00  0.00    +0.065 A 
ATOM     26  C   UNL     1       4.354  11.781   4.017  0.00  0.00    +0.015 A 
ATOM     27  C   UNL     1       3.961  12.685   4.977  0.00  0.00    +0.001 A 
ATOM     28  C   UNL     1       2.624  12.844   5.300  0.00  0.00    +0.002 A 
ATOM     29  C   UNL     1       1.667  12.088   4.639  0.00  0.00    +0.029 A 
ATOM     30  C   UNL     1       2.054  11.193   3.682  0.00  0.00    +0.121 A 
ATOM     31  S   UNL     1       1.193  10.059   2.627  0.00  0.00    +0.078 S 
ATOM     32  O   UNL     1       0.634   9.043   3.449  0.00  0.00    -0.150 OA
ATOM     33  O   UNL     1       0.434  10.823   1.700  0.00  0.00    -0.150 OA
ENDBRANCH  21  22
ENDBRANCH   2  21
TORSDOF 5
