REMARK  Name = ZINC00717055
REMARK  8 active torsions:
REMARK  status: ('A' for Active; 'I' for Inactive)
REMARK    1  A    between atoms: C_1  and  C_2
REMARK    2  A    between atoms: C_5  and  N_9
REMARK    3  A    between atoms: C_6  and  C_8
REMARK    4  A    between atoms: C_10  and  C_12
REMARK    5  A    between atoms: C_12  and  C_13
REMARK    6  A    between atoms: C_13  and  C_31
REMARK    7  A    between atoms: N_23  and  C_24
REMARK    8  A    between atoms: C_29  and  C_30
REMARK                            x       y       z     vdW  Elec       q    Type
REMARK                         _______ _______ _______ _____ _____    ______ ____
ROOT
ATOM      1  C   UNL     1       1.139   3.362  -0.173  0.00  0.00    +0.112 C 
ATOM      2  N   UNL     1       0.005   4.029   0.478  0.00  0.00    -0.322 N 
ATOM      3  C   UNL     1      -1.264   3.477   0.344  0.00  0.00    +0.041 A 
ATOM      4  C   UNL     1      -2.407   4.257   0.393  0.00  0.00    +0.024 A 
ATOM      5  C   UNL     1      -3.648   3.662   0.250  0.00  0.00    +0.002 A 
ATOM      6  C   UNL     1      -3.756   2.292   0.073  0.00  0.00    +0.001 A 
ATOM      7  C   UNL     1      -2.627   1.500   0.023  0.00  0.00    +0.015 A 
ATOM      8  C   UNL     1      -1.371   2.088   0.152  0.00  0.00    +0.058 A 
ATOM      9  C   UNL     1      -0.135   1.287   0.095  0.00  0.00    +0.254 C 
ATOM     10  O   UNL     1      -0.189   0.073   0.107  0.00  0.00    -0.270 OA
ATOM     11  N   UNL     1       1.056   1.914   0.023  0.00  0.00    -0.245 N 
ATOM     12  C   UNL     1       2.446   3.881   0.429  0.00  0.00    +0.054 C 
ATOM     13  H   UNL     1       0.139   4.840   0.993  0.00  0.00    +0.148 HD
ENDROOT
BRANCH  11  14
ATOM     14  C   UNL     1       2.234   1.168   0.138  0.00  0.00    +0.042 A 
ATOM     15  C   UNL     1       2.833   0.635  -0.996  0.00  0.00    +0.024 A 
ATOM     16  C   UNL     1       3.996  -0.101  -0.879  0.00  0.00    +0.002 A 
ATOM     17  C   UNL     1       4.563  -0.308   0.366  0.00  0.00    +0.000 A 
ATOM     18  C   UNL     1       3.969   0.222   1.496  0.00  0.00    +0.005 A 
ATOM     19  C   UNL     1       2.809   0.964   1.385  0.00  0.00    -0.029 A 
ATOM     20  C   UNL     1       2.166   1.547   2.617  0.00  0.00    +0.045 C 
ENDBRANCH  11  14
BRANCH   1  21
ATOM     21  C   UNL     1       1.117   3.673  -1.671  0.00  0.00    +0.142 C 
BRANCH  21  23
ATOM     22  N   UNL     1       1.045   5.677  -3.118  0.00  0.00    -0.285 N 
ATOM     23  C   UNL     1       1.134   5.166  -1.875  0.00  0.00    +0.221 C 
ATOM     24  O   UNL     1       1.229   5.907  -0.919  0.00  0.00    -0.275 OA
ATOM     25  H   UNL     1       1.048   5.086  -3.887  0.00  0.00    +0.155 HD
BRANCH  22  30
ATOM     26  C   UNL     1       0.646  11.288  -3.856  0.00  0.00    +0.044 C 
ATOM     27  C   UNL     1       0.752   9.798  -3.660  0.00  0.00    -0.050 A 
ATOM     28  C   UNL     1       0.349   9.228  -2.466  0.00  0.00    +0.005 A 
ATOM     29  C   UNL     1       0.444   7.863  -2.283  0.00  0.00    +0.024 A 
ATOM     30  C   UNL     1       0.946   7.061  -3.300  0.00  0.00    +0.036 A 
ATOM     31  C   UNL     1       1.356   7.637  -4.496  0.00  0.00    -0.029 A 
ATOM     32  C   UNL     1       1.252   9.002  -4.674  0.00  0.00    +0.008 A 
ATOM     33  C   UNL     1       1.907   6.771  -5.599  0.00  0.00    +0.045 C 
ENDBRANCH  22  30
ENDBRANCH  21  23
ENDBRANCH   1  21
TORSDOF 4
