REMARK  Name = ZINC08416329
REMARK  16 active torsions:
REMARK  status: ('A' for Active; 'I' for Inactive)
REMARK    1  A    between atoms: C_1  and  C_2
REMARK    2  A    between atoms: C_2  and  O_3
REMARK    3  A    between atoms: O_3  and  C_4
REMARK    4  A    between atoms: C_7  and  C_10
REMARK    5  A    between atoms: C_15  and  C_26
REMARK    6  A    between atoms: C_17  and  C_21
REMARK    7  A    between atoms: C_21  and  O_23
REMARK    8  A    between atoms: O_23  and  C_24
REMARK    9  A    between atoms: C_24  and  C_25
REMARK   10  A    between atoms: C_31  and  O_32
REMARK   11  A    between atoms: O_32  and  C_33
REMARK   12  A    between atoms: C_35  and  C_42
REMARK   13  A    between atoms: C_36  and  C_37
REMARK   14  A    between atoms: C_37  and  O_39
REMARK   15  A    between atoms: O_39  and  C_40
REMARK   16  A    between atoms: C_40  and  C_41
REMARK                            x       y       z     vdW  Elec       q    Type
REMARK                         _______ _______ _______ _____ _____    ______ ____
ROOT
ATOM      1  C   UNL     1       5.692   6.915   0.081  0.00  0.00    +0.092 C 
ATOM      2  C   UNL     1       4.438   6.085  -0.023  0.00  0.00    +0.025 C 
ATOM      3  C   UNL     1       3.803   5.653   1.087  0.00  0.00    +0.016 C 
ATOM      4  C   UNL     1       2.536   4.839   0.993  0.00  0.00    +0.060 C 
ATOM      5  C   UNL     1       2.556   4.005  -0.290  0.00  0.00    +0.049 C 
ATOM      6  C   UNL     1       2.705   4.950  -1.487  0.00  0.00    +0.176 C 
ATOM      7  C   UNL     1       3.948   5.779  -1.305  0.00  0.00    +0.176 C 
ATOM      8  O   UNL     1       4.538   6.192  -2.283  0.00  0.00    -0.291 OA
ATOM      9  N   UNL     1       4.299   5.946   2.329  0.00  0.00    -0.321 N 
ATOM     10  C   UNL     1       5.603   6.324   2.488  0.00  0.00    +0.016 C 
ATOM     11  C   UNL     1       6.309   6.790   1.444  0.00  0.00    +0.065 C 
ATOM     12  C   UNL     1       6.253   6.217   3.843  0.00  0.00    +0.061 C 
ATOM     13  H   UNL     1       3.646   5.878   3.212  0.00  0.00    +0.152 HD
ENDROOT
BRANCH   1  17
ATOM     14  C   UNL     1       4.728  11.014  -0.649  0.00  0.00    +0.121 A 
ATOM     15  C   UNL     1       5.638  10.358  -1.466  0.00  0.00    +0.046 A 
ATOM     16  C   UNL     1       5.948   9.033  -1.228  0.00  0.00    +0.008 A 
ATOM     17  C   UNL     1       5.353   8.361  -0.176  0.00  0.00    -0.035 A 
ATOM     18  C   UNL     1       4.442   9.011   0.636  0.00  0.00    +0.008 A 
ATOM     19  C   UNL     1       4.132  10.337   0.405  0.00  0.00    +0.046 A 
BRANCH  14  20
ATOM     20  O   UNL     1       4.422  12.318  -0.882  0.00  0.00    -0.492 OA
BRANCH  20  22
ATOM     21  C   UNL     1       3.261  14.386  -0.416  0.00  0.00    +0.048 C 
ATOM     22  C   UNL     1       3.477  12.929  -0.000  0.00  0.00    +0.225 C 
ENDBRANCH  20  22
ENDBRANCH  14  20
ENDBRANCH   1  17
BRANCH   5  23
ATOM     23  C   UNL     1       1.267   3.234  -0.412  0.00  0.00    -0.001 A 
ATOM     24  C   UNL     1       0.061   3.905  -0.464  0.00  0.00    +0.007 A 
ATOM     25  C   UNL     1      -1.121   3.198  -0.576  0.00  0.00    +0.001 A 
ATOM     26  C   UNL     1      -1.100   1.817  -0.641  0.00  0.00    +0.004 A 
ATOM     27  C   UNL     1       0.103   1.140  -0.584  0.00  0.00    +0.046 A 
ATOM     28  C   UNL     1       1.291   1.848  -0.472  0.00  0.00    +0.124 A 
BRANCH  28  29
ATOM     29  O   UNL     1       2.476   1.185  -0.422  0.00  0.00    -0.495 OA
ATOM     30  C   UNL     1       2.425  -0.242  -0.489  0.00  0.00    +0.277 C 
ENDBRANCH  28  29
ENDBRANCH   5  23
BRANCH   6  31
ATOM     31  C   UNL     1       2.819   4.144  -2.755  0.00  0.00    +0.318 C 
ATOM     32  O   UNL     1       2.784   2.937  -2.708  0.00  0.00    -0.250 OA
BRANCH  31  33
ATOM     33  O   UNL     1       2.959   4.767  -3.936  0.00  0.00    -0.464 OA
BRANCH  33  34
ATOM     34  C   UNL     1       3.062   3.927  -5.115  0.00  0.00    +0.229 C 
ATOM     35  C   UNL     1       3.214   4.808  -6.357  0.00  0.00    +0.048 C 
ENDBRANCH  33  34
ENDBRANCH  31  33
ENDBRANCH   6  31
BRANCH  11  36
ATOM     36  C   UNL     1       7.659   7.168   1.632  0.00  0.00    +0.338 C 
ATOM     37  O   UNL     1       8.139   7.172   2.750  0.00  0.00    -0.245 OA
BRANCH  36  38
ATOM     38  O   UNL     1       8.414   7.525   0.572  0.00  0.00    -0.462 OA
BRANCH  38  39
ATOM     39  C   UNL     1       9.768   7.896   0.835  0.00  0.00    +0.229 C 
ATOM     40  C   UNL     1      10.461   8.266  -0.478  0.00  0.00    +0.048 C 
ENDBRANCH  38  39
ENDBRANCH  36  38
ENDBRANCH  11  36
TORSDOF 11
