REMARK  Name = ZINC02708622
REMARK  5 active torsions:
REMARK  status: ('A' for Active; 'I' for Inactive)
REMARK    1  A    between atoms: C_11  and  N_21
REMARK    2  A    between atoms: C_13  and  S_15
REMARK    3  A    between atoms: S_15  and  C_16
REMARK    4  A    between atoms: N_21  and  S_22
REMARK    5  A    between atoms: S_22  and  C_25
REMARK                            x       y       z     vdW  Elec       q    Type
REMARK                         _______ _______ _______ _____ _____    ______ ____
ROOT
ATOM      1  C   UNL     1       2.076   1.846  -0.610  0.00  0.00    +0.001 A 
ATOM      2  C   UNL     1       2.189   3.179  -0.338  0.00  0.00    +0.008 A 
ATOM      3  C   UNL     1       1.039   3.894   0.034  0.00  0.00    -0.017 A 
ATOM      4  C   UNL     1       1.023   5.265   0.338  0.00  0.00    +0.008 A 
ATOM      5  C   UNL     1      -0.161   5.848   0.686  0.00  0.00    +0.001 A 
ATOM      6  C   UNL     1      -1.357   5.129   0.751  0.00  0.00    +0.005 A 
ATOM      7  C   UNL     1      -1.376   3.799   0.463  0.00  0.00    -0.024 A 
ATOM      8  C   UNL     1      -0.177   3.191   0.106  0.00  0.00    -0.009 A 
ATOM      9  C   UNL     1      -0.278   1.833  -0.179  0.00  0.00    -0.019 A 
ATOM     10  C   UNL     1       0.857   1.169  -0.532  0.00  0.00    +0.006 A 
ATOM     11  C   UNL     1      -1.724   1.441  -0.002  0.00  0.00    +0.125 C 
ATOM     12  C   UNL     1      -2.448   2.736   0.429  0.00  0.00    +0.108 C 
ENDROOT
BRANCH  11  13
ATOM     13  N   UNL     1      -1.851   0.429   1.049  0.00  0.00    -0.181 NA
ATOM     14  H   UNL     1      -1.260   0.518   1.972  0.00  0.00    +0.149 HD
BRANCH  13  15
ATOM     15  S   UNL     1      -2.687  -0.970   0.754  0.00  0.00    +0.059 S 
ATOM     16  O   UNL     1      -2.668  -1.717   1.963  0.00  0.00    -0.153 OA
ATOM     17  O   UNL     1      -3.896  -0.593   0.110  0.00  0.00    -0.153 OA
BRANCH  15  18
ATOM     18  C   UNL     1      -1.756  -1.894  -0.423  0.00  0.00    +0.105 A 
ATOM     19  C   UNL     1      -2.043  -1.783  -1.770  0.00  0.00    +0.030 A 
ATOM     20  C   UNL     1      -1.310  -2.504  -2.695  0.00  0.00    +0.022 A 
ATOM     21  C   UNL     1      -0.297  -3.345  -2.269  0.00  0.00    +0.041 A 
ATOM     22  C   UNL     1      -0.014  -3.460  -0.920  0.00  0.00    +0.022 A 
ATOM     23  C   UNL     1      -0.745  -2.735   0.003  0.00  0.00    +0.030 A 
ATOM     24 CL   UNL     1       0.620  -4.256  -3.429  0.00  0.00    -0.084 Cl
ENDBRANCH  15  18
ENDBRANCH  13  15
ENDBRANCH  11  13
BRANCH  12  25
ATOM     25  S   UNL     1      -3.719   3.166  -0.785  0.00  0.00    -0.076 S 
BRANCH  25  26
ATOM     26  C   UNL     1      -4.584   4.415   0.106  0.00  0.00    +0.185 A 
ATOM     27  N   UNL     1      -5.614   5.156  -0.358  0.00  0.00    -0.254 N 
ATOM     28  N   UNL     1      -5.991   6.010   0.691  0.00  0.00    -0.160 NA
ATOM     29  C   UNL     1      -5.191   5.760   1.693  0.00  0.00    +0.245 A 
ATOM     30  N   UNL     1      -4.343   4.793   1.344  0.00  0.00    -0.209 NA
ATOM     31  H   UNL     1      -6.147   5.197  -1.319  0.00  0.00    +0.191 HD
ENDBRANCH  25  26
ENDBRANCH  12  25
TORSDOF 5
