REMARK  Name = ZINC13097187
REMARK  6 active torsions:
REMARK  status: ('A' for Active; 'I' for Inactive)
REMARK    1  A    between atoms: C_1  and  O_2
REMARK    2  A    between atoms: O_2  and  C_3
REMARK    3  A    between atoms: C_5  and  C_11
REMARK    4  A    between atoms: C_8  and  O_9
REMARK    5  A    between atoms: C_12  and  C_13
REMARK    6  A    between atoms: C_16  and  C_18
REMARK                            x       y       z     vdW  Elec       q    Type
REMARK                         _______ _______ _______ _____ _____    ______ ____
ROOT
ATOM      1  C   UNL     1       3.012   3.469  -0.008  0.00  0.00    +0.033 C 
ATOM      2  C   UNL     1       1.704   3.180   0.158  0.00  0.00    +0.103 C 
ATOM      3 CL   UNL     1       0.561   4.458   0.433  0.00  0.00    -0.078 Cl
ENDROOT
BRANCH   1   6
ATOM      4  C   UNL     1       5.104   6.572   0.274  0.00  0.00    +0.163 A 
ATOM      5  C   UNL     1       4.699   5.255   0.379  0.00  0.00    +0.057 A 
ATOM      6  C   UNL     1       3.448   4.869  -0.116  0.00  0.00    -0.019 A 
ATOM      7  C   UNL     1       2.616   5.819  -0.718  0.00  0.00    +0.027 A 
ATOM      8  C   UNL     1       3.026   7.132  -0.813  0.00  0.00    +0.063 A 
ATOM      9  C   UNL     1       4.268   7.513  -0.322  0.00  0.00    +0.173 A 
ATOM     10 BR   UNL     1       1.897   8.416  -1.622  0.00  0.00    -0.046 Br
BRANCH   4  12
ATOM     11  C   UNL     1       7.125   5.932   1.353  0.00  0.00    +0.277 C 
ATOM     12  O   UNL     1       6.319   6.949   0.754  0.00  0.00    -0.491 OA
ENDBRANCH   4  12
BRANCH   9  13
ATOM     13  O   UNL     1       4.668   8.808  -0.423  0.00  0.00    -0.503 OA
ATOM     14  H   UNL     1       5.149   9.009  -1.238  0.00  0.00    +0.292 HD
ENDBRANCH   9  13
ENDBRANCH   1   6
BRANCH   2  15
ATOM     15  C   UNL     1       1.249   1.789   0.106  0.00  0.00    +0.239 A 
ATOM     16  N   UNL     1       2.017   0.737  -0.096  0.00  0.00    -0.216 NA
ATOM     17  C   UNL     1       1.257  -0.361  -0.078  0.00  0.00    +0.161 A 
ATOM     18  C   UNL     1      -0.030   0.027   0.142  0.00  0.00    +0.156 A 
ATOM     19  O   UNL     1      -0.023   1.374   0.256  0.00  0.00    -0.435 OA
BRANCH  18  20
ATOM     20  C   UNL     1      -1.209  -0.856   0.238  0.00  0.00    +0.019 A 
ATOM     21  C   UNL     1      -1.064  -2.238   0.093  0.00  0.00    +0.011 A 
ATOM     22  C   UNL     1      -2.170  -3.058   0.189  0.00  0.00    +0.001 A 
ATOM     23  C   UNL     1      -3.421  -2.513   0.418  0.00  0.00    +0.000 A 
ATOM     24  C   UNL     1      -3.572  -1.145   0.557  0.00  0.00    +0.001 A 
ATOM     25  C   UNL     1      -2.475  -0.314   0.469  0.00  0.00    +0.011 A 
ENDBRANCH  18  20
ENDBRANCH   2  15
TORSDOF 5
