REMARK  Name = ZINC05604914
REMARK  2 active torsions:
REMARK  status: ('A' for Active; 'I' for Inactive)
REMARK    1  A    between atoms: C_8  and  C_12
REMARK    2  A    between atoms: C_15  and  C_18
REMARK                            x       y       z     vdW  Elec       q    Type
REMARK                         _______ _______ _______ _____ _____    ______ ____
ROOT
ATOM      1  C   UNL     1       2.601  -4.236  -0.047  0.00  0.00    +0.075 C 
ATOM      2  N   UNL     1       3.702  -4.906  -0.062  0.00  0.00    -0.190 NA
ATOM      3  N   UNL     1       3.527  -6.288  -0.067  0.00  0.00    -0.261 N 
ATOM      4  C   UNL     1       2.086  -6.585  -0.055  0.00  0.00    +0.128 C 
ATOM      5  C   UNL     1       1.429  -5.191  -0.035  0.00  0.00    +0.086 C 
ATOM      6  H   UNL     1       4.239  -6.947  -0.078  0.00  0.00    +0.169 HD
ENDROOT
BRANCH   1  14
ATOM      7  C   UNL     1      -0.016   1.362   0.009  0.00  0.00    +0.001 A 
ATOM      8  C   UNL     1       1.170   2.081   0.002  0.00  0.00    +0.004 A 
ATOM      9  C   UNL     1       2.386   1.431  -0.013  0.00  0.00    +0.047 A 
ATOM     10  C   UNL     1       2.431   0.042  -0.021  0.00  0.00    +0.139 A 
ATOM     11  C   UNL     1       1.227  -0.684  -0.013  0.00  0.00    +0.018 A 
ATOM     12  C   UNL     1       0.002  -0.004   0.002  0.00  0.00    +0.011 A 
ATOM     13  C   UNL     1       1.264  -2.147  -0.022  0.00  0.00    +0.028 A 
ATOM     14  C   UNL     1       2.500  -2.767  -0.038  0.00  0.00    +0.083 A 
ATOM     15  C   UNL     1       3.709  -1.935  -0.045  0.00  0.00    +0.346 A 
ATOM     16  O   UNL     1       4.804  -2.465  -0.060  0.00  0.00    -0.244 OA
ATOM     17  O   UNL     1       3.621  -0.596  -0.036  0.00  0.00    -0.422 OA
ENDBRANCH   1  14
BRANCH   4  18
ATOM     18  C   UNL     1       1.715  -7.359   1.184  0.00  0.00    +0.011 A 
ATOM     19  C   UNL     1       2.235  -6.990   2.412  0.00  0.00    +0.047 A 
ATOM     20  C   UNL     1       1.890  -7.698   3.550  0.00  0.00    +0.020 A 
ATOM     21  C   UNL     1       1.035  -8.779   3.458  0.00  0.00    +0.003 A 
ATOM     22  C   UNL     1       0.519  -9.152   2.231  0.00  0.00    +0.020 A 
ATOM     23  C   UNL     1       0.859  -8.442   1.093  0.00  0.00    +0.047 A 
ATOM     24 CL   UNL     1       0.212  -8.910  -0.448  0.00  0.00    -0.083 Cl
ATOM     25 CL   UNL     1       3.314  -5.635   2.526  0.00  0.00    -0.083 Cl
ENDBRANCH   4  18
TORSDOF 2
