REMARK  Name = ZINC39492039
REMARK  12 active torsions:
REMARK  status: ('A' for Active; 'I' for Inactive)
REMARK    1  A    between atoms: C_1  and  C_2
REMARK    2  A    between atoms: C_2  and  C_3
REMARK    3  A    between atoms: C_2  and  C_4
REMARK    4  A    between atoms: C_4  and  C_5
REMARK    5  A    between atoms: C_5  and  C_7
REMARK    6  A    between atoms: C_7  and  C_9
REMARK    7  A    between atoms: C_7  and  C_16
REMARK    8  A    between atoms: C_14  and  O_15
REMARK    9  A    between atoms: C_16  and  C_18
REMARK   10  A    between atoms: C_16  and  N_24
REMARK   11  A    between atoms: C_25  and  C_27
REMARK   12  A    between atoms: C_27  and  C_28
REMARK                            x       y       z     vdW  Elec       q    Type
REMARK                         _______ _______ _______ _____ _____    ______ ____
ROOT
ATOM      1  C   UNL     1      -0.779  -0.739   4.643  0.00  0.00    +0.118 C 
ENDROOT
BRANCH   1   2
ATOM      2  C   UNL     1      -1.648   0.489   4.546  0.00  0.00    -0.026 A 
ATOM      3  C   UNL     1      -1.317   1.628   5.256  0.00  0.00    +0.005 A 
ATOM      4  C   UNL     1      -2.115   2.753   5.167  0.00  0.00    +0.000 A 
ATOM      5  C   UNL     1      -3.243   2.740   4.369  0.00  0.00    +0.000 A 
ATOM      6  C   UNL     1      -3.574   1.601   3.659  0.00  0.00    +0.000 A 
ATOM      7  C   UNL     1      -2.774   0.477   3.744  0.00  0.00    +0.005 A 
ENDBRANCH   1   2
BRANCH   1   8
ATOM      8  N   UNL     1      -0.452  -0.996   6.048  0.00  0.00    -0.307 N 
ATOM      9  C   UNL     1      -1.305  -1.697   6.821  0.00  0.00    +0.218 C 
ATOM     10  O   UNL     1      -2.343  -2.115   6.353  0.00  0.00    -0.275 OA
ATOM     11  H   UNL     1       0.378  -0.662   6.422  0.00  0.00    +0.149 HD
BRANCH   9  12
ATOM     12  C   UNL     1      -0.969  -1.962   8.265  0.00  0.00    +0.130 C 
BRANCH  12  13
ATOM     13  C   UNL     1      -2.078  -2.760   8.902  0.00  0.00    -0.039 A 
ATOM     14  C   UNL     1      -3.139  -2.110   9.502  0.00  0.00    +0.004 A 
ATOM     15  C   UNL     1      -4.157  -2.842  10.086  0.00  0.00    +0.000 A 
ATOM     16  C   UNL     1      -4.113  -4.224  10.068  0.00  0.00    +0.000 A 
ATOM     17  C   UNL     1      -3.051  -4.873   9.466  0.00  0.00    +0.000 A 
ATOM     18  C   UNL     1      -2.036  -4.142   8.879  0.00  0.00    +0.004 A 
ENDBRANCH  12  13
ENDBRANCH   9  12
ENDBRANCH   1   8
BRANCH   1  19
ATOM     19  C   UNL     1       0.511  -0.513   3.852  0.00  0.00    +0.113 C 
BRANCH  19  20
ATOM     20  C   UNL     1       0.180  -0.326   2.394  0.00  0.00    +0.006 A 
ATOM     21  C   UNL     1      -0.427  -1.345   1.686  0.00  0.00    +0.008 A 
ATOM     22  C   UNL     1      -0.731  -1.173   0.348  0.00  0.00    +0.001 A 
ATOM     23  C   UNL     1      -0.428   0.018  -0.285  0.00  0.00    +0.004 A 
ATOM     24  C   UNL     1       0.179   1.040   0.419  0.00  0.00    +0.046 A 
ATOM     25  C   UNL     1       0.479   0.873   1.763  0.00  0.00    +0.121 A 
BRANCH  25  26
ATOM     26  O   UNL     1       1.071   1.879   2.459  0.00  0.00    -0.506 OA
ATOM     27  H   UNL     1       2.038   1.855   2.439  0.00  0.00    +0.292 HD
ENDBRANCH  25  26
ENDBRANCH  19  20
BRANCH  19  28
ATOM     28  C   UNL     1       1.414  -1.709   4.012  0.00  0.00    +0.143 C 
ATOM     29  O   UNL     1       0.939  -2.805   4.187  0.00  0.00    -0.297 OA
BRANCH  28  30
ATOM     30  C   UNL     1       2.910  -1.537   3.954  0.00  0.00    +0.078 C 
BRANCH  30  32
ATOM     31  C   UNL     1       3.239  -3.808   2.966  0.00  0.00    +0.007 C 
ATOM     32  C   UNL     1       3.587  -2.896   4.144  0.00  0.00    -0.010 C 
ATOM     33  C   UNL     1       5.104  -2.705   4.210  0.00  0.00    +0.007 C 
ENDBRANCH  30  32
ENDBRANCH  28  30
ENDBRANCH  19  28
ENDBRANCH   1  19
TORSDOF 10
