REMARK  Name = ZINC13023369
REMARK  4 active torsions:
REMARK  status: ('A' for Active; 'I' for Inactive)
REMARK    1  A    between atoms: C_6  and  N_7
REMARK    2  A    between atoms: C_11  and  C_13
REMARK    3  A    between atoms: C_13  and  S_14
REMARK    4  A    between atoms: S_14  and  C_15
REMARK                            x       y       z     vdW  Elec       q    Type
REMARK                         _______ _______ _______ _____ _____    ______ ____
ROOT
ATOM      1  N   UNL     1      -1.137  -2.041   0.002  0.00  0.00    -0.269 N 
ATOM      2  C   UNL     1      -1.156  -0.694   0.011  0.00  0.00    +0.310 C 
ATOM      3  O   UNL     1      -2.216  -0.100   0.033  0.00  0.00    -0.252 OA
ATOM      4  N   UNL     1       0.002  -0.004  -0.004  0.00  0.00    -0.239 N 
ATOM      5  C   UNL     1      -0.016   1.343   0.005  0.00  0.00    +0.231 C 
ATOM      6  O   UNL     1      -1.074   1.935   0.022  0.00  0.00    -0.274 OA
ATOM      7  H   UNL     1      -0.295  -2.514  -0.083  0.00  0.00    +0.156 HD
ATOM      8  H   UNL     1       0.849  -0.478  -0.021  0.00  0.00    +0.159 HD
ENDROOT
BRANCH   1  14
ATOM      9  C   UNL     1      -2.360  -3.966   0.800  0.00  0.00    +0.024 A 
ATOM     10  C   UNL     1      -3.543  -4.668   0.915  0.00  0.00    +0.017 A 
ATOM     11  C   UNL     1      -4.700  -4.176   0.338  0.00  0.00    +0.018 A 
ATOM     12  C   UNL     1      -4.677  -2.975  -0.350  0.00  0.00    +0.017 A 
ATOM     13  C   UNL     1      -3.497  -2.266  -0.462  0.00  0.00    +0.024 A 
ATOM     14  C   UNL     1      -2.334  -2.758   0.115  0.00  0.00    +0.035 A 
ATOM     15 BR   UNL     1      -6.317  -5.144   0.491  0.00  0.00    -0.050 Br
ENDBRANCH   1  14
BRANCH   5  16
ATOM     16  C   UNL     1       1.279   2.115  -0.011  0.00  0.00    +0.172 C 
BRANCH  16  17
ATOM     17  S   UNL     1       0.924   3.889   0.006  0.00  0.00    -0.090 S 
BRANCH  17  18
ATOM     18  C   UNL     1       2.566   4.529  -0.017  0.00  0.00    +0.126 C 
ATOM     19  N   UNL     1       3.669   3.849  -0.041  0.00  0.00    -0.270 NA
ATOM     20  C   UNL     1       4.964   4.489  -0.059  0.00  0.00    +0.154 C 
ATOM     21  C   UNL     1       4.870   6.030  -0.047  0.00  0.00    +0.099 C 
ATOM     22  S   UNL     1       3.048   6.245  -0.022  0.00  0.00    -0.098 S 
ENDBRANCH  17  18
ENDBRANCH  16  17
ENDBRANCH   5  16
TORSDOF 4
