REMARK  Name = ZINC14013911
REMARK  4 active torsions:
REMARK  status: ('A' for Active; 'I' for Inactive)
REMARK    1  A    between atoms: C_9  and  S_11
REMARK    2  A    between atoms: S_11  and  C_12
REMARK    3  A    between atoms: C_12  and  C_13
REMARK    4  A    between atoms: N_18  and  C_19
REMARK                            x       y       z     vdW  Elec       q    Type
REMARK                         _______ _______ _______ _____ _____    ______ ____
ROOT
ATOM      1  C   UNL     1       6.118   6.964  -0.020  0.00  0.00    +0.231 C 
ATOM      2  O   UNL     1       6.026   8.173  -0.012  0.00  0.00    -0.274 OA
ATOM      3  N   UNL     1       7.333   6.381  -0.034  0.00  0.00    -0.239 N 
ATOM      4  C   UNL     1       8.446   7.141  -0.041  0.00  0.00    +0.306 C 
ATOM      5  O   UNL     1       8.354   8.353  -0.034  0.00  0.00    -0.252 OA
ATOM      6  N   UNL     1       9.661   6.558  -0.056  0.00  0.00    -0.294 N 
ATOM      7  H   UNL     1       7.406   5.414  -0.040  0.00  0.00    +0.159 HD
ATOM      8  H   UNL     1       9.734   5.590  -0.062  0.00  0.00    +0.151 HD
ENDROOT
BRANCH   6   9
ATOM      9  C   UNL     1      10.870   7.384  -0.063  0.00  0.00    +0.037 C 
ATOM     10  C   UNL     1      10.872   8.274  -1.308  0.00  0.00    +0.029 C 
ATOM     11  C   UNL     1      12.136   9.137  -1.315  0.00  0.00    -0.008 C 
ATOM     12  C   UNL     1      13.370   8.234  -1.332  0.00  0.00    +0.007 C 
ATOM     13  C   UNL     1      13.368   7.344  -0.087  0.00  0.00    -0.008 C 
ATOM     14  C   UNL     1      12.105   6.481  -0.080  0.00  0.00    +0.029 C 
ATOM     15  C   UNL     1      13.394   8.220   1.167  0.00  0.00    +0.007 C 
ATOM     16  C   UNL     1      12.160   9.124   1.183  0.00  0.00    -0.008 C 
ATOM     17  C   UNL     1      12.162  10.014  -0.061  0.00  0.00    +0.007 C 
ATOM     18  C   UNL     1      10.896   8.261   1.191  0.00  0.00    +0.029 C 
ENDBRANCH   6   9
BRANCH   1  19
ATOM     19  C   UNL     1       4.874   6.114  -0.012  0.00  0.00    +0.172 C 
BRANCH  19  20
ATOM     20  S   UNL     1       3.413   7.183   0.007  0.00  0.00    -0.089 S 
BRANCH  20  29
ATOM     21  C   UNL     1      -1.241   2.394   0.021  0.00  0.00    +0.021 A 
ATOM     22  C   UNL     1      -1.261   3.777   0.034  0.00  0.00    +0.018 A 
ATOM     23  C   UNL     1      -0.078   4.472   0.026  0.00  0.00    +0.040 A 
ATOM     24  C   UNL     1       1.183   3.832   0.011  0.00  0.00    +0.081 A 
ATOM     25  C   UNL     1       1.166   2.419   0.004  0.00  0.00    +0.049 A 
ATOM     26  C   UNL     1      -0.021   1.732   0.012  0.00  0.00    +0.043 A 
ATOM     27 CL   UNL     1       0.002  -0.004   0.002  0.00  0.00    -0.083 Cl
ATOM     28  N   UNL     1       2.256   4.653   0.005  0.00  0.00    -0.233 NA
ATOM     29  C   UNL     1       2.142   5.963   0.013  0.00  0.00    +0.136 A 
ATOM     30  S   UNL     1       0.369   6.191   0.031  0.00  0.00    -0.061 S 
ENDBRANCH  20  29
ENDBRANCH  19  20
ENDBRANCH   1  19
TORSDOF 4
