REMARK  Name = ZINC54841913
REMARK  8 active torsions:
REMARK  status: ('A' for Active; 'I' for Inactive)
REMARK    1  A    between atoms: C_1  and  C_2
REMARK    2  A    between atoms: C_2  and  O_3
REMARK    3  A    between atoms: O_3  and  C_4
REMARK    4  A    between atoms: C_6  and  C_12
REMARK    5  A    between atoms: C_9  and  O_10
REMARK    6  A    between atoms: C_13  and  C_14
REMARK    7  A    between atoms: C_13  and  C_16
REMARK    8  A    between atoms: N_18  and  C_19
REMARK                            x       y       z     vdW  Elec       q    Type
REMARK                         _______ _______ _______ _____ _____    ______ ____
ROOT
ATOM      1  C   UNL     1       0.626  -4.991  -0.267  0.00  0.00    +0.032 C 
ATOM      2  C   UNL     1       0.443  -6.312   0.079  0.00  0.00    +0.114 C 
ENDROOT
BRANCH   1   5
ATOM      3  C   UNL     1      -1.825  -2.240  -0.949  0.00  0.00    +0.163 A 
ATOM      4  C   UNL     1      -0.787  -2.951  -0.383  0.00  0.00    +0.057 A 
ATOM      5  C   UNL     1      -0.475  -4.231  -0.862  0.00  0.00    -0.019 A 
ATOM      6  C   UNL     1      -1.221  -4.781  -1.915  0.00  0.00    +0.027 A 
ATOM      7  C   UNL     1      -2.255  -4.063  -2.473  0.00  0.00    +0.063 A 
ATOM      8  C   UNL     1      -2.566  -2.796  -1.992  0.00  0.00    +0.173 A 
ATOM      9 BR   UNL     1      -3.260  -4.806  -3.892  0.00  0.00    -0.046 Br
BRANCH   8  10
ATOM     10  O   UNL     1      -3.591  -2.096  -2.542  0.00  0.00    -0.503 OA
ATOM     11  H   UNL     1      -3.330  -1.538  -3.287  0.00  0.00    +0.292 HD
ENDBRANCH   8  10
BRANCH   3  12
ATOM     12  O   UNL     1      -2.130  -0.998  -0.486  0.00  0.00    -0.489 OA
BRANCH  12  14
ATOM     13  C   UNL     1      -1.819   0.908   0.967  0.00  0.00    +0.048 C 
ATOM     14  C   UNL     1      -1.330  -0.490   0.584  0.00  0.00    +0.226 C 
ENDBRANCH  12  14
ENDBRANCH   3  12
ENDBRANCH   1   5
BRANCH   2  15
ATOM     15  C   UNL     1      -0.909  -6.891   0.084  0.00  0.00    +0.255 C 
ATOM     16  O   UNL     1      -1.878  -6.176  -0.091  0.00  0.00    -0.269 OA
ATOM     17  N   UNL     1      -1.075  -8.214   0.281  0.00  0.00    -0.308 N 
ATOM     18  H   UNL     1      -0.303  -8.785   0.420  0.00  0.00    +0.149 HD
BRANCH  17  19
ATOM     19  C   UNL     1      -2.422  -8.791   0.285  0.00  0.00    +0.073 C 
ATOM     20  C   UNL     1      -3.021  -8.725   1.705  0.00  0.00    +0.022 C 
ATOM     21  C   UNL     1      -3.821 -10.044   1.842  0.00  0.00    +0.002 C 
ATOM     22  C   UNL     1      -2.922 -11.067   1.105  0.00  0.00    +0.002 C 
ATOM     23  C   UNL     1      -2.359 -10.280  -0.097  0.00  0.00    +0.022 C 
ENDBRANCH  17  19
ENDBRANCH   2  15
BRANCH   2  24
ATOM     24  C   UNL     1       1.570  -7.122   0.434  0.00  0.00    +0.104 C 
ATOM     25  N   UNL     1       2.464  -7.764   0.716  0.00  0.00    -0.191 NA
ENDBRANCH   2  24
TORSDOF 7
