REMARK  Name = ZINC01866901
REMARK  7 active torsions:
REMARK  status: ('A' for Active; 'I' for Inactive)
REMARK    1  A    between atoms: C_1  and  O_2
REMARK    2  A    between atoms: O_2  and  C_3
REMARK    3  A    between atoms: C_8  and  C_9
REMARK    4  A    between atoms: C_10  and  C_11
REMARK    5  A    between atoms: N_13  and  C_14
REMARK    6  A    between atoms: C_14  and  C_15
REMARK    7  A    between atoms: N_17  and  N_18
REMARK                            x       y       z     vdW  Elec       q    Type
REMARK                         _______ _______ _______ _____ _____    ______ ____
ROOT
ATOM      1  C   UNL     1       1.983  -8.570  -0.064  0.00  0.00    +0.249 C 
ATOM      2  O   UNL     1       0.823  -8.922  -0.055  0.00  0.00    -0.272 OA
ATOM      3  N   UNL     1       2.967  -9.491  -0.079  0.00  0.00    -0.205 N 
ATOM      4  H   UNL     1       3.895  -9.210  -0.087  0.00  0.00    +0.177 HD
ENDROOT
BRANCH   3   5
ATOM      5  N   UNL     1       2.648 -10.856  -0.083  0.00  0.00    -0.174 NA
ATOM      6  C   UNL     1       3.605 -11.752  -0.098  0.00  0.00    +0.153 C 
ATOM      7  C   UNL     1       3.460 -13.226  -0.110  0.00  0.00    +0.029 A 
ATOM      8  C   UNL     1       2.359 -14.074  -0.111  0.00  0.00    +0.027 A 
ATOM      9  C   UNL     1       2.548 -15.443  -0.124  0.00  0.00    +0.019 A 
ATOM     10  C   UNL     1       3.831 -15.966  -0.137  0.00  0.00    +0.017 A 
ATOM     11  C   UNL     1       4.930 -15.131  -0.136  0.00  0.00    +0.025 A 
ATOM     12  C   UNL     1       4.759 -13.751  -0.123  0.00  0.00    +0.043 A 
ATOM     13  N   UNL     1       5.677 -12.707  -0.120  0.00  0.00    -0.280 N 
ATOM     14  C   UNL     1       5.062 -11.511  -0.111  0.00  0.00    +0.269 C 
ATOM     15  O   UNL     1       5.609 -10.425  -0.111  0.00  0.00    -0.268 OA
ATOM     16 BR   UNL     1       1.054 -16.603  -0.125  0.00  0.00    -0.050 Br
ATOM     17  H   UNL     1       6.640 -12.825  -0.127  0.00  0.00    +0.155 HD
ENDBRANCH   3   5
BRANCH   1  18
ATOM     18  C   UNL     1       2.325  -7.103  -0.060  0.00  0.00    +0.202 C 
BRANCH  18  21
ATOM     19  C   UNL     1       1.152  -4.967  -0.037  0.00  0.00    +0.237 C 
ATOM     20  O   UNL     1       2.233  -4.407  -0.044  0.00  0.00    -0.271 OA
ATOM     21  N   UNL     1       1.091  -6.313  -0.043  0.00  0.00    -0.303 N 
ATOM     22  H   UNL     1       0.230  -6.760  -0.037  0.00  0.00    +0.149 HD
BRANCH  19  24
ATOM     23  C   UNL     1      -0.019  -2.831  -0.013  0.00  0.00    +0.016 C 
ATOM     24  C   UNL     1      -0.080  -4.179  -0.020  0.00  0.00    +0.068 C 
BRANCH  23  30
ATOM     25  C   UNL     1      -1.198  -0.636   0.010  0.00  0.00    +0.127 A 
ATOM     26  C   UNL     1      -2.373   0.099   0.019  0.00  0.00    +0.046 A 
ATOM     27  C   UNL     1      -3.595  -0.546   0.028  0.00  0.00    +0.004 A 
ATOM     28  C   UNL     1      -3.658  -1.930   0.027  0.00  0.00    +0.001 A 
ATOM     29  C   UNL     1      -2.501  -2.679   0.018  0.00  0.00    +0.011 A 
ATOM     30  C   UNL     1      -1.257  -2.039   0.003  0.00  0.00    +0.017 A 
BRANCH  25  32
ATOM     31  C   UNL     1      -0.017   1.425   0.010  0.00  0.00    +0.277 C 
ATOM     32  O   UNL     1       0.002  -0.004   0.002  0.00  0.00    -0.495 OA
ENDBRANCH  25  32
ENDBRANCH  23  30
ENDBRANCH  19  24
ENDBRANCH  18  21
ENDBRANCH   1  18
TORSDOF 6
