REMARK  Name = ZINC36531331
REMARK  13 active torsions:
REMARK  status: ('A' for Active; 'I' for Inactive)
REMARK    1  A    between atoms: C_1  and  C_2
REMARK    2  A    between atoms: C_5  and  S_8
REMARK    3  A    between atoms: S_8  and  C_11
REMARK    4  A    between atoms: C_11  and  N_12
REMARK    5  A    between atoms: C_13  and  C_15
REMARK    6  A    between atoms: C_15  and  C_17
REMARK    7  A    between atoms: C_15  and  N_26
REMARK    8  A    between atoms: C_17  and  C_19
REMARK    9  A    between atoms: C_17  and  C_20
REMARK   10  A    between atoms: N_26  and  C_27
REMARK   11  A    between atoms: C_28  and  C_30
REMARK   12  A    between atoms: C_34  and  O_37
REMARK   13  A    between atoms: C_35  and  O_36
REMARK                            x       y       z     vdW  Elec       q    Type
REMARK                         _______ _______ _______ _____ _____    ______ ____
ROOT
ATOM      1  C   UNL     1       3.522  -4.523   3.764  0.00  0.00    +0.169 C 
ENDROOT
BRANCH   1   3
ATOM      2  N   UNL     1       2.516  -3.996   1.566  0.00  0.00    -0.295 N 
ATOM      3  C   UNL     1       3.165  -4.884   2.345  0.00  0.00    +0.235 C 
ATOM      4  O   UNL     1       3.462  -5.975   1.904  0.00  0.00    -0.274 OA
ATOM      5  H   UNL     1       2.212  -3.154   1.940  0.00  0.00    +0.150 HD
BRANCH   2   6
ATOM      6  C   UNL     1       2.269  -4.303   0.155  0.00  0.00    +0.278 C 
BRANCH   6   7
ATOM      7  S   UNL     1       0.613  -5.019  -0.028  0.00  0.00    +0.013 S 
ATOM      8  O   UNL     1       0.409  -6.034   0.945  0.00  0.00    -0.168 OA
ATOM      9  O   UNL     1       0.334  -5.263  -1.400  0.00  0.00    -0.168 OA
BRANCH   7  14
ATOM     10  C   UNL     1      -3.175  -0.594   1.548  0.00  0.00    +0.044 C 
ATOM     11  C   UNL     1      -2.229  -1.699   1.154  0.00  0.00    -0.050 A 
ATOM     12  C   UNL     1      -1.830  -1.832  -0.163  0.00  0.00    +0.005 A 
ATOM     13  C   UNL     1      -0.962  -2.845  -0.524  0.00  0.00    +0.027 A 
ATOM     14  C   UNL     1      -0.492  -3.726   0.432  0.00  0.00    +0.090 A 
ATOM     15  C   UNL     1      -0.890  -3.593   1.750  0.00  0.00    +0.027 A 
ATOM     16  C   UNL     1      -1.755  -2.577   2.111  0.00  0.00    +0.005 A 
ENDBRANCH   7  14
ENDBRANCH   6   7
ENDBRANCH   2   6
ENDBRANCH   1   3
BRANCH   1  17
ATOM     17  N   UNL     1       3.757  -5.746   4.535  0.00  0.00    -0.288 N 
ATOM     18  C   UNL     1       4.814  -6.676   4.130  0.00  0.00    +0.133 C 
ATOM     19  C   UNL     1       3.000  -6.016   5.617  0.00  0.00    +0.251 C 
ATOM     20  O   UNL     1       2.059  -5.298   5.896  0.00  0.00    -0.270 OA
BRANCH  19  21
ATOM     21  C   UNL     1       3.314  -7.183   6.464  0.00  0.00    +0.082 A 
ATOM     22  C   UNL     1       4.640  -7.471   6.800  0.00  0.00    +0.017 A 
ATOM     23  C   UNL     1       4.929  -8.561   7.591  0.00  0.00    +0.005 A 
ATOM     24  C   UNL     1       3.911  -9.377   8.058  0.00  0.00    +0.049 A 
ATOM     25  C   UNL     1       2.593  -9.105   7.733  0.00  0.00    +0.159 A 
ATOM     26  C   UNL     1       2.285  -8.004   6.940  0.00  0.00    +0.171 A 
BRANCH  26  27
ATOM     27  O   UNL     1       0.993  -7.731   6.624  0.00  0.00    -0.503 OA
ATOM     28  H   UNL     1       0.688  -8.156   5.811  0.00  0.00    +0.292 HD
ENDBRANCH  26  27
BRANCH  25  29
ATOM     29  O   UNL     1       1.599  -9.911   8.195  0.00  0.00    -0.503 OA
ATOM     30  H   UNL     1       1.238  -9.639   9.050  0.00  0.00    +0.292 HD
ENDBRANCH  25  29
ENDBRANCH  19  21
ENDBRANCH   1  17
BRANCH   1  31
ATOM     31  C   UNL     1       4.789  -3.666   3.768  0.00  0.00    +0.045 C 
ATOM     32  C   UNL     1       4.515  -2.346   3.045  0.00  0.00    +0.015 C 
BRANCH  31  33
ATOM     33  C   UNL     1       5.200  -3.383   5.191  0.00  0.00    -0.042 A 
ATOM     34  C   UNL     1       4.337  -2.716   6.040  0.00  0.00    +0.004 A 
ATOM     35  C   UNL     1       4.713  -2.457   7.344  0.00  0.00    +0.000 A 
ATOM     36  C   UNL     1       5.952  -2.866   7.800  0.00  0.00    +0.000 A 
ATOM     37  C   UNL     1       6.815  -3.534   6.952  0.00  0.00    +0.000 A 
ATOM     38  C   UNL     1       6.437  -3.797   5.648  0.00  0.00    +0.004 A 
ENDBRANCH  31  33
ENDBRANCH   1  31
TORSDOF 10
