REMARK  Name = ZINC29672049
REMARK  8 active torsions:
REMARK  status: ('A' for Active; 'I' for Inactive)
REMARK    1  A    between atoms: C_1  and  C_2
REMARK    2  A    between atoms: C_2  and  N_3
REMARK    3  A    between atoms: C_4  and  C_6
REMARK    4  A    between atoms: C_6  and  N_7
REMARK    5  A    between atoms: N_10  and  C_13
REMARK    6  A    between atoms: C_13  and  C_15
REMARK    7  A    between atoms: C_13  and  C_16
REMARK    8  A    between atoms: N_18  and  C_19
REMARK                            x       y       z     vdW  Elec       q    Type
REMARK                         _______ _______ _______ _____ _____    ______ ____
ROOT
ATOM      1  N   UNL     1       5.938   3.072  -0.367  0.00  0.00    +0.387 N 
ATOM      2  C   UNL     1       5.803   2.220   0.823  0.00  0.00    -0.063 C 
ATOM      3  C   UNL     1       4.721   1.167   0.573  0.00  0.00    +0.066 C 
ATOM      4  N   UNL     1       3.450   1.837   0.262  0.00  0.00    -0.295 NA
ATOM      5  C   UNL     1       3.585   2.690  -0.927  0.00  0.00    +0.066 C 
ATOM      6  C   UNL     1       4.667   3.743  -0.677  0.00  0.00    -0.063 C 
ATOM      7  H   UNL     1       6.199   2.427  -1.219  0.00  0.00    -0.081 HD
ENDROOT
BRANCH   4   8
ATOM      8  C   UNL     1       2.367   0.860   0.089  0.00  0.00    +0.140 C 
ATOM      9  C   UNL     1       2.835  -0.259  -0.843  0.00  0.00    +0.034 C 
BRANCH   8  10
ATOM     10  C   UNL     1       1.999   0.277   1.429  0.00  0.00    +0.234 C 
ATOM     11  O   UNL     1       2.731   0.438   2.383  0.00  0.00    -0.274 OA
ATOM     12  N   UNL     1       0.856  -0.424   1.567  0.00  0.00    -0.282 N 
ATOM     13  H   UNL     1       0.161  -0.516   0.720  0.00  0.00    +0.155 HD
BRANCH  12  14
ATOM     14  C   UNL     1       0.554  -1.037   2.790  0.00  0.00    +0.069 A 
ATOM     15  C   UNL     1       1.044  -0.504   3.975  0.00  0.00    +0.027 A 
ATOM     16  C   UNL     1       0.745  -1.110   5.180  0.00  0.00    +0.022 A 
ATOM     17  C   UNL     1      -0.044  -2.247   5.208  0.00  0.00    +0.044 A 
ATOM     18  C   UNL     1      -0.535  -2.781   4.030  0.00  0.00    +0.060 A 
ATOM     19  C   UNL     1      -0.243  -2.176   2.821  0.00  0.00    +0.146 A 
ATOM     20  F   UNL     1      -0.727  -2.694   1.671  0.00  0.00    -0.203 F 
ATOM     21 CL   UNL     1      -0.418  -3.004   6.725  0.00  0.00    -0.083 Cl
ENDBRANCH  12  14
ENDBRANCH   8  10
ENDBRANCH   4   8
BRANCH   1  22
ATOM     22  C   UNL     1       7.021   4.050  -0.194  0.00  0.00    +0.019 C 
BRANCH  22  24
ATOM     23  N   UNL     1       8.253   5.678  -1.590  0.00  0.00    -0.317 N 
ATOM     24  C   UNL     1       7.293   4.735  -1.508  0.00  0.00    +0.196 C 
ATOM     25  O   UNL     1       6.648   4.439  -2.491  0.00  0.00    -0.278 OA
ATOM     26  H   UNL     1       8.837   5.946  -0.698  0.00  0.00    +0.149 HD
BRANCH  23  28
ATOM     27  C   UNL     1       9.645   7.362  -2.688  0.00  0.00    +0.024 C 
ATOM     28  C   UNL     1       8.517   6.344  -2.868  0.00  0.00    +0.101 C 
ENDBRANCH  23  28
ENDBRANCH  22  24
ENDBRANCH   1  22
TORSDOF 6
