REMARK  Name = ZINC04571375
REMARK  7 active torsions:
REMARK  status: ('A' for Active; 'I' for Inactive)
REMARK    1  A    between atoms: C_1  and  C_2
REMARK    2  A    between atoms: C_2  and  O_3
REMARK    3  A    between atoms: O_3  and  C_4
REMARK    4  A    between atoms: C_8  and  C_11
REMARK    5  A    between atoms: C_9  and  O_10
REMARK    6  A    between atoms: C_20  and  C_24
REMARK    7  A    between atoms: C_25  and  O_27
REMARK                            x       y       z     vdW  Elec       q    Type
REMARK                         _______ _______ _______ _____ _____    ______ ____
ROOT
ATOM      1  C   UNL     1       2.224  -4.267  -3.827  0.00  0.00    +0.227 C 
ATOM      2  N   UNL     1       1.726  -5.633  -4.074  0.00  0.00    -0.313 N 
ATOM      3  C   UNL     1       0.551  -5.734  -4.784  0.00  0.00    +0.080 A 
ATOM      4  C   UNL     1       0.128  -4.730  -5.663  0.00  0.00    +0.068 A 
ATOM      5  C   UNL     1      -1.138  -4.972  -6.331  0.00  0.00    -0.023 A 
ATOM      6  C   UNL     1      -1.727  -6.146  -6.009  0.00  0.00    -0.004 A 
ATOM      7  S   UNL     1      -0.623  -6.904  -4.849  0.00  0.00    -0.078 S 
ATOM      8  C   UNL     1      -3.029  -6.672  -6.529  0.00  0.00    +0.046 C 
ATOM      9  C   UNL     1      -3.784  -5.516  -7.201  0.00  0.00    -0.009 C 
ATOM     10  C   UNL     1      -2.825  -4.777  -8.139  0.00  0.00    +0.008 C 
ATOM     11  C   UNL     1      -1.783  -4.012  -7.320  0.00  0.00    +0.037 C 
ATOM     12  C   UNL     1      -4.963  -6.072  -8.002  0.00  0.00    +0.008 C 
ATOM     13  C   UNL     1       1.009  -3.545  -5.824  0.00  0.00    +0.220 C 
ATOM     14  N   UNL     1       1.981  -3.393  -4.967  0.00  0.00    -0.223 NA
ATOM     15  H   UNL     1       2.201  -6.416  -3.756  0.00  0.00    +0.149 HD
ENDROOT
BRANCH   1  20
ATOM     16  C   UNL     1       0.777  -1.811  -1.336  0.00  0.00    +0.162 A 
ATOM     17  C   UNL     1       0.243  -2.669  -0.388  0.00  0.00    +0.049 A 
ATOM     18  C   UNL     1       0.352  -4.037  -0.555  0.00  0.00    +0.004 A 
ATOM     19  C   UNL     1       0.992  -4.552  -1.667  0.00  0.00    +0.011 A 
ATOM     20  C   UNL     1       1.526  -3.702  -2.616  0.00  0.00    +0.040 A 
ATOM     21  C   UNL     1       1.416  -2.330  -2.458  0.00  0.00    +0.165 A 
BRANCH  21  22
ATOM     22  O   UNL     1       1.936  -1.492  -3.394  0.00  0.00    -0.503 OA
ATOM     23  H   UNL     1       2.856  -1.241  -3.231  0.00  0.00    +0.292 HD
ENDBRANCH  21  22
BRANCH  16  24
ATOM     24  O   UNL     1       0.671  -0.465  -1.174  0.00  0.00    -0.489 OA
BRANCH  24  26
ATOM     25  C   UNL     1      -0.019   1.526   0.010  0.00  0.00    +0.048 C 
ATOM     26  C   UNL     1       0.002  -0.004   0.002  0.00  0.00    +0.226 C 
ENDBRANCH  24  26
ENDBRANCH  16  24
ENDBRANCH   1  20
BRANCH  13  27
ATOM     27  O   UNL     1       0.811  -2.655  -6.824  0.00  0.00    -0.492 OA
ATOM     28  H   UNL     1       1.444  -1.925  -6.832  0.00  0.00    +0.294 HD
ENDBRANCH  13  27
TORSDOF 5
