REMARK  Name = ZINC63350242
REMARK  4 active torsions:
REMARK  status: ('A' for Active; 'I' for Inactive)
REMARK    1  A    between atoms: C_1  and  C_2
REMARK    2  A    between atoms: N_19  and  C_22
REMARK    3  A    between atoms: C_22  and  C_23
REMARK    4  A    between atoms: C_23  and  C_24
REMARK                            x       y       z     vdW  Elec       q    Type
REMARK                         _______ _______ _______ _____ _____    ______ ____
ROOT
ATOM      1  C   UNL     1      -0.019   1.526   0.010  0.00  0.00    +0.044 C 
ATOM      2  C   UNL     1       0.002  -0.004   0.002  0.00  0.00    +0.135 C 
ATOM      3  C   UNL     1       0.497  -0.386  -1.357  0.00  0.00    +0.139 C 
ATOM      4  C   UNL     1       1.583  -1.440  -1.225  0.00  0.00    -0.034 C 
ATOM      5  C   UNL     1       1.258  -2.425  -2.049  0.00  0.00    -0.001 A 
ATOM      6  C   UNL     1       1.951  -3.669  -2.418  0.00  0.00    +0.010 A 
ATOM      7  C   UNL     1       1.310  -4.473  -3.307  0.00  0.00    +0.001 A 
ATOM      8  C   UNL     1       0.061  -4.168  -3.858  0.00  0.00    +0.002 A 
ATOM      9  C   UNL     1      -0.646  -3.044  -3.578  0.00  0.00    +0.026 A 
ATOM     10  C   UNL     1      -0.072  -2.117  -2.662  0.00  0.00    +0.043 A 
ATOM     11  N   UNL     1      -0.511  -0.988  -2.228  0.00  0.00    -0.375 N 
ATOM     12  C   UNL     1       2.704  -1.279  -0.228  0.00  0.00    +0.052 C 
ATOM     13  C   UNL     1       2.038  -1.168   1.147  0.00  0.00    +0.113 C 
ATOM     14  N   UNL     1       0.822  -0.378   1.140  0.00  0.00    -0.284 N 
ATOM     15  C   UNL     1       0.343   0.038   2.360  0.00  0.00    +0.234 C 
ATOM     16  O   UNL     1       0.982  -0.114   3.379  0.00  0.00    -0.274 OA
ATOM     17  C   UNL     1      -1.020   0.697   2.368  0.00  0.00    +0.203 C 
ATOM     18  N   UNL     1      -1.920  -0.069   1.486  0.00  0.00    -0.291 N 
ATOM     19  C   UNL     1      -1.425  -0.413   0.258  0.00  0.00    +0.242 C 
ATOM     20  O   UNL     1      -2.089  -1.005  -0.567  0.00  0.00    -0.273 OA
ATOM     21  H   UNL     1      -1.373  -0.602  -2.451  0.00  0.00    +0.160 HD
ENDROOT
BRANCH  18  22
ATOM     22  C   UNL     1      -3.274  -0.443   1.902  0.00  0.00    +0.113 C 
BRANCH  22  23
ATOM     23  C   UNL     1      -4.254   0.660   1.497  0.00  0.00    +0.052 C 
BRANCH  23  24
ATOM     24  C   UNL     1      -5.647   0.276   1.926  0.00  0.00    -0.040 C 
ATOM     25  C   UNL     1      -6.277   0.641   3.066  0.00  0.00    -0.001 A 
ATOM     26  C   UNL     1      -5.869   1.473   4.205  0.00  0.00    +0.010 A 
ATOM     27  C   UNL     1      -6.737   1.661   5.224  0.00  0.00    +0.001 A 
ATOM     28  C   UNL     1      -8.014   1.083   5.221  0.00  0.00    +0.002 A 
ATOM     29  C   UNL     1      -8.461   0.307   4.210  0.00  0.00    +0.026 A 
ATOM     30  C   UNL     1      -7.631   0.043   3.086  0.00  0.00    +0.043 A 
ATOM     31  N   UNL     1      -7.830  -0.665   2.001  0.00  0.00    -0.380 N 
ATOM     32  C   UNL     1      -6.626  -0.591   1.166  0.00  0.00    +0.144 C 
ATOM     33  H   UNL     1      -8.640  -1.153   1.784  0.00  0.00    +0.160 HD
ENDBRANCH  23  24
ENDBRANCH  22  23
ENDBRANCH  18  22
TORSDOF 3
