REMARK  Name = ZINC66438902
REMARK  7 active torsions:
REMARK  status: ('A' for Active; 'I' for Inactive)
REMARK    1  A    between atoms: C_1  and  C_2
REMARK    2  A    between atoms: C_5  and  N_9
REMARK    3  A    between atoms: C_10  and  C_12
REMARK    4  A    between atoms: C_12  and  C_13
REMARK    5  A    between atoms: C_13  and  N_14
REMARK    6  A    between atoms: C_15  and  C_17
REMARK    7  A    between atoms: C_20  and  C_22
REMARK                            x       y       z     vdW  Elec       q    Type
REMARK                         _______ _______ _______ _____ _____    ______ ____
ROOT
ATOM      1  C   UNL     1      -0.238  -6.847  -2.632  0.00  0.00    +0.113 C 
ENDROOT
BRANCH   1   2
ATOM      2  N   UNL     1      -0.330  -8.309  -2.633  0.00  0.00    -0.315 N 
ATOM      3  C   UNL     1      -0.429  -8.977  -3.799  0.00  0.00    +0.217 C 
ATOM      4  O   UNL     1      -0.442  -8.368  -4.848  0.00  0.00    -0.275 OA
ATOM      5  H   UNL     1      -0.319  -8.796  -1.794  0.00  0.00    +0.149 HD
BRANCH   3   6
ATOM      6  C   UNL     1      -0.523 -10.481  -3.800  0.00  0.00    +0.083 C 
ATOM      7  C   UNL     1      -1.852 -11.105  -4.230  0.00  0.00    +0.022 C 
ATOM      8  C   UNL     1      -0.635 -11.181  -5.156  0.00  0.00    +0.032 C 
BRANCH   8   9
ATOM      9  C   UNL     1      -0.643 -10.313  -6.389  0.00  0.00    -0.042 A 
ATOM     10  C   UNL     1      -1.630  -9.359  -6.555  0.00  0.00    +0.004 A 
ATOM     11  C   UNL     1      -1.638  -8.562  -7.685  0.00  0.00    +0.002 A 
ATOM     12  C   UNL     1      -0.660  -8.720  -8.649  0.00  0.00    +0.020 A 
ATOM     13  C   UNL     1       0.327  -9.675  -8.483  0.00  0.00    +0.041 A 
ATOM     14  C   UNL     1       0.338 -10.468  -7.349  0.00  0.00    +0.024 A 
ATOM     15 CL   UNL     1       1.555  -9.874  -9.694  0.00  0.00    -0.084 Cl
ENDBRANCH   8   9
ENDBRANCH   3   6
ENDBRANCH   1   2
BRANCH   1  16
ATOM     16  C   UNL     1      -0.136  -6.343  -1.191  0.00  0.00    +0.115 C 
BRANCH  16  18
ATOM     17  N   UNL     1       0.057  -4.171  -0.023  0.00  0.00    -0.284 N 
ATOM     18  C   UNL     1      -0.042  -4.839  -1.190  0.00  0.00    +0.219 C 
ATOM     19  O   UNL     1      -0.055  -4.230  -2.238  0.00  0.00    -0.275 OA
ATOM     20  H   UNL     1       0.149  -4.660   0.809  0.00  0.00    +0.155 HD
BRANCH  17  25
ATOM     21  C   UNL     1      -0.064   1.502   0.016  0.00  0.00    +0.044 C 
ATOM     22  C   UNL     1      -0.031  -0.005   0.006  0.00  0.00    -0.049 A 
ATOM     23  C   UNL     1      -0.622  -0.701  -1.033  0.00  0.00    +0.005 A 
ATOM     24  C   UNL     1      -0.594  -2.082  -1.045  0.00  0.00    +0.025 A 
ATOM     25  C   UNL     1       0.028  -2.772  -0.014  0.00  0.00    +0.052 A 
ATOM     26  C   UNL     1       0.621  -2.070   1.029  0.00  0.00    +0.062 A 
ATOM     27  C   UNL     1       0.595  -0.688   1.032  0.00  0.00    +0.025 A 
ATOM     28 CL   UNL     1       1.401  -2.928   2.321  0.00  0.00    -0.082 Cl
ENDBRANCH  17  25
ENDBRANCH  16  18
ENDBRANCH   1  16
TORSDOF 6
