REMARK  Name = ZINC18244947
REMARK  7 active torsions:
REMARK  status: ('A' for Active; 'I' for Inactive)
REMARK    1  A    between atoms: C_1  and  C_2
REMARK    2  A    between atoms: N_13  and  N_16
REMARK    3  A    between atoms: N_16  and  C_17
REMARK    4  A    between atoms: C_17  and  C_18
REMARK    5  A    between atoms: C_18  and  C_20
REMARK    6  A    between atoms: C_23  and  N_26
REMARK    7  A    between atoms: C_29  and  C_31
REMARK                            x       y       z     vdW  Elec       q    Type
REMARK                         _______ _______ _______ _____ _____    ______ ____
ROOT
ATOM      1  N   UNL     1      -2.053  -2.484   2.664  0.00  0.00    -0.199 N 
ATOM      2  C   UNL     1      -2.011  -3.147   3.837  0.00  0.00    +0.265 C 
ATOM      3  O   UNL     1      -3.025  -3.638   4.294  0.00  0.00    -0.268 OA
ENDROOT
BRANCH   1  13
ATOM      4  C   UNL     1       0.232   1.722   0.590  0.00  0.00    +0.012 C 
ATOM      5  C   UNL     1       0.075   0.227   0.304  0.00  0.00    +0.021 C 
ATOM      6  C   UNL     1       0.584  -0.053  -1.067  0.00  0.00    -0.027 C 
ATOM      7  C   UNL     1       1.298  -1.078  -1.395  0.00  0.00    -0.030 C 
ATOM      8  C   UNL     1       1.755  -2.108  -0.412  0.00  0.00    +0.040 C 
ATOM      9  C   UNL     1       1.101  -1.994   0.926  0.00  0.00    +0.093 C 
ATOM     10  C   UNL     1       0.808  -0.560   1.393  0.00  0.00    +0.096 C 
ATOM     11  C   UNL     1      -0.269  -0.870   2.447  0.00  0.00    +0.243 C 
ATOM     12  O   UNL     1      -0.530  -0.203   3.425  0.00  0.00    -0.273 OA
ATOM     13  N   UNL     1      -0.867  -2.019   2.080  0.00  0.00    -0.152 N 
ATOM     14  C   UNL     1      -0.230  -2.669   1.091  0.00  0.00    +0.243 C 
ATOM     15  O   UNL     1      -0.645  -3.621   0.466  0.00  0.00    -0.273 OA
ENDBRANCH   1  13
BRANCH   2  16
ATOM     16  C   UNL     1      -0.733  -3.276   4.567  0.00  0.00    +0.057 A 
ATOM     17  C   UNL     1       0.388  -3.811   3.928  0.00  0.00    +0.016 A 
ATOM     18  C   UNL     1       1.577  -3.929   4.615  0.00  0.00    +0.021 A 
ATOM     19  C   UNL     1       1.663  -3.520   5.936  0.00  0.00    +0.042 A 
ATOM     20  C   UNL     1       0.556  -2.989   6.575  0.00  0.00    +0.040 A 
ATOM     21  C   UNL     1      -0.640  -2.860   5.897  0.00  0.00    +0.054 A 
ATOM     22 CL   UNL     1      -2.026  -2.187   6.698  0.00  0.00    -0.083 Cl
ATOM     23 CL   UNL     1       3.165  -3.674   6.793  0.00  0.00    -0.083 Cl
ENDBRANCH   2  16
BRANCH   1  24
ATOM     24  C   UNL     1      -3.337  -2.250   2.000  0.00  0.00    +0.211 C 
BRANCH  24  25
ATOM     25  C   UNL     1      -3.916  -0.941   2.472  0.00  0.00    +0.182 C 
ATOM     26  O   UNL     1      -3.314  -0.269   3.282  0.00  0.00    -0.290 OA
BRANCH  25  27
ATOM     27  C   UNL     1      -5.211  -0.477   1.948  0.00  0.00    +0.019 A 
ATOM     28  C   UNL     1      -5.910  -1.252   1.018  0.00  0.00    +0.013 A 
ATOM     29  C   UNL     1      -7.123  -0.811   0.532  0.00  0.00    +0.033 A 
ATOM     30  C   UNL     1      -7.648   0.396   0.963  0.00  0.00    +0.126 A 
ATOM     31  C   UNL     1      -6.961   1.168   1.884  0.00  0.00    +0.033 A 
ATOM     32  C   UNL     1      -5.750   0.737   2.384  0.00  0.00    +0.013 A 
BRANCH  30  33
ATOM     33  N   UNL     1      -8.950   0.862   0.436  0.00  0.00    +0.056 N 
ATOM     34  O   UNL     1      -9.552   0.190  -0.369  0.00  0.00    -0.126 OA
ATOM     35  O   UNL     1      -9.411   1.915   0.810  0.00  0.00    -0.126 OA
ENDBRANCH  30  33
ENDBRANCH  25  27
ENDBRANCH  24  25
ENDBRANCH   1  24
TORSDOF 6
