REMARK  Name = ZINC01080246
REMARK  7 active torsions:
REMARK  status: ('A' for Active; 'I' for Inactive)
REMARK    1  A    between atoms: C_1  and  C_2
REMARK    2  A    between atoms: C_5  and  C_8
REMARK    3  A    between atoms: C_8  and  O_10
REMARK    4  A    between atoms: O_10  and  C_11
REMARK    5  A    between atoms: C_14  and  C_19
REMARK    6  A    between atoms: C_16  and  O_17
REMARK    7  A    between atoms: O_17  and  C_18
REMARK                            x       y       z     vdW  Elec       q    Type
REMARK                         _______ _______ _______ _____ _____    ______ ____
ROOT
ATOM      1  C   UNL     1      -2.794   2.254   2.499  0.00  0.00    +0.086 C 
ATOM      2  C   UNL     1      -1.989   2.030   3.746  0.00  0.00    -0.005 A 
ATOM      3  C   UNL     1      -2.618   2.053   5.002  0.00  0.00    +0.006 A 
ATOM      4  C   UNL     1      -4.004   2.278   5.119  0.00  0.00    +0.012 A 
ATOM      5  C   UNL     1      -4.551   2.293   6.370  0.00  0.00    +0.020 A 
ATOM      6  C   UNL     1      -3.741   2.088   7.485  0.00  0.00    +0.111 A 
ATOM      7  N   UNL     1      -2.452   1.876   7.372  0.00  0.00    -0.255 NA
ATOM      8  C   UNL     1      -1.854   1.849   6.177  0.00  0.00    +0.071 A 
ATOM      9  C   UNL     1      -0.470   1.620   6.066  0.00  0.00    +0.030 A 
ATOM     10  C   UNL     1       0.117   1.598   4.842  0.00  0.00    +0.025 A 
ATOM     11  C   UNL     1      -0.633   1.802   3.676  0.00  0.00    +0.036 A 
ATOM     12  N   UNL     1      -0.004   1.773   2.431  0.00  0.00    -0.317 N 
ATOM     13  C   UNL     1      -0.728   1.562   1.292  0.00  0.00    +0.016 C 
ATOM     14  C   UNL     1      -2.060   1.777   1.272  0.00  0.00    +0.024 C 
ATOM     15  C   UNL     1      -2.808   1.562   0.102  0.00  0.00    +0.162 C 
ATOM     16  O   UNL     1      -4.008   1.756   0.117  0.00  0.00    -0.292 OA
ATOM     17  C   UNL     1      -2.153   1.097  -1.169  0.00  0.00    +0.080 C 
ATOM     18  C   UNL     1      -0.703   1.595  -1.192  0.00  0.00    +0.014 C 
ATOM     19  C   UNL     1       0.004   1.079   0.063  0.00  0.00    +0.051 C 
ATOM     20  H   UNL     1       0.956   1.903   2.374  0.00  0.00    +0.152 HD
ENDROOT
BRANCH   1  24
ATOM     21  C   UNL     1      -3.603   6.434   2.102  0.00  0.00    +0.173 A 
ATOM     22  C   UNL     1      -2.296   5.974   2.087  0.00  0.00    +0.050 A 
ATOM     23  C   UNL     1      -2.038   4.623   2.221  0.00  0.00    +0.008 A 
ATOM     24  C   UNL     1      -3.081   3.726   2.358  0.00  0.00    -0.032 A 
ATOM     25  C   UNL     1      -4.387   4.179   2.374  0.00  0.00    +0.054 A 
ATOM     26  C   UNL     1      -4.654   5.533   2.246  0.00  0.00    +0.163 A 
BRANCH  26  27
ATOM     27  O   UNL     1      -5.938   5.979   2.261  0.00  0.00    -0.491 OA
ATOM     28  C   UNL     1      -6.964   4.997   2.413  0.00  0.00    +0.277 C 
ENDBRANCH  26  27
BRANCH  21  29
ATOM     29  O   UNL     1      -3.859   7.764   1.975  0.00  0.00    -0.419 OA
BRANCH  29  30
ATOM     30  C   UNL     1      -4.099   8.451   3.108  0.00  0.00    +0.345 C 
ATOM     31  O   UNL     1      -3.984   7.904   4.187  0.00  0.00    -0.245 OA
BRANCH  30  36
ATOM     32  C   UNL     1      -5.667  13.981   2.842  0.00  0.00    +0.044 C 
ATOM     33  C   UNL     1      -5.256  12.532   2.912  0.00  0.00    -0.050 A 
ATOM     34  C   UNL     1      -5.127  11.912   4.142  0.00  0.00    +0.004 A 
ATOM     35  C   UNL     1      -4.751  10.586   4.213  0.00  0.00    +0.015 A 
ATOM     36  C   UNL     1      -4.502   9.871   3.040  0.00  0.00    +0.059 A 
ATOM     37  C   UNL     1      -4.629  10.505   1.802  0.00  0.00    +0.015 A 
ATOM     38  C   UNL     1      -5.011  11.829   1.746  0.00  0.00    +0.004 A 
ENDBRANCH  30  36
ENDBRANCH  29  30
ENDBRANCH  21  29
ENDBRANCH   1  24
TORSDOF 5
