REMARK  Name = ZINC49414467
REMARK  9 active torsions:
REMARK  status: ('A' for Active; 'I' for Inactive)
REMARK    1  A    between atoms: C_1  and  C_2
REMARK    2  A    between atoms: C_2  and  C_3
REMARK    3  A    between atoms: C_2  and  C_4
REMARK    4  A    between atoms: C_4  and  C_5
REMARK    5  A    between atoms: C_5  and  O_6
REMARK    6  A    between atoms: O_6  and  C_7
REMARK    7  A    between atoms: C_7  and  C_8
REMARK    8  A    between atoms: C_8  and  N_9
REMARK    9  A    between atoms: N_12  and  C_13
REMARK                            x       y       z     vdW  Elec       q    Type
REMARK                         _______ _______ _______ _____ _____    ______ ____
ROOT
ATOM      1  N   UNL     1       2.118  -0.157   6.102  0.00  0.00    -0.297 N 
ATOM      2  C   UNL     1       3.011  -0.472   7.061  0.00  0.00    +0.304 C 
ATOM      3  O   UNL     1       2.748  -1.336   7.875  0.00  0.00    -0.253 OA
ATOM      4  N   UNL     1       4.195   0.169   7.117  0.00  0.00    -0.268 N 
ATOM      5  H   UNL     1       2.328   0.532   5.452  0.00  0.00    +0.150 HD
ATOM      6  H   UNL     1       4.431   0.811   6.429  0.00  0.00    +0.156 HD
ENDROOT
BRANCH   4   7
ATOM      7  C   UNL     1       5.084  -0.091   8.168  0.00  0.00    +0.049 A 
ATOM      8  C   UNL     1       5.173  -1.370   8.702  0.00  0.00    +0.027 A 
ATOM      9  C   UNL     1       6.050  -1.625   9.738  0.00  0.00    +0.040 A 
ATOM     10  C   UNL     1       6.840  -0.606  10.244  0.00  0.00    +0.125 A 
ATOM     11  C   UNL     1       6.753   0.669   9.713  0.00  0.00    +0.055 A 
ATOM     12  C   UNL     1       5.881   0.928   8.673  0.00  0.00    +0.042 A 
ATOM     13 BR   UNL     1       5.768   2.668   7.942  0.00  0.00    -0.048 Br
ATOM     14  F   UNL     1       7.697  -0.858  11.258  0.00  0.00    -0.205 F 
ENDBRANCH   4   7
BRANCH   1  15
ATOM     15  C   UNL     1       0.831  -0.854   6.041  0.00  0.00    +0.133 C 
BRANCH  15  16
ATOM     16  C   UNL     1       0.011  -0.311   4.869  0.00  0.00    +0.178 C 
BRANCH  16  17
ATOM     17  O   UNL     1       0.670  -0.625   3.640  0.00  0.00    -0.378 OA
BRANCH  17  18
ATOM     18  C   UNL     1      -0.017  -0.159   2.477  0.00  0.00    +0.160 C 
BRANCH  18  19
ATOM     19  C   UNL     1       0.774  -0.549   1.227  0.00  0.00    +0.031 C 
BRANCH  19  21
ATOM     20  C   UNL     1       0.013   1.479  -0.017  0.00  0.00    +0.007 C 
ATOM     21  C   UNL     1       0.039  -0.051  -0.018  0.00  0.00    -0.015 C 
ATOM     22  C   UNL     1       0.763  -0.547  -1.271  0.00  0.00    +0.007 C 
ENDBRANCH  19  21
ENDBRANCH  18  19
ENDBRANCH  17  18
ENDBRANCH  16  17
ENDBRANCH  15  16
ENDBRANCH   1  15
TORSDOF 7
