REMARK  Name = ZINC40149530
REMARK  6 active torsions:
REMARK  status: ('A' for Active; 'I' for Inactive)
REMARK    1  A    between atoms: C_4  and  C_7
REMARK    2  A    between atoms: C_12  and  N_13
REMARK    3  A    between atoms: C_14  and  C_16
REMARK    4  A    between atoms: C_16  and  N_17
REMARK    5  A    between atoms: N_20  and  S_23
REMARK    6  A    between atoms: S_23  and  C_26
REMARK                            x       y       z     vdW  Elec       q    Type
REMARK                         _______ _______ _______ _____ _____    ______ ____
ROOT
ATOM      1  C   UNL     1       2.070  -3.565   3.569  0.00  0.00    +0.180 C 
ENDROOT
BRANCH   1   2
ATOM      2  N   UNL     1       2.530  -4.723   4.346  0.00  0.00    -0.291 NA
ATOM      3  C   UNL     1       2.754  -5.886   3.477  0.00  0.00    +0.102 C 
ATOM      4  C   UNL     1       3.402  -7.011   4.290  0.00  0.00    +0.124 C 
ATOM      5  N   UNL     1       2.569  -7.271   5.474  0.00  0.00    -0.178 NA
ATOM      6  C   UNL     1       2.187  -6.131   6.321  0.00  0.00    +0.124 C 
ATOM      7  C   UNL     1       1.587  -5.040   5.427  0.00  0.00    +0.102 C 
BRANCH   5   8
ATOM      8  S   UNL     1       2.073  -8.807   5.844  0.00  0.00    +0.036 S 
ATOM      9  O   UNL     1       0.874  -8.633   6.585  0.00  0.00    -0.158 OA
ATOM     10  O   UNL     1       2.063  -9.494   4.599  0.00  0.00    -0.158 OA
BRANCH   8  11
ATOM     11  C   UNL     1       3.378  -9.473   6.913  0.00  0.00    +0.170 C 
ATOM     12  C   UNL     1       4.734  -9.392   6.191  0.00  0.00    +0.052 C 
ATOM     13  C   UNL     1       5.786 -10.237   6.948  0.00  0.00    +0.168 C 
ATOM     14  S   UNL     1       4.760 -11.534   7.753  0.00  0.00    -0.029 S 
ATOM     15  O   UNL     1       4.872 -11.404   9.164  0.00  0.00    -0.174 OA
ATOM     16  O   UNL     1       5.037 -12.787   7.142  0.00  0.00    -0.174 OA
ATOM     17  C   UNL     1       3.087 -10.968   7.230  0.00  0.00    +0.193 C 
ENDBRANCH   8  11
ENDBRANCH   5   8
ENDBRANCH   1   2
BRANCH   1  19
ATOM     18  N   UNL     1       2.968  -2.064   1.819  0.00  0.00    -0.284 N 
ATOM     19  C   UNL     1       3.166  -3.118   2.636  0.00  0.00    +0.231 C 
ATOM     20  O   UNL     1       4.226  -3.707   2.621  0.00  0.00    -0.274 OA
ATOM     21  H   UNL     1       2.146  -1.553   1.877  0.00  0.00    +0.155 HD
BRANCH  18  27
ATOM     22  C   UNL     1       3.577  -1.201  -0.362  0.00  0.00    +0.003 A 
ATOM     23  C   UNL     1       4.562  -0.844  -1.280  0.00  0.00    +0.010 A 
ATOM     24  C   UNL     1       5.894  -0.997  -0.956  0.00  0.00    +0.001 A 
ATOM     25  C   UNL     1       6.258  -1.505   0.279  0.00  0.00    +0.002 A 
ATOM     26  C   UNL     1       5.291  -1.863   1.198  0.00  0.00    +0.024 A 
ATOM     27  C   UNL     1       3.948  -1.708   0.889  0.00  0.00    +0.041 A 
BRANCH  22  31
ATOM     28  C   UNL     1      -0.532  -0.735  -1.346  0.00  0.00    +0.000 A 
ATOM     29  C   UNL     1       0.345   0.317  -1.538  0.00  0.00    +0.001 A 
ATOM     30  C   UNL     1       1.681   0.171  -1.220  0.00  0.00    +0.008 A 
ATOM     31  C   UNL     1       2.144  -1.038  -0.705  0.00  0.00    -0.016 A 
ATOM     32  C   UNL     1       1.255  -2.095  -0.514  0.00  0.00    +0.008 A 
ATOM     33  C   UNL     1      -0.078  -1.938  -0.836  0.00  0.00    +0.001 A 
ENDBRANCH  22  31
ENDBRANCH  18  27
ENDBRANCH   1  19
TORSDOF 6
