REMARK  Name = ZINC01430912
REMARK  5 active torsions:
REMARK  status: ('A' for Active; 'I' for Inactive)
REMARK    1  A    between atoms: C_1  and  S_2
REMARK    2  A    between atoms: S_2  and  C_3
REMARK    3  A    between atoms: C_10  and  N_23
REMARK    4  A    between atoms: C_11  and  C_21
REMARK    5  A    between atoms: C_12  and  C_14
REMARK                            x       y       z     vdW  Elec       q    Type
REMARK                         _______ _______ _______ _____ _____    ______ ____
ROOT
ATOM      1  C   UNL     1       2.151  -2.608   1.071  0.00  0.00    +0.193 A 
ATOM      2  N   UNL     1       3.342  -2.028   1.095  0.00  0.00    -0.207 NA
ATOM      3  C   UNL     1       3.481  -0.748   0.756  0.00  0.00    +0.128 A 
ATOM      4  C   UNL     1       2.353  -0.026   0.375  0.00  0.00    +0.067 A 
ATOM      5  C   UNL     1       1.124  -0.665   0.363  0.00  0.00    +0.232 A 
ATOM      6  N   UNL     1       1.059  -1.947   0.714  0.00  0.00    -0.186 NA
ATOM      7  O   UNL     1       0.002  -0.004   0.002  0.00  0.00    -0.423 OA
ATOM      8  C   UNL     1      -0.016   1.340   0.009  0.00  0.00    +0.200 C 
ATOM      9  C   UNL     1       1.121   2.075   0.003  0.00  0.00    +0.098 C 
ATOM     10  C   UNL     1       2.474   1.420  -0.015  0.00  0.00    +0.103 C 
ATOM     11  N   UNL     1       4.728  -0.144   0.783  0.00  0.00    -0.343 N 
ATOM     12  H   UNL     1       5.509  -0.655   1.050  0.00  0.00    +0.144 HD
ATOM     13  H   UNL     1       4.821   0.788   0.534  0.00  0.00    +0.144 HD
ENDROOT
BRANCH  10  14
ATOM     14  C   UNL     1       3.055   1.516  -1.402  0.00  0.00    -0.033 A 
ATOM     15  C   UNL     1       2.400   0.930  -2.469  0.00  0.00    +0.004 A 
ATOM     16  C   UNL     1       2.929   1.022  -3.742  0.00  0.00    +0.002 A 
ATOM     17  C   UNL     1       4.121   1.691  -3.948  0.00  0.00    +0.020 A 
ATOM     18  C   UNL     1       4.781   2.274  -2.881  0.00  0.00    +0.041 A 
ATOM     19  C   UNL     1       4.247   2.186  -1.607  0.00  0.00    +0.024 A 
ATOM     20 CL   UNL     1       6.278   3.114  -3.139  0.00  0.00    -0.084 Cl
ENDBRANCH  10  14
BRANCH   8  21
ATOM     21  N   UNL     1      -1.226   1.988   0.019  0.00  0.00    -0.328 N 
ATOM     22  H   UNL     1      -2.050   1.476   0.020  0.00  0.00    +0.145 HD
ATOM     23  H   UNL     1      -1.257   2.958   0.024  0.00  0.00    +0.145 HD
ENDBRANCH   8  21
BRANCH   1  25
ATOM     24  C   UNL     1       3.747  -4.670   1.901  0.00  0.00    +0.093 C 
ATOM     25  S   UNL     1       2.014  -4.304   1.526  0.00  0.00    -0.089 S 
ENDBRANCH   1  25
BRANCH   9  26
ATOM     26  C   UNL     1       1.032   3.505   0.011  0.00  0.00    +0.101 C 
ATOM     27  N   UNL     1       0.962   4.638   0.019  0.00  0.00    -0.191 NA
ENDBRANCH   9  26
TORSDOF 4
