REMARK  Name = ZINC40645960
REMARK  7 active torsions:
REMARK  status: ('A' for Active; 'I' for Inactive)
REMARK    1  A    between atoms: C_1  and  C_2
REMARK    2  A    between atoms: C_2  and  C_41
REMARK    3  A    between atoms: C_7  and  C_23
REMARK    4  A    between atoms: C_8  and  N_11
REMARK    5  A    between atoms: C_12  and  C_14
REMARK    6  A    between atoms: C_23  and  S_24
REMARK    7  A    between atoms: S_24  and  N_27
REMARK                            x       y       z     vdW  Elec       q    Type
REMARK                         _______ _______ _______ _____ _____    ______ ____
ROOT
ATOM      1  C   UNL     1      -0.019   1.526   0.010  0.00  0.00    +0.012 C 
ATOM      2  C   UNL     1       0.002  -0.004   0.002  0.00  0.00    -0.023 C 
ATOM      3  C   UNL     1       0.998  -0.573  -1.069  0.00  0.00    -0.003 C 
ATOM      4  C   UNL     1       1.005  -2.084  -0.682  0.00  0.00    +0.005 C 
ATOM      5  C   UNL     1       0.840  -2.095   0.855  0.00  0.00    +0.011 C 
ATOM      6  C   UNL     1       0.750  -0.590   1.252  0.00  0.00    +0.015 C 
ATOM      7  C   UNL     1       2.187  -0.036   1.013  0.00  0.00    +0.081 C 
ATOM      8  C   UNL     1       2.350  -0.008  -0.535  0.00  0.00    +0.027 C 
ATOM      9  C   UNL     1      -1.404  -0.588  -0.152  0.00  0.00    +0.012 C 
ENDROOT
BRANCH   7  10
ATOM     10  N   UNL     1       2.308   1.321   1.552  0.00  0.00    -0.312 N 
ATOM     11  C   UNL     1       3.515   1.797   1.916  0.00  0.00    +0.215 C 
ATOM     12  O   UNL     1       4.502   1.102   1.799  0.00  0.00    -0.276 OA
ATOM     13  H   UNL     1       1.519   1.878   1.646  0.00  0.00    +0.149 HD
BRANCH  11  14
ATOM     14  C   UNL     1       3.639   3.193   2.470  0.00  0.00    +0.061 C 
ATOM     15  C   UNL     1       3.150   4.203   1.429  0.00  0.00    -0.066 C 
ATOM     16  N   UNL     1       4.233   5.124   1.077  0.00  0.00    +0.380 N 
ATOM     17  C   UNL     1       5.358   4.396   0.487  0.00  0.00    -0.079 C 
ATOM     18  C   UNL     1       5.920   3.392   1.496  0.00  0.00    -0.015 C 
ATOM     19  C   UNL     1       5.108   3.488   2.798  0.00  0.00    -0.004 C 
ATOM     20  C   UNL     1       5.208   4.926   3.324  0.00  0.00    -0.015 C 
ATOM     21  C   UNL     1       4.669   5.882   2.253  0.00  0.00    -0.079 C 
ATOM     22  H   UNL     1       3.887   5.775   0.388  0.00  0.00    -0.082 HD
ENDBRANCH  11  14
ENDBRANCH   7  10
BRANCH   6  23
ATOM     23  C   UNL     1       0.121  -0.294   2.615  0.00  0.00    +0.194 C 
BRANCH  23  24
ATOM     24  S   UNL     1       1.126  -1.051   3.921  0.00  0.00    +0.032 S 
ATOM     25  O   UNL     1       1.048  -2.468   3.841  0.00  0.00    -0.158 OA
ATOM     26  O   UNL     1       2.386  -0.399   4.009  0.00  0.00    -0.158 OA
BRANCH  24  27
ATOM     27  N   UNL     1       0.351  -0.665   5.333  0.00  0.00    -0.181 NA
ATOM     28  C   UNL     1       0.682   0.572   6.054  0.00  0.00    +0.110 C 
ATOM     29  C   UNL     1       1.040   0.217   7.501  0.00  0.00    +0.028 C 
ATOM     30  C   UNL     1      -0.092  -0.599   8.118  0.00  0.00    -0.001 C 
ATOM     31  C   UNL     1      -1.389   0.231   8.136  0.00  0.00    +0.016 C 
ATOM     32  C   UNL     1      -1.343   0.883   9.535  0.00  0.00    +0.036 C 
ATOM     33  C   UNL     1      -0.509  -0.054  10.382  0.00  0.00    -0.044 A 
ATOM     34  C   UNL     1       0.212  -0.907   9.565  0.00  0.00    -0.038 A 
ATOM     35  C   UNL     1       1.050  -1.855  10.128  0.00  0.00    +0.004 A 
ATOM     36  C   UNL     1       1.169  -1.951  11.501  0.00  0.00    +0.000 A 
ATOM     37  C   UNL     1       0.449  -1.099  12.317  0.00  0.00    +0.000 A 
ATOM     38  C   UNL     1      -0.388  -0.152  11.758  0.00  0.00    +0.004 A 
ATOM     39  C   UNL     1      -0.312  -1.891   7.336  0.00  0.00    +0.028 C 
ATOM     40  C   UNL     1      -0.684  -1.550   5.884  0.00  0.00    +0.110 C 
ENDBRANCH  24  27
ENDBRANCH  23  24
ENDBRANCH   6  23
TORSDOF 5
