REMARK  Name = ZINC17104713
REMARK  9 active torsions:
REMARK  status: ('A' for Active; 'I' for Inactive)
REMARK    1  A    between atoms: C_1  and  C_2
REMARK    2  A    between atoms: C_4  and  C_22
REMARK    3  A    between atoms: C_9  and  C_21
REMARK    4  A    between atoms: C_10  and  C_11
REMARK    5  A    between atoms: C_12  and  C_13
REMARK    6  A    between atoms: C_18  and  O_19
REMARK    7  A    between atoms: O_19  and  C_20
REMARK    8  A    between atoms: C_27  and  O_28
REMARK    9  A    between atoms: O_28  and  C_29
REMARK                            x       y       z     vdW  Elec       q    Type
REMARK                         _______ _______ _______ _____ _____    ______ ____
ROOT
ATOM      1  C   UNL     1       0.630  -2.344  -3.199  0.00  0.00    +0.013 C 
ATOM      2  C   UNL     1       1.448  -2.425  -1.909  0.00  0.00    +0.024 C 
ATOM      3  C   UNL     1       0.685  -1.732  -0.776  0.00  0.00    +0.037 C 
ATOM      4  C   UNL     1       1.484  -1.875   0.523  0.00  0.00    +0.088 C 
ATOM      5  C   UNL     1       1.721  -3.338   0.798  0.00  0.00    +0.160 C 
ATOM      6  O   UNL     1       1.839  -3.722   1.946  0.00  0.00    -0.292 OA
ATOM      7  C   UNL     1       1.804  -4.257  -0.253  0.00  0.00    -0.005 C 
ATOM      8  C   UNL     1       1.678  -3.868  -1.549  0.00  0.00    -0.038 C 
ATOM      9  C   UNL     1       2.038  -5.712   0.060  0.00  0.00    +0.047 C 
ENDROOT
BRANCH   3  10
ATOM     10  C   UNL     1       0.511  -0.272  -1.104  0.00  0.00    -0.002 A 
ATOM     11  C   UNL     1       1.617   0.549  -1.210  0.00  0.00    +0.007 A 
ATOM     12  C   UNL     1       1.458   1.889  -1.511  0.00  0.00    +0.001 A 
ATOM     13  C   UNL     1       0.193   2.412  -1.705  0.00  0.00    +0.004 A 
ATOM     14  C   UNL     1      -0.916   1.595  -1.599  0.00  0.00    +0.046 A 
ATOM     15  C   UNL     1      -0.759   0.250  -1.298  0.00  0.00    +0.124 A 
BRANCH  15  16
ATOM     16  O   UNL     1      -1.849  -0.556  -1.194  0.00  0.00    -0.495 OA
ATOM     17  C   UNL     1      -3.126   0.049  -1.406  0.00  0.00    +0.277 C 
ENDBRANCH  15  16
ENDBRANCH   3  10
BRANCH   8  18
ATOM     18  C   UNL     1       1.764  -4.831  -2.571  0.00  0.00    +0.005 C 
ATOM     19  C   UNL     1       2.771  -4.770  -3.478  0.00  0.00    +0.012 C 
BRANCH  19  20
ATOM     20  C   UNL     1       3.857  -3.799  -3.304  0.00  0.00    +0.017 A 
ATOM     21  C   UNL     1       4.381  -3.548  -2.030  0.00  0.00    +0.011 A 
ATOM     22  C   UNL     1       5.404  -2.639  -1.877  0.00  0.00    +0.001 A 
ATOM     23  C   UNL     1       5.909  -1.961  -2.975  0.00  0.00    +0.004 A 
ATOM     24  C   UNL     1       5.398  -2.193  -4.237  0.00  0.00    +0.046 A 
ATOM     25  C   UNL     1       4.372  -3.109  -4.415  0.00  0.00    +0.127 A 
BRANCH  25  26
ATOM     26  O   UNL     1       3.870  -3.338  -5.654  0.00  0.00    -0.495 OA
ATOM     27  C   UNL     1       4.444  -2.600  -6.734  0.00  0.00    +0.277 C 
ENDBRANCH  25  26
ENDBRANCH  19  20
ENDBRANCH   8  18
TORSDOF 5
