REMARK  Name = ZINC66726492
REMARK  10 active torsions:
REMARK  status: ('A' for Active; 'I' for Inactive)
REMARK    1  A    between atoms: C_1  and  C_2
REMARK    2  A    between atoms: C_2  and  N_3
REMARK    3  A    between atoms: N_3  and  C_4
REMARK    4  A    between atoms: C_4  and  C_5
REMARK    5  A    between atoms: C_8  and  C_11
REMARK    6  A    between atoms: C_11  and  N_12
REMARK    7  A    between atoms: N_12  and  C_13
REMARK    8  A    between atoms: N_12  and  C_14
REMARK    9  A    between atoms: C_15  and  C_17
REMARK   10  A    between atoms: C_20  and  C_22
REMARK                            x       y       z     vdW  Elec       q    Type
REMARK                         _______ _______ _______ _____ _____    ______ ____
ROOT
ATOM      1  N   UNL     1       0.707  -0.504   1.183  0.00  0.00    -0.292 N 
ATOM      2  C   UNL     1       2.022  -0.792   1.114  0.00  0.00    +0.266 C 
ATOM      3  O   UNL     1       2.592  -1.266   2.078  0.00  0.00    -0.268 OA
ENDROOT
BRANCH   2   4
ATOM      4  C   UNL     1       2.768  -0.531  -0.129  0.00  0.00    +0.133 A 
ATOM      5  C   UNL     1       4.072  -0.932  -0.252  0.00  0.00    +0.080 A 
ATOM      6  S   UNL     1       4.466  -0.418  -1.806  0.00  0.00    -0.074 S 
ATOM      7  C   UNL     1       2.895   0.309  -2.240  0.00  0.00    +0.116 A 
ATOM      8  N   UNL     1       2.185   0.091  -1.145  0.00  0.00    -0.234 NA
BRANCH   7   9
ATOM      9  C   UNL     1       2.493   0.972  -3.491  0.00  0.00    +0.044 A 
ATOM     10  C   UNL     1       3.227   1.187  -4.630  0.00  0.00    +0.018 A 
ATOM     11  C   UNL     1       2.632   1.836  -5.687  0.00  0.00    +0.008 A 
ATOM     12  C   UNL     1       1.341   2.244  -5.572  0.00  0.00    +0.046 A 
ATOM     13  S   UNL     1       0.921   1.699  -3.924  0.00  0.00    -0.095 S 
ENDBRANCH   7   9
ENDBRANCH   2   4
BRANCH   1  15
ATOM     14  C   UNL     1       0.141   1.473  -0.140  0.00  0.00    +0.024 C 
ATOM     15  C   UNL     1      -0.006  -0.044  -0.011  0.00  0.00    +0.105 C 
ENDBRANCH   1  15
BRANCH   1  16
ATOM     16  C   UNL     1      -0.009  -0.652   2.453  0.00  0.00    +0.143 C 
BRANCH  16  17
ATOM     17  C   UNL     1      -0.566  -2.049   2.556  0.00  0.00    -0.030 A 
ATOM     18  C   UNL     1      -1.830  -2.326   2.070  0.00  0.00    +0.005 A 
ATOM     19  C   UNL     1      -2.341  -3.607   2.164  0.00  0.00    +0.002 A 
ATOM     20  C   UNL     1      -1.588  -4.611   2.744  0.00  0.00    -0.064 A 
ATOM     21  C   UNL     1      -0.324  -4.334   3.229  0.00  0.00    +0.002 A 
ATOM     22  C   UNL     1       0.189  -3.054   3.131  0.00  0.00    +0.005 A 
BRANCH  20  23
ATOM     23  C   UNL     1      -2.146  -6.007   2.848  0.00  0.00    -0.044 C 
BRANCH  23  24
ATOM     24  N   UNL     1      -1.785  -6.769   1.644  0.00  0.00    +0.379 N 
ATOM     25  C   UNL     1      -0.327  -6.936   1.589  0.00  0.00    -0.096 C 
ATOM     26  C   UNL     1      -2.428  -8.089   1.690  0.00  0.00    -0.096 C 
ATOM     27  H   UNL     1      -2.098  -6.271   0.825  0.00  0.00    -0.082 HD
ENDBRANCH  23  24
ENDBRANCH  20  23
ENDBRANCH  16  17
ENDBRANCH   1  16
TORSDOF 7
