REMARK  Name = ZINC13687591
REMARK  10 active torsions:
REMARK  status: ('A' for Active; 'I' for Inactive)
REMARK    1  A    between atoms: C_1  and  C_2
REMARK    2  A    between atoms: C_2  and  C_3
REMARK    3  A    between atoms: C_2  and  C_4
REMARK    4  A    between atoms: C_2  and  N_68
REMARK    5  A    between atoms: N_6  and  C_7
REMARK    6  A    between atoms: C_7  and  C_9
REMARK    7  A    between atoms: C_7  and  C_18
REMARK    8  A    between atoms: C_9  and  C_10
REMARK    9  A    between atoms: C_10  and  C_11
REMARK   10  A    between atoms: C_11  and  C_12
REMARK                            x       y       z     vdW  Elec       q    Type
REMARK                         _______ _______ _______ _____ _____    ______ ____
ROOT
ATOM      1  C   UNL     1       6.639  -0.134  -2.322  0.00  0.00    +0.159 C 
ENDROOT
BRANCH   1   2
ATOM      2  C   UNL     1       6.251   0.128  -0.890  0.00  0.00    +0.236 C 
ATOM      3  O   UNL     1       7.106   0.362  -0.063  0.00  0.00    -0.274 OA
ATOM      4  N   UNL     1       4.953   0.102  -0.528  0.00  0.00    -0.300 N 
ATOM      5  C   UNL     1       4.559   0.356   0.864  0.00  0.00    +0.108 C 
ATOM      6  C   UNL     1       3.513   1.475   0.885  0.00  0.00    +0.031 C 
ATOM      7  C   UNL     1       2.350   1.098  -0.038  0.00  0.00    +0.009 C 
ATOM      8  C   UNL     1       2.867   0.946  -1.473  0.00  0.00    +0.031 C 
ATOM      9  C   UNL     1       3.905  -0.180  -1.519  0.00  0.00    +0.108 C 
ATOM     10  C   UNL     1       1.775  -0.261   0.424  0.00  0.00    +0.086 C 
ATOM     11  S   UNL     1       0.002  -0.004   0.002  0.00  0.00    -0.124 S 
ATOM     12  C   UNL     1      -0.022   1.775   0.012  0.00  0.00    +0.012 A 
ATOM     13  C   UNL     1       1.307   2.189   0.001  0.00  0.00    -0.027 A 
ATOM     14  C   UNL     1       1.545   3.566   0.023  0.00  0.00    +0.005 A 
ATOM     15  C   UNL     1       0.505   4.468   0.042  0.00  0.00    +0.000 A 
ATOM     16  C   UNL     1      -0.808   4.035   0.042  0.00  0.00    +0.001 A 
ATOM     17  C   UNL     1      -1.069   2.677   0.032  0.00  0.00    +0.015 A 
ENDBRANCH   1   2
BRANCH   1  20
ATOM     18  C   UNL     1       9.001   0.323  -1.937  0.00  0.00    +0.202 C 
ATOM     19  O   UNL     1       8.688   1.405  -1.486  0.00  0.00    -0.277 OA
ATOM     20  N   UNL     1       8.051  -0.522  -2.382  0.00  0.00    -0.305 N 
ATOM     21  H   UNL     1       8.301  -1.387  -2.743  0.00  0.00    +0.149 HD
BRANCH  18  23
ATOM     22  C   UNL     1      11.325   1.181  -2.046  0.00  0.00    -0.001 C 
ATOM     23  C   UNL     1      10.453  -0.075  -1.998  0.00  0.00    +0.001 C 
ATOM     24  C   UNL     1      10.810  -0.897  -0.758  0.00  0.00    -0.001 C 
BRANCH  23  27
ATOM     25  H   UNL     1      10.173  -1.747  -3.166  0.00  0.00    -0.089 HD
ATOM     26  H   UNL     1      10.461  -0.360  -4.037  0.00  0.00    -0.089 HD
ATOM     27  N   UNL     1      10.714  -0.885  -3.202  0.00  0.00    +0.387 N 
ATOM     28  H   UNL     1      11.713  -1.117  -3.242  0.00  0.00    -0.089 HD
ENDBRANCH  23  27
ENDBRANCH  18  23
ENDBRANCH   1  20
BRANCH   1  29
ATOM     29  C   UNL     1       6.423   1.134  -3.150  0.00  0.00    +0.032 C 
BRANCH  29  30
ATOM     30  C   UNL     1       6.698   0.834  -4.625  0.00  0.00    +0.007 C 
BRANCH  30  31
ATOM     31  C   UNL     1       6.482   2.103  -5.452  0.00  0.00    +0.035 C 
BRANCH  31  32
ATOM     32  C   UNL     1       6.753   1.807  -6.905  0.00  0.00    -0.047 A 
ATOM     33  C   UNL     1       8.025   1.973  -7.418  0.00  0.00    +0.003 A 
ATOM     34  C   UNL     1       8.275   1.697  -8.750  0.00  0.00    +0.000 A 
ATOM     35  C   UNL     1       7.249   1.265  -9.570  0.00  0.00    +0.000 A 
ATOM     36  C   UNL     1       5.976   1.104  -9.058  0.00  0.00    +0.000 A 
ATOM     37  C   UNL     1       5.727   1.375  -7.725  0.00  0.00    +0.003 A 
ENDBRANCH  31  32
ENDBRANCH  30  31
ENDBRANCH  29  30
ENDBRANCH   1  29
TORSDOF 8
