REMARK  Name = ZINC40144345
REMARK  6 active torsions:
REMARK  status: ('A' for Active; 'I' for Inactive)
REMARK    1  A    between atoms: C_1  and  C_2
REMARK    2  A    between atoms: C_5  and  N_8
REMARK    3  A    between atoms: C_9  and  C_20
REMARK    4  A    between atoms: N_10  and  N_11
REMARK    5  A    between atoms: C_12  and  C_13
REMARK    6  A    between atoms: C_16  and  O_19
REMARK                            x       y       z     vdW  Elec       q    Type
REMARK                         _______ _______ _______ _____ _____    ______ ____
ROOT
ATOM      1  N   UNL     1       0.137  -4.136  -0.092  0.00  0.00    -0.229 NA
ATOM      2  C   UNL     1       0.865  -4.791   0.783  0.00  0.00    +0.171 C 
ATOM      3  N   UNL     1       1.637  -4.101   1.692  0.00  0.00    -0.219 N 
ATOM      4  H   UNL     1       1.634  -3.131   1.693  0.00  0.00    +0.176 HD
ENDROOT
BRANCH   2   5
ATOM      5  C   UNL     1       0.856  -6.266   0.793  0.00  0.00    +0.144 A 
ATOM      6  N   UNL     1       0.196  -7.093   0.011  0.00  0.00    -0.236 NA
ATOM      7  C   UNL     1       0.280  -8.424   0.130  0.00  0.00    +0.079 A 
ATOM      8  C   UNL     1      -0.374  -9.416  -0.643  0.00  0.00    +0.029 A 
ATOM      9  C   UNL     1      -0.179 -10.736  -0.390  0.00  0.00    +0.002 A 
ATOM     10  C   UNL     1       0.662 -11.169   0.627  0.00  0.00    +0.001 A 
ATOM     11  C   UNL     1       1.320 -10.236   1.405  0.00  0.00    +0.017 A 
ATOM     12  C   UNL     1       1.131  -8.898   1.159  0.00  0.00    +0.040 A 
ATOM     13  S   UNL     1       1.744  -7.387   1.866  0.00  0.00    -0.064 S 
ENDBRANCH   2   5
BRANCH   1  18
ATOM     14  C   UNL     1      -0.243   1.487   0.199  0.00  0.00    +0.044 C 
ATOM     15  C   UNL     1      -0.141  -0.015   0.121  0.00  0.00    -0.050 A 
ATOM     16  C   UNL     1       0.290  -0.616  -1.048  0.00  0.00    +0.005 A 
ATOM     17  C   UNL     1       0.385  -1.990  -1.127  0.00  0.00    +0.028 A 
ATOM     18  C   UNL     1       0.046  -2.775  -0.021  0.00  0.00    +0.066 A 
ATOM     19  C   UNL     1      -0.389  -2.160   1.157  0.00  0.00    +0.028 A 
ATOM     20  C   UNL     1      -0.474  -0.785   1.222  0.00  0.00    +0.005 A 
ENDBRANCH   1  18
BRANCH   3  21
ATOM     21  N   UNL     1       2.425  -4.801   2.615  0.00  0.00    -0.189 NA
ATOM     22  C   UNL     1       3.075  -4.154   3.535  0.00  0.00    +0.138 C 
BRANCH  22  23
ATOM     23  C   UNL     1       3.994  -4.876   4.434  0.00  0.00    -0.005 A 
ATOM     24  C   UNL     1       4.258  -6.232   4.224  0.00  0.00    +0.013 A 
ATOM     25  C   UNL     1       5.118  -6.903   5.066  0.00  0.00    +0.046 A 
ATOM     26  C   UNL     1       5.722  -6.233   6.123  0.00  0.00    +0.117 A 
ATOM     27  C   UNL     1       5.462  -4.885   6.335  0.00  0.00    +0.046 A 
ATOM     28  C   UNL     1       4.608  -4.205   5.495  0.00  0.00    +0.013 A 
BRANCH  26  29
ATOM     29  O   UNL     1       6.569  -6.898   6.951  0.00  0.00    -0.507 OA
ATOM     30  H   UNL     1       7.493  -6.878   6.667  0.00  0.00    +0.292 HD
ENDBRANCH  26  29
ENDBRANCH  22  23
ENDBRANCH   3  21
TORSDOF 5
