REMARK  Name = ZINC03598886
REMARK  4 active torsions:
REMARK  status: ('A' for Active; 'I' for Inactive)
REMARK    1  A    between atoms: C_3  and  O_12
REMARK    2  A    between atoms: O_12  and  C_13
REMARK    3  A    between atoms: C_13  and  C_14
REMARK    4  A    between atoms: N_16  and  C_17
REMARK                            x       y       z     vdW  Elec       q    Type
REMARK                         _______ _______ _______ _____ _____    ______ ____
ROOT
ATOM      1  C   UNL     1      -1.330   1.943  -0.001  0.00  0.00    +0.324 C 
ENDROOT
BRANCH   1   2
ATOM      2  C   UNL     1      -0.014   1.208   0.001  0.00  0.00    +0.255 C 
ATOM      3  O   UNL     1       0.003  -0.005  -0.002  0.00  0.00    -0.272 OA
ATOM      4  N   UNL     1       1.143   1.898   0.001  0.00  0.00    -0.280 N 
ATOM      5  H   UNL     1       1.131   2.866  -0.061  0.00  0.00    +0.155 HD
BRANCH   4   6
ATOM      6  C   UNL     1       2.365   1.218   0.092  0.00  0.00    +0.069 A 
ATOM      7  C   UNL     1       2.514  -0.025  -0.507  0.00  0.00    +0.027 A 
ATOM      8  C   UNL     1       3.719  -0.694  -0.417  0.00  0.00    +0.022 A 
ATOM      9  C   UNL     1       4.778  -0.127   0.270  0.00  0.00    +0.044 A 
ATOM     10  C   UNL     1       4.634   1.112   0.869  0.00  0.00    +0.060 A 
ATOM     11  C   UNL     1       3.431   1.789   0.777  0.00  0.00    +0.146 A 
ATOM     12  F   UNL     1       3.292   3.002   1.357  0.00  0.00    -0.203 F 
ATOM     13 CL   UNL     1       6.291  -0.972   0.381  0.00  0.00    -0.083 Cl
ENDBRANCH   4   6
ENDBRANCH   1   2
BRANCH   1  14
ATOM     14  O   UNL     1      -2.403   1.000  -0.007  0.00  0.00    -0.483 OA
BRANCH  14  17
ATOM     15  C   UNL     1      -5.122   3.400  -0.010  0.00  0.00    +0.015 A 
ATOM     16  C   UNL     1      -3.860   2.880  -0.001  0.00  0.00    +0.046 A 
ATOM     17  C   UNL     1      -3.664   1.501  -0.010  0.00  0.00    +0.125 A 
ATOM     18  C   UNL     1      -4.747   0.636  -0.016  0.00  0.00    +0.092 A 
ATOM     19  C   UNL     1      -6.036   1.147  -0.019  0.00  0.00    +0.143 A 
ATOM     20  C   UNL     1      -6.227   2.541  -0.015  0.00  0.00    +0.018 A 
ATOM     21  C   UNL     1      -7.592   3.070  -0.018  0.00  0.00    +0.018 A 
ATOM     22  C   UNL     1      -8.623   2.186  -0.024  0.00  0.00    +0.092 A 
ATOM     23  C   UNL     1      -8.359   0.801  -0.027  0.00  0.00    +0.337 A 
ATOM     24  O   UNL     1      -9.293   0.019  -0.033  0.00  0.00    -0.245 OA
ATOM     25  O   UNL     1      -7.105   0.322  -0.025  0.00  0.00    -0.422 OA
ENDBRANCH  14  17
ENDBRANCH   1  14
TORSDOF 4
