REMARK  Name = ZINC54260097
REMARK  12 active torsions:
REMARK  status: ('A' for Active; 'I' for Inactive)
REMARK    1  A    between atoms: C_1  and  C_2
REMARK    2  A    between atoms: C_3  and  C_10
REMARK    3  A    between atoms: C_4  and  C_7
REMARK    4  A    between atoms: C_7  and  C_8
REMARK    5  A    between atoms: C_7  and  C_9
REMARK    6  A    between atoms: N_12  and  C_13
REMARK    7  A    between atoms: C_13  and  C_14
REMARK    8  A    between atoms: C_14  and  C_15
REMARK    9  A    between atoms: C_14  and  C_16
REMARK   10  A    between atoms: C_14  and  N_17
REMARK   11  A    between atoms: C_19  and  C_26
REMARK   12  A    between atoms: C_22  and  C_25
REMARK                            x       y       z     vdW  Elec       q    Type
REMARK                         _______ _______ _______ _____ _____    ______ ____
ROOT
ATOM      1  C   UNL     1       0.734   1.763  -4.550  0.00  0.00    +0.249 C 
ATOM      2  O   UNL     1       1.400   0.837  -4.130  0.00  0.00    -0.270 OA
ATOM      3  N   UNL     1      -0.565   1.574  -4.858  0.00  0.00    -0.312 N 
ATOM      4  H   UNL     1      -1.097   2.312  -5.193  0.00  0.00    +0.149 HD
ENDROOT
BRANCH   1   7
ATOM      5  C   UNL     1       2.198   2.857  -7.222  0.00  0.00    +0.070 C 
ATOM      6  C   UNL     1       2.009   3.600  -5.924  0.00  0.00    +0.093 A 
ATOM      7  C   UNL     1       1.345   3.093  -4.722  0.00  0.00    +0.102 A 
ATOM      8  C   UNL     1       1.401   4.090  -3.791  0.00  0.00    +0.152 A 
ATOM      9  O   UNL     1       2.035   5.131  -4.336  0.00  0.00    -0.358 OA
ATOM     10  N   UNL     1       2.410   4.808  -5.660  0.00  0.00    -0.083 NA
BRANCH   8  11
ATOM     11  C   UNL     1       0.844   4.027  -2.392  0.00  0.00    +0.052 C 
ATOM     12  C   UNL     1       1.976   4.231  -1.383  0.00  0.00    +0.015 C 
ATOM     13  C   UNL     1      -0.205   5.126  -2.210  0.00  0.00    +0.015 C 
ENDBRANCH   8  11
ENDBRANCH   1   7
BRANCH   3  14
ATOM     14  C   UNL     1      -1.173   0.252  -4.687  0.00  0.00    +0.092 C 
BRANCH  14  15
ATOM     15  C   UNL     1      -2.671   0.337  -4.983  0.00  0.00    -0.055 C 
ATOM     16  C   UNL     1      -2.881   0.682  -6.459  0.00  0.00    -0.008 C 
ATOM     17  C   UNL     1      -3.330  -1.009  -4.676  0.00  0.00    -0.008 C 
BRANCH  15  18
ATOM     18  N   UNL     1      -3.277   1.381  -4.145  0.00  0.00    +0.384 N 
ATOM     19  C   UNL     1      -3.038   1.071  -2.731  0.00  0.00    -0.075 C 
ATOM     20  C   UNL     1      -3.596   2.196  -1.857  0.00  0.00    -0.031 C 
ATOM     21  C   UNL     1      -5.101   2.329  -2.105  0.00  0.00    +0.003 C 
ATOM     22  C   UNL     1      -5.343   2.579  -3.596  0.00  0.00    -0.031 C 
ATOM     23  C   UNL     1      -4.720   1.439  -4.406  0.00  0.00    -0.075 C 
ATOM     24  C   UNL     1      -6.848   2.636  -3.867  0.00  0.00    +0.005 C 
ATOM     25  C   UNL     1      -3.347   1.869  -0.383  0.00  0.00    +0.005 C 
ATOM     26  H   UNL     1      -2.860   2.273  -4.367  0.00  0.00    -0.081 HD
ENDBRANCH  15  18
ENDBRANCH  14  15
ENDBRANCH   3  14
TORSDOF 5
