REMARK  Name = ZINC02909973
REMARK  11 active torsions:
REMARK  status: ('A' for Active; 'I' for Inactive)
REMARK    1  A    between atoms: C_1  and  O_2
REMARK    2  A    between atoms: O_2  and  C_3
REMARK    3  A    between atoms: C_6  and  C_11
REMARK    4  A    between atoms: C_8  and  O_9
REMARK    5  A    between atoms: O_9  and  C_10
REMARK    6  A    between atoms: C_11  and  C_12
REMARK    7  A    between atoms: C_12  and  N_13
REMARK    8  A    between atoms: C_14  and  C_16
REMARK    9  A    between atoms: C_16  and  C_17
REMARK   10  A    between atoms: N_19  and  N_20
REMARK   11  A    between atoms: C_21  and  C_22
REMARK                            x       y       z     vdW  Elec       q    Type
REMARK                         _______ _______ _______ _____ _____    ______ ____
ROOT
ATOM      1  C   UNL     1       6.625  -4.323  -6.337  0.00  0.00    +0.193 C 
ENDROOT
BRANCH   1   3
ATOM      2  N   UNL     1       4.640  -3.366  -5.213  0.00  0.00    -0.315 N 
ATOM      3  C   UNL     1       5.955  -3.658  -5.162  0.00  0.00    +0.222 C 
ATOM      4  O   UNL     1       6.599  -3.385  -4.171  0.00  0.00    -0.275 OA
ATOM      5  H   UNL     1       4.126  -3.584  -6.006  0.00  0.00    +0.149 HD
BRANCH   2   6
ATOM      6  C   UNL     1       3.989  -2.719  -4.072  0.00  0.00    +0.109 C 
BRANCH   6   7
ATOM      7  C   UNL     1       2.507  -2.501  -4.386  0.00  0.00    +0.054 C 
BRANCH   7  11
ATOM      8  C   UNL     1       0.606  -0.608  -1.056  0.00  0.00    +0.161 A 
ATOM      9  C   UNL     1       1.173   0.159  -2.062  0.00  0.00    +0.049 A 
ATOM     10  C   UNL     1       1.787  -0.456  -3.137  0.00  0.00    +0.007 A 
ATOM     11  C   UNL     1       1.837  -1.836  -3.212  0.00  0.00    -0.042 A 
ATOM     12  C   UNL     1       1.273  -2.606  -2.212  0.00  0.00    +0.053 A 
ATOM     13  C   UNL     1       0.662  -1.996  -1.129  0.00  0.00    +0.162 A 
BRANCH   8  15
ATOM     14  C   UNL     1      -0.017   1.425   0.010  0.00  0.00    +0.277 C 
ATOM     15  O   UNL     1       0.002  -0.004   0.002  0.00  0.00    -0.491 OA
ENDBRANCH   8  15
BRANCH  13  16
ATOM     16  O   UNL     1       0.112  -2.753  -0.142  0.00  0.00    -0.491 OA
ATOM     17  C   UNL     1       0.206  -4.171  -0.283  0.00  0.00    +0.277 C 
ENDBRANCH  13  16
ENDBRANCH   7  11
ENDBRANCH   6   7
ENDBRANCH   2   6
ENDBRANCH   1   3
BRANCH   1  18
ATOM     18  C   UNL     1       8.085  -4.538  -6.027  0.00  0.00    +0.241 C 
ATOM     19  O   UNL     1       8.536  -4.186  -4.957  0.00  0.00    -0.274 OA
ATOM     20  N   UNL     1       8.888  -5.122  -6.938  0.00  0.00    -0.207 N 
ATOM     21  H   UNL     1       8.527  -5.403  -7.793  0.00  0.00    +0.177 HD
BRANCH  20  22
ATOM     22  N   UNL     1      10.245  -5.322  -6.650  0.00  0.00    -0.188 NA
ATOM     23  C   UNL     1      11.018  -5.884  -7.527  0.00  0.00    +0.139 C 
BRANCH  23  24
ATOM     24  C   UNL     1      12.445  -6.094  -7.224  0.00  0.00    +0.012 A 
ATOM     25  C   UNL     1      13.282  -6.694  -8.169  0.00  0.00    +0.060 A 
ATOM     26  C   UNL     1      14.619  -6.889  -7.881  0.00  0.00    +0.167 A 
ATOM     27  C   UNL     1      15.133  -6.488  -6.648  0.00  0.00    +0.167 A 
ATOM     28  C   UNL     1      14.303  -5.892  -5.710  0.00  0.00    +0.065 A 
ATOM     29  C   UNL     1      12.967  -5.689  -5.992  0.00  0.00    +0.030 A 
ATOM     30 BR   UNL     1      11.843  -4.869  -4.712  0.00  0.00    -0.050 Br
ATOM     31  O   UNL     1      16.464  -6.789  -6.612  0.00  0.00    -0.453 OA
ATOM     32  C   UNL     1      16.670  -7.745  -7.668  0.00  0.00    +0.466 C 
ATOM     33  O   UNL     1      15.630  -7.441  -8.615  0.00  0.00    -0.453 OA
ENDBRANCH  23  24
ENDBRANCH  20  22
ENDBRANCH   1  18
TORSDOF 9
