REMARK  Name = ZINC20737932
REMARK  4 active torsions:
REMARK  status: ('A' for Active; 'I' for Inactive)
REMARK    1  A    between atoms: C_1  and  C_2
REMARK    2  A    between atoms: C_18  and  C_20
REMARK    3  A    between atoms: C_23  and  O_26
REMARK    4  A    between atoms: O_26  and  C_27
REMARK                            x       y       z     vdW  Elec       q    Type
REMARK                         _______ _______ _______ _____ _____    ______ ____
ROOT
ATOM      1  C   UNL     1       0.333   1.256  -0.089  0.00  0.00    +0.068 C 
ATOM      2  C   UNL     1       0.341  -0.240  -0.273  0.00  0.00    +0.067 A 
ATOM      3  C   UNL     1       0.378  -0.914  -1.512  0.00  0.00    +0.033 A 
ATOM      4  C   UNL     1       0.372  -2.241  -1.260  0.00  0.00    +0.137 A 
ATOM      5  N   UNL     1       0.335  -2.391   0.110  0.00  0.00    -0.183 N 
ATOM      6  N   UNL     1       0.320  -1.120   0.686  0.00  0.00    -0.167 NA
ATOM      7  C   UNL     1       0.319  -3.601   0.800  0.00  0.00    +0.253 A 
ATOM      8  N   UNL     1       0.390  -3.592   2.122  0.00  0.00    -0.219 NA
ATOM      9  C   UNL     1       0.378  -4.723   2.808  0.00  0.00    +0.116 A 
ATOM     10  C   UNL     1       0.290  -5.926   2.126  0.00  0.00    +0.039 A 
ATOM     11  C   UNL     1       0.217  -5.899   0.742  0.00  0.00    +0.116 A 
ATOM     12  N   UNL     1       0.229  -4.732   0.119  0.00  0.00    -0.219 NA
ATOM     13  N   UNL     1       0.391  -3.333  -2.093  0.00  0.00    -0.269 N 
ATOM     14  C   UNL     1       0.471  -3.505  -3.379  0.00  0.00    +0.228 C 
ATOM     15  O   UNL     1       0.565  -4.661  -3.733  0.00  0.00    -0.275 OA
ATOM     16  C   UNL     1       0.467  -2.517  -4.478  0.00  0.00    +0.166 C 
ATOM     17  S   UNL     1       1.377  -1.018  -4.077  0.00  0.00    -0.138 S 
ATOM     18  C   UNL     1       0.417  -0.178  -2.815  0.00  0.00    +0.112 C 
ATOM     19  H   UNL     1       0.331  -4.171  -1.609  0.00  0.00    +0.156 HD
ENDROOT
BRANCH  18  20
ATOM     20  C   UNL     1       1.013   1.186  -2.581  0.00  0.00    -0.030 A 
ATOM     21  C   UNL     1       2.299   1.302  -2.086  0.00  0.00    +0.008 A 
ATOM     22  C   UNL     1       2.847   2.551  -1.870  0.00  0.00    +0.046 A 
ATOM     23  C   UNL     1       2.108   3.691  -2.153  0.00  0.00    +0.121 A 
ATOM     24  C   UNL     1       0.818   3.572  -2.651  0.00  0.00    +0.046 A 
ATOM     25  C   UNL     1       0.276   2.320  -2.869  0.00  0.00    +0.008 A 
BRANCH  23  26
ATOM     26  O   UNL     1       2.645   4.921  -1.942  0.00  0.00    -0.489 OA
BRANCH  26  27
ATOM     27  C   UNL     1       1.786   6.046  -2.135  0.00  0.00    +0.173 C 
ATOM     28  C   UNL     1       1.818   6.487  -3.613  0.00  0.00    +0.044 C 
ATOM     29  C   UNL     1       1.740   8.033  -3.550  0.00  0.00    +0.004 C 
ATOM     30  C   UNL     1       2.610   8.368  -2.313  0.00  0.00    +0.004 C 
ATOM     31  C   UNL     1       2.290   7.242  -1.309  0.00  0.00    +0.044 C 
ENDBRANCH  26  27
ENDBRANCH  23  26
ENDBRANCH  18  20
TORSDOF 3
