REMARK  Name = ZINC28884719
REMARK  11 active torsions:
REMARK  status: ('A' for Active; 'I' for Inactive)
REMARK    1  A    between atoms: C_1  and  O_2
REMARK    2  A    between atoms: O_2  and  C_3
REMARK    3  A    between atoms: C_5  and  C_13
REMARK    4  A    between atoms: C_7  and  O_11
REMARK    5  A    between atoms: C_8  and  O_9
REMARK    6  A    between atoms: O_9  and  C_10
REMARK    7  A    between atoms: O_11  and  C_12
REMARK    8  A    between atoms: C_16  and  N_32
REMARK    9  A    between atoms: C_21  and  C_22
REMARK   10  A    between atoms: C_25  and  S_28
REMARK   11  A    between atoms: S_28  and  C_31
REMARK                            x       y       z     vdW  Elec       q    Type
REMARK                         _______ _______ _______ _____ _____    ______ ____
ROOT
ATOM      1  C   UNL     1      -4.857   0.150   0.692  0.00  0.00    +0.013 A 
ATOM      2  C   UNL     1      -5.296   0.681   1.900  0.00  0.00    +0.093 A 
ATOM      3  N   UNL     1      -6.398   1.412   1.941  0.00  0.00    -0.349 N 
ATOM      4  C   UNL     1      -7.131   1.677   0.880  0.00  0.00    +0.103 A 
ATOM      5  C   UNL     1      -6.774   1.185  -0.402  0.00  0.00    +0.035 A 
ATOM      6  C   UNL     1      -5.599   0.410  -0.459  0.00  0.00    +0.032 A 
ATOM      7  S   UNL     1      -5.454  -0.021  -2.171  0.00  0.00    -0.095 S 
ATOM      8  C   UNL     1      -6.905   0.807  -2.793  0.00  0.00    +0.055 A 
ATOM      9  C   UNL     1      -7.448   1.367  -1.685  0.00  0.00    +0.000 A 
ATOM     10  H   UNL     1      -6.681   1.770   2.797  0.00  0.00    +0.167 HD
ENDROOT
BRANCH   1  13
ATOM     11  C   UNL     1      -1.296  -0.974   1.154  0.00  0.00    +0.166 A 
ATOM     12  C   UNL     1      -2.447  -0.207   1.214  0.00  0.00    +0.058 A 
ATOM     13  C   UNL     1      -3.624  -0.670   0.628  0.00  0.00    -0.008 A 
ATOM     14  C   UNL     1      -3.640  -1.906  -0.016  0.00  0.00    +0.058 A 
ATOM     15  C   UNL     1      -2.487  -2.671  -0.074  0.00  0.00    +0.166 A 
ATOM     16  C   UNL     1      -1.313  -2.204   0.506  0.00  0.00    +0.204 A 
BRANCH  11  18
ATOM     17  C   UNL     1      -0.202   0.749   2.374  0.00  0.00    +0.277 C 
ATOM     18  O   UNL     1      -0.147  -0.522   1.725  0.00  0.00    -0.491 OA
ENDBRANCH  11  18
BRANCH  16  19
ATOM     19  O   UNL     1      -0.179  -2.955   0.443  0.00  0.00    -0.488 OA
ATOM     20  C   UNL     1       0.044  -3.884   1.505  0.00  0.00    +0.277 C 
ENDBRANCH  16  19
BRANCH  15  21
ATOM     21  O   UNL     1      -2.503  -3.877  -0.702  0.00  0.00    -0.491 OA
ATOM     22  C   UNL     1      -3.742  -4.292  -1.280  0.00  0.00    +0.277 C 
ENDBRANCH  15  21
ENDBRANCH   1  13
BRANCH   9  23
ATOM     23  C   UNL     1      -8.694   2.164  -1.777  0.00  0.00    -0.017 A 
ATOM     24  C   UNL     1      -8.711   3.489  -1.343  0.00  0.00    +0.010 A 
ATOM     25  C   UNL     1      -9.874   4.226  -1.430  0.00  0.00    +0.027 A 
ATOM     26  C   UNL     1     -11.022   3.652  -1.947  0.00  0.00    +0.088 A 
ATOM     27  C   UNL     1     -11.012   2.338  -2.379  0.00  0.00    +0.027 A 
ATOM     28  C   UNL     1      -9.853   1.593  -2.302  0.00  0.00    +0.010 A 
BRANCH  26  29
ATOM     29  S   UNL     1     -12.504   4.600  -2.056  0.00  0.00    -0.006 S 
ATOM     30  O   UNL     1     -13.552   3.641  -2.014  0.00  0.00    -0.170 OA
ATOM     31  O   UNL     1     -12.381   5.583  -1.037  0.00  0.00    -0.170 OA
ATOM     32  C   UNL     1     -12.438   5.383  -3.691  0.00  0.00    +0.200 C 
ENDBRANCH  26  29
ENDBRANCH   9  23
BRANCH   4  33
ATOM     33  N   UNL     1      -8.274   2.453   1.018  0.00  0.00    -0.344 N 
ATOM     34  H   UNL     1      -8.329   3.113   1.727  0.00  0.00    +0.144 HD
ATOM     35  H   UNL     1      -9.017   2.335   0.406  0.00  0.00    +0.144 HD
ENDBRANCH   4  33
TORSDOF 7
