REMARK  Name = ZINC42666961
REMARK  13 active torsions:
REMARK  status: ('A' for Active; 'I' for Inactive)
REMARK    1  A    between atoms: C_1  and  C_2
REMARK    2  A    between atoms: C_2  and  C_3
REMARK    3  A    between atoms: C_7  and  C_29
REMARK    4  A    between atoms: C_8  and  N_9
REMARK    5  A    between atoms: C_10  and  C_12
REMARK    6  A    between atoms: C_12  and  C_14
REMARK    7  A    between atoms: C_12  and  N_15
REMARK    8  A    between atoms: N_15  and  C_16
REMARK    9  A    between atoms: C_20  and  N_22
REMARK   10  A    between atoms: C_23  and  C_25
REMARK   11  A    between atoms: C_25  and  C_26
REMARK   12  A    between atoms: C_25  and  C_27
REMARK   13  A    between atoms: C_25  and  C_28
REMARK                            x       y       z     vdW  Elec       q    Type
REMARK                         _______ _______ _______ _____ _____    ______ ____
ROOT
ATOM      1  N   UNL     1      -2.203  -2.159  -5.265  0.00  0.00    -0.333 N 
ATOM      2  H   UNL     1      -3.167  -2.256  -5.215  0.00  0.00    +0.147 HD
ENDROOT
BRANCH   1   3
ATOM      3  C   UNL     1      -1.524  -2.522  -6.430  0.00  0.00    +0.029 A 
ATOM      4  C   UNL     1      -0.142  -2.389  -6.500  0.00  0.00    +0.023 A 
ATOM      5  C   UNL     1       0.530  -2.747  -7.652  0.00  0.00    +0.004 A 
ATOM      6  C   UNL     1      -0.168  -3.238  -8.739  0.00  0.00    +0.023 A 
ATOM      7  C   UNL     1      -1.549  -3.373  -8.676  0.00  0.00    +0.035 A 
ATOM      8  C   UNL     1      -2.227  -3.020  -7.518  0.00  0.00    +0.046 A 
BRANCH   7   9
ATOM      9  N   UNL     1      -2.255  -3.870  -9.777  0.00  0.00    -0.285 N 
ATOM     10  C   UNL     1      -1.661  -4.733 -10.624  0.00  0.00    +0.223 C 
ATOM     11  O   UNL     1      -0.550  -5.154 -10.381  0.00  0.00    -0.275 OA
ATOM     12  H   UNL     1      -3.172  -3.593  -9.930  0.00  0.00    +0.155 HD
BRANCH  10  13
ATOM     13  C   UNL     1      -2.377  -5.175 -11.874  0.00  0.00    +0.039 C 
ATOM     14  C   UNL     1      -1.490  -6.147 -12.654  0.00  0.00    +0.020 C 
ATOM     15  C   UNL     1      -3.685  -5.872 -11.493  0.00  0.00    +0.020 C 
ATOM     16  C   UNL     1      -2.685  -3.954 -12.745  0.00  0.00    +0.020 C 
ENDBRANCH  10  13
ENDBRANCH   7   9
ENDBRANCH   1   3
BRANCH   1  17
ATOM     17  C   UNL     1      -1.460  -1.633  -4.117  0.00  0.00    +0.154 C 
ATOM     18  C   UNL     1      -1.254  -0.127  -4.290  0.00  0.00    +0.038 C 
BRANCH  17  20
ATOM     19  N   UNL     1      -1.746  -1.492  -1.664  0.00  0.00    -0.284 N 
ATOM     20  C   UNL     1      -2.239  -1.892  -2.853  0.00  0.00    +0.237 C 
ATOM     21  O   UNL     1      -3.309  -2.459  -2.906  0.00  0.00    -0.273 OA
ATOM     22  H   UNL     1      -0.914  -0.995  -1.627  0.00  0.00    +0.155 HD
BRANCH  19  28
ATOM     23  C   UNL     1      -2.625  -0.814   0.481  0.00  0.00    -0.026 A 
ATOM     24  C   UNL     1      -3.310  -1.114   1.642  0.00  0.00    +0.005 A 
ATOM     25  C   UNL     1      -3.800  -2.391   1.847  0.00  0.00    +0.001 A 
ATOM     26  C   UNL     1      -3.607  -3.371   0.891  0.00  0.00    +0.005 A 
ATOM     27  C   UNL     1      -2.923  -3.077  -0.273  0.00  0.00    -0.029 A 
ATOM     28  C   UNL     1      -2.434  -1.794  -0.484  0.00  0.00    +0.040 A 
ATOM     29  C   UNL     1      -2.713  -4.146  -1.314  0.00  0.00    +0.045 C 
BRANCH  23  31
ATOM     30  C   UNL     1      -3.103   1.388  -0.555  0.00  0.00    +0.009 C 
ATOM     31  C   UNL     1      -2.091   0.578   0.258  0.00  0.00    +0.033 C 
ENDBRANCH  23  31
ENDBRANCH  19  28
ENDBRANCH  17  20
ENDBRANCH   1  17
TORSDOF 7
