REMARK  Name = ZINC01183117
REMARK  6 active torsions:
REMARK  status: ('A' for Active; 'I' for Inactive)
REMARK    1  A    between atoms: C_1  and  C_2
REMARK    2  A    between atoms: C_7  and  C_8
REMARK    3  A    between atoms: C_8  and  O_9
REMARK    4  A    between atoms: O_9  and  C_10
REMARK    5  A    between atoms: C_13  and  C_16
REMARK    6  A    between atoms: N_20  and  C_24
REMARK                            x       y       z     vdW  Elec       q    Type
REMARK                         _______ _______ _______ _____ _____    ______ ____
ROOT
ATOM      1  C   UNL     1      -0.828   5.406   0.729  0.00  0.00    +0.121 A 
ATOM      2  C   UNL     1       0.327   6.106   0.397  0.00  0.00    +0.046 A 
ATOM      3  C   UNL     1       0.272   7.463   0.174  0.00  0.00    +0.011 A 
ATOM      4  C   UNL     1      -0.948   8.141   0.293  0.00  0.00    -0.024 A 
ATOM      5  C   UNL     1      -2.107   7.432   0.634  0.00  0.00    +0.011 A 
ATOM      6  C   UNL     1      -2.041   6.074   0.849  0.00  0.00    +0.046 A 
ENDROOT
BRANCH   4   7
ATOM      7  C   UNL     1      -1.012   9.589   0.062  0.00  0.00    +0.028 C 
ATOM      8  C   UNL     1      -2.068  10.125  -0.600  0.00  0.00    +0.077 C 
ATOM      9  C   UNL     1      -3.178   9.451  -1.305  0.00  0.00    +0.258 C 
ATOM     10  O   UNL     1      -3.255   8.238  -1.363  0.00  0.00    -0.269 OA
ATOM     11  N   UNL     1      -4.083  10.233  -1.869  0.00  0.00    -0.258 N 
ATOM     12  C   UNL     1      -3.994  11.577  -1.801  0.00  0.00    +0.120 C 
ATOM     13  S   UNL     1      -5.056  12.747  -2.460  0.00  0.00    -0.027 S 
ATOM     14  S   UNL     1      -2.505  11.840  -0.852  0.00  0.00    -0.061 S 
ATOM     15  C   UNL     1      -5.208   9.624  -2.583  0.00  0.00    +0.139 C 
ENDBRANCH   4   7
BRANCH   1  16
ATOM     16  O   UNL     1      -0.769   4.066   0.942  0.00  0.00    -0.487 OA
BRANCH  16  17
ATOM     17  C   UNL     1       0.509   3.443   0.802  0.00  0.00    +0.264 C 
BRANCH  17  24
ATOM     18  C   UNL     1       2.834   1.735   0.641  0.00  0.00    +0.044 C 
ATOM     19  C   UNL     1       1.492   1.149   0.997  0.00  0.00    -0.044 A 
ATOM     20  C   UNL     1       1.374  -0.205   1.247  0.00  0.00    +0.004 A 
ATOM     21  C   UNL     1       0.143  -0.743   1.573  0.00  0.00    +0.000 A 
ATOM     22  C   UNL     1      -0.970   0.074   1.649  0.00  0.00    +0.000 A 
ATOM     23  C   UNL     1      -0.851   1.428   1.400  0.00  0.00    +0.007 A 
ATOM     24  C   UNL     1       0.380   1.966   1.074  0.00  0.00    -0.007 A 
ENDBRANCH  17  24
ENDBRANCH  16  17
ENDBRANCH   1  16
TORSDOF 4
