REMARK  Name = ZINC40688592
REMARK  6 active torsions:
REMARK  status: ('A' for Active; 'I' for Inactive)
REMARK    1  A    between atoms: C_1  and  C_2
REMARK    2  A    between atoms: C_2  and  C_3
REMARK    3  A    between atoms: C_6  and  N_9
REMARK    4  A    between atoms: C_11  and  N_24
REMARK    5  A    between atoms: C_12  and  N_16
REMARK    6  A    between atoms: N_16  and  C_17
REMARK                            x       y       z     vdW  Elec       q    Type
REMARK                         _______ _______ _______ _____ _____    ______ ____
ROOT
ATOM      1  N   UNL     1       2.965  -0.826   4.964  0.00  0.00    -0.298 N 
ATOM      2  C   UNL     1       2.239  -1.193   6.091  0.00  0.00    +0.149 A 
ATOM      3  C   UNL     1       2.858  -1.870   7.144  0.00  0.00    +0.106 A 
ATOM      4  C   UNL     1       2.083  -2.215   8.252  0.00  0.00    +0.149 A 
ATOM      5  N   UNL     1       0.793  -1.887   8.264  0.00  0.00    -0.219 NA
ATOM      6  C   UNL     1       0.247  -1.248   7.249  0.00  0.00    +0.225 A 
ATOM      7  N   UNL     1       0.945  -0.899   6.187  0.00  0.00    -0.219 NA
ATOM      8  H   UNL     1       3.889  -1.107   4.869  0.00  0.00    +0.154 HD
ENDROOT
BRANCH   1  12
ATOM      9  C   UNL     1       1.175   1.480   1.993  0.00  0.00    -0.048 A 
ATOM     10  C   UNL     1       0.846   1.688   3.320  0.00  0.00    +0.005 A 
ATOM     11  C   UNL     1       1.438   0.925   4.308  0.00  0.00    +0.023 A 
ATOM     12  C   UNL     1       2.364  -0.052   3.967  0.00  0.00    +0.032 A 
ATOM     13  C   UNL     1       2.692  -0.259   2.633  0.00  0.00    +0.023 A 
ATOM     14  C   UNL     1       2.093   0.504   1.650  0.00  0.00    +0.005 A 
BRANCH   9  16
ATOM     15  C   UNL     1      -0.757   1.631   0.447  0.00  0.00    +0.009 C 
ATOM     16  C   UNL     1       0.528   2.314   0.918  0.00  0.00    +0.032 C 
ENDBRANCH   9  16
ENDBRANCH   1  12
BRANCH   3  17
ATOM     17  N   UNL     1       4.222  -2.196   7.088  0.00  0.00    -0.353 N 
ATOM     18  H   UNL     1       4.749  -1.950   6.311  0.00  0.00    +0.143 HD
ATOM     19  H   UNL     1       4.639  -2.667   7.827  0.00  0.00    +0.143 HD
ENDBRANCH   3  17
BRANCH   4  20
ATOM     20  N   UNL     1       2.649  -2.891   9.327  0.00  0.00    -0.295 N 
ATOM     21  H   UNL     1       3.569  -3.195   9.279  0.00  0.00    +0.154 HD
BRANCH  20  22
ATOM     22  C   UNL     1       1.893  -3.131  10.479  0.00  0.00    +0.070 A 
ATOM     23  C   UNL     1       0.737  -2.397  10.731  0.00  0.00    +0.028 A 
ATOM     24  C   UNL     1       0.021  -2.673  11.885  0.00  0.00    +0.022 A 
ATOM     25  C   UNL     1       0.473  -3.659  12.742  0.00  0.00    +0.112 A 
ATOM     26  N   UNL     1       1.572  -4.338  12.475  0.00  0.00    -0.242 NA
ATOM     27  C   UNL     1       2.280  -4.112  11.386  0.00  0.00    +0.150 A 
ATOM     28 CL   UNL     1       3.715  -5.043  11.084  0.00  0.00    -0.060 Cl
ENDBRANCH  20  22
ENDBRANCH   4  20
TORSDOF 5
