REMARK  Name = ZINC18988138
REMARK  5 active torsions:
REMARK  status: ('A' for Active; 'I' for Inactive)
REMARK    1  A    between atoms: C_1  and  C_2
REMARK    2  A    between atoms: C_3  and  C_16
REMARK    3  A    between atoms: C_4  and  C_10
REMARK    4  A    between atoms: N_18  and  C_19
REMARK    5  A    between atoms: C_24  and  C_25
REMARK                            x       y       z     vdW  Elec       q    Type
REMARK                         _______ _______ _______ _____ _____    ______ ____
ROOT
ATOM      1  C   UNL     1       0.702   1.432  -0.905  0.00  0.00    +0.061 C 
ATOM      2  C   UNL     1       0.486  -0.005  -0.509  0.00  0.00    +0.019 C 
ATOM      3  C   UNL     1      -0.742  -0.410  -0.122  0.00  0.00    +0.056 C 
ATOM      4  C   UNL     1      -0.916  -1.864   0.268  0.00  0.00    +0.148 C 
ATOM      5  N   UNL     1       0.278  -2.723   0.191  0.00  0.00    -0.288 N 
ATOM      6  C   UNL     1       1.439  -2.172  -0.215  0.00  0.00    +0.304 C 
ATOM      7  O   UNL     1       2.431  -2.872  -0.281  0.00  0.00    -0.252 OA
ATOM      8  N   UNL     1       1.535  -0.880  -0.553  0.00  0.00    -0.273 N 
ATOM      9  H   UNL     1       0.230  -3.662   0.428  0.00  0.00    +0.151 HD
ATOM     10  H   UNL     1       2.399  -0.545  -0.842  0.00  0.00    +0.156 HD
ENDROOT
BRANCH   4  11
ATOM     11  C   UNL     1      -1.974  -2.460  -0.625  0.00  0.00    +0.016 A 
ATOM     12  C   UNL     1      -3.281  -2.697  -0.357  0.00  0.00    +0.014 A 
ATOM     13  C   UNL     1      -4.075  -3.259  -1.339  0.00  0.00    +0.023 A 
ATOM     14  C   UNL     1      -3.522  -3.557  -2.541  0.00  0.00    +0.055 A 
ATOM     15  S   UNL     1      -1.832  -3.032  -2.310  0.00  0.00    -0.084 S 
ATOM     16 BR   UNL     1      -4.333  -4.323  -4.068  0.00  0.00    -0.043 Br
ENDBRANCH   4  11
BRANCH   3  17
ATOM     17  C   UNL     1      -1.831   0.495  -0.081  0.00  0.00    +0.248 C 
ATOM     18  O   UNL     1      -2.175   0.986   0.979  0.00  0.00    -0.270 OA
ATOM     19  N   UNL     1      -2.488   0.811  -1.215  0.00  0.00    -0.281 N 
ATOM     20  H   UNL     1      -2.240   0.389  -2.053  0.00  0.00    +0.155 HD
BRANCH  19  21
ATOM     21  C   UNL     1      -3.525   1.749  -1.184  0.00  0.00    +0.045 A 
ATOM     22  C   UNL     1      -4.237   1.960  -0.011  0.00  0.00    +0.024 A 
ATOM     23  C   UNL     1      -5.261   2.887   0.016  0.00  0.00    +0.002 A 
ATOM     24  C   UNL     1      -5.577   3.604  -1.124  0.00  0.00    +0.001 A 
ATOM     25  C   UNL     1      -4.870   3.396  -2.293  0.00  0.00    +0.014 A 
ATOM     26  C   UNL     1      -3.841   2.475  -2.325  0.00  0.00    +0.076 A 
BRANCH  26  27
ATOM     27  C   UNL     1      -3.066   2.253  -3.599  0.00  0.00    +0.419 C 
ATOM     28  F   UNL     1      -3.497   3.162  -4.571  0.00  0.00    -0.166 F 
ATOM     29  F   UNL     1      -1.702   2.445  -3.354  0.00  0.00    -0.166 F 
ATOM     30  F   UNL     1      -3.279   0.947  -4.053  0.00  0.00    -0.166 F 
ENDBRANCH  26  27
ENDBRANCH  19  21
ENDBRANCH   3  17
TORSDOF 4
