REMARK  Name = ZINC09693164
REMARK  6 active torsions:
REMARK  status: ('A' for Active; 'I' for Inactive)
REMARK    1  A    between atoms: C_1  and  C_2
REMARK    2  A    between atoms: C_2  and  O_3
REMARK    3  A    between atoms: O_3  and  C_4
REMARK    4  A    between atoms: C_9  and  N_10
REMARK    5  A    between atoms: C_16  and  C_24
REMARK    6  A    between atoms: C_18  and  C_22
REMARK                            x       y       z     vdW  Elec       q    Type
REMARK                         _______ _______ _______ _____ _____    ______ ____
ROOT
ATOM      1  N   UNL     1      -2.427   1.039   0.020  0.00  0.00    -0.301 N 
ATOM      2  C   UNL     1      -2.535   0.192  -1.164  0.00  0.00    +0.223 C 
ATOM      3  N   UNL     1      -3.850  -0.429  -1.294  0.00  0.00    -0.248 N 
ATOM      4  C   UNL     1      -4.358  -0.548  -2.546  0.00  0.00    +0.222 C 
ATOM      5  O   UNL     1      -3.729  -0.119  -3.490  0.00  0.00    -0.275 OA
ATOM      6  C   UNL     1      -5.691  -1.204  -2.780  0.00  0.00    +0.110 C 
ATOM      7  C   UNL     1      -5.875  -2.340  -1.768  0.00  0.00    +0.072 C 
ATOM      8  C   UNL     1      -5.564  -1.812  -0.392  0.00  0.00    +0.065 C 
ATOM      9  C   UNL     1      -4.580  -0.881  -0.220  0.00  0.00    +0.087 C 
ATOM     10  S   UNL     1      -4.301  -0.250   1.405  0.00  0.00    -0.090 S 
ATOM     11  C   UNL     1      -2.563   0.239   1.248  0.00  0.00    +0.182 C 
ENDROOT
BRANCH   7  12
ATOM     12  C   UNL     1      -4.939  -3.472  -2.104  0.00  0.00    -0.020 A 
ATOM     13  C   UNL     1      -3.574  -3.258  -2.124  0.00  0.00    +0.006 A 
ATOM     14  C   UNL     1      -2.715  -4.297  -2.427  0.00  0.00    +0.000 A 
ATOM     15  C   UNL     1      -3.221  -5.550  -2.720  0.00  0.00    +0.001 A 
ATOM     16  C   UNL     1      -4.586  -5.765  -2.705  0.00  0.00    +0.020 A 
ATOM     17  C   UNL     1      -5.446  -4.725  -2.397  0.00  0.00    +0.045 A 
ATOM     18 CL   UNL     1      -7.161  -4.994  -2.379  0.00  0.00    -0.083 Cl
ENDBRANCH   7  12
BRANCH   1  24
ATOM     19  C   UNL     1      -1.237   3.146   0.030  0.00  0.00    +0.141 A 
ATOM     20  C   UNL     1      -0.043   3.848   0.022  0.00  0.00    +0.047 A 
ATOM     21  C   UNL     1       1.160   3.166   0.007  0.00  0.00    +0.004 A 
ATOM     22  C   UNL     1       1.175   1.783   0.000  0.00  0.00    +0.002 A 
ATOM     23  C   UNL     1      -0.013   1.076   0.008  0.00  0.00    +0.027 A 
ATOM     24  C   UNL     1      -1.223   1.753   0.017  0.00  0.00    +0.074 A 
BRANCH  19  25
ATOM     25  O   UNL     1      -2.421   3.816   0.044  0.00  0.00    -0.490 OA
BRANCH  25  27
ATOM     26  C   UNL     1      -3.778   5.816   0.065  0.00  0.00    +0.048 C 
ATOM     27  C   UNL     1      -2.359   5.244   0.050  0.00  0.00    +0.226 C 
ENDBRANCH  25  27
ENDBRANCH  19  25
ENDBRANCH   1  24
BRANCH   8  28
ATOM     28  C   UNL     1      -6.302  -2.288   0.739  0.00  0.00    +0.098 C 
ATOM     29  N   UNL     1      -6.888  -2.666   1.637  0.00  0.00    -0.191 NA
ENDBRANCH   8  28
TORSDOF 5
