REMARK  Name = ZINC35484751
REMARK  14 active torsions:
REMARK  status: ('A' for Active; 'I' for Inactive)
REMARK    1  A    between atoms: C_1  and  C_2
REMARK    2  A    between atoms: C_2  and  C_3
REMARK    3  A    between atoms: C_3  and  C_4
REMARK    4  A    between atoms: C_4  and  O_5
REMARK    5  A    between atoms: O_5  and  C_6
REMARK    6  A    between atoms: C_10  and  C_12
REMARK    7  A    between atoms: C_14  and  C_15
REMARK    8  A    between atoms: C_15  and  C_16
REMARK    9  A    between atoms: C_17  and  C_26
REMARK   10  A    between atoms: C_22  and  C_25
REMARK   11  A    between atoms: N_32  and  C_33
REMARK   12  A    between atoms: C_33  and  C_34
REMARK   13  A    between atoms: C_34  and  C_35
REMARK   14  A    between atoms: C_35  and  N_36
REMARK                            x       y       z     vdW  Elec       q    Type
REMARK                         _______ _______ _______ _____ _____    ______ ____
ROOT
ATOM      1  C   UNL     1      -5.716  -6.448   0.002  0.00  0.00    +0.145 C 
ATOM      2  C   UNL     1      -6.371  -6.698  -1.336  0.00  0.00    +0.078 C 
ATOM      3  C   UNL     1      -7.049  -7.864  -1.227  0.00  0.00    +0.249 C 
ATOM      4  O   UNL     1      -7.774  -8.445  -2.211  0.00  0.00    -0.282 OA
ATOM      5  C   UNL     1      -6.871  -8.403   0.137  0.00  0.00    +0.288 C 
ATOM      6  O   UNL     1      -7.357  -9.439   0.546  0.00  0.00    -0.266 OA
ATOM      7  N   UNL     1      -6.092  -7.578   0.860  0.00  0.00    -0.283 N 
ENDROOT
BRANCH   1  12
ATOM      8  C   UNL     1      -2.189  -5.125  -0.292  0.00  0.00    +0.121 A 
ATOM      9  C   UNL     1      -1.467  -6.300  -0.447  0.00  0.00    +0.045 A 
ATOM     10  C   UNL     1      -2.123  -7.516  -0.454  0.00  0.00    +0.004 A 
ATOM     11  C   UNL     1      -3.497  -7.562  -0.309  0.00  0.00    +0.006 A 
ATOM     12  C   UNL     1      -4.218  -6.393  -0.155  0.00  0.00    -0.019 A 
ATOM     13  C   UNL     1      -3.567  -5.175  -0.141  0.00  0.00    +0.051 A 
BRANCH   8  14
ATOM     14  O   UNL     1      -1.546  -3.928  -0.284  0.00  0.00    -0.492 OA
BRANCH  14  15
ATOM     15  C   UNL     1      -0.126  -3.952  -0.445  0.00  0.00    +0.229 C 
BRANCH  15  16
ATOM     16  C   UNL     1       0.416  -2.522  -0.409  0.00  0.00    +0.041 C 
BRANCH  16  18
ATOM     17  C   UNL     1       2.478  -1.118  -0.546  0.00  0.00    +0.004 C 
ATOM     18  C   UNL     1       1.936  -2.549  -0.582  0.00  0.00    -0.000 C 
ENDBRANCH  16  18
ENDBRANCH  15  16
ENDBRANCH  14  15
ENDBRANCH   8  14
ENDBRANCH   1  12
BRANCH   2  19
ATOM     19  C   UNL     1      -6.287  -5.843  -2.524  0.00  0.00    +0.215 C 
ATOM     20  O   UNL     1      -5.781  -4.739  -2.445  0.00  0.00    -0.285 OA
BRANCH  19  21
ATOM     21  C   UNL     1      -6.817  -6.321  -3.816  0.00  0.00    +0.133 A 
ATOM     22  C   UNL     1      -6.910  -5.583  -4.976  0.00  0.00    +0.051 A 
ATOM     23  N   UNL     1      -7.450  -6.400  -5.923  0.00  0.00    -0.303 N 
ATOM     24  C   UNL     1      -7.764  -6.200  -7.238  0.00  0.00    +0.093 A 
ATOM     25  C   UNL     1      -8.301  -7.193  -7.975  0.00  0.00    +0.018 A 
ATOM     26  C   UNL     1      -8.547  -8.451  -7.400  0.00  0.00    +0.008 A 
ATOM     27  C   UNL     1      -8.241  -8.667  -6.093  0.00  0.00    -0.008 A 
ATOM     28  C   UNL     1      -7.678  -7.619  -5.332  0.00  0.00    +0.141 A 
ATOM     29  N   UNL     1      -7.288  -7.555  -4.070  0.00  0.00    -0.224 NA
ATOM     30  C   UNL     1      -8.498 -10.011  -5.463  0.00  0.00    +0.047 C 
ATOM     31  C   UNL     1      -6.495  -4.147  -5.162  0.00  0.00    +0.066 C 
ENDBRANCH  19  21
ENDBRANCH   2  19
BRANCH   7  32
ATOM     32  C   UNL     1      -5.690  -7.773   2.255  0.00  0.00    +0.111 C 
BRANCH  32  33
ATOM     33  C   UNL     1      -6.720  -7.119   3.179  0.00  0.00    +0.040 C 
BRANCH  33  34
ATOM     34  C   UNL     1      -6.301  -7.323   4.636  0.00  0.00    +0.124 C 
BRANCH  34  35
ATOM     35  N   UNL     1      -7.287  -6.697   5.520  0.00  0.00    -0.338 N 
ATOM     36  C   UNL     1      -7.267  -5.406   5.973  0.00  0.00    +0.104 A 
ATOM     37  C   UNL     1      -8.354  -5.250   6.754  0.00  0.00    +0.101 A 
ATOM     38  N   UNL     1      -9.018  -6.415   6.776  0.00  0.00    -0.352 N 
ATOM     39  C   UNL     1      -8.388  -7.285   6.035  0.00  0.00    +0.173 A 
ATOM     40  H   UNL     1      -9.840  -6.583   7.263  0.00  0.00    +0.166 HD
ENDBRANCH  34  35
ENDBRANCH  33  34
ENDBRANCH  32  33
ENDBRANCH   7  32
TORSDOF 11
