REMARK  Name = ZINC10137710
REMARK  13 active torsions:
REMARK  status: ('A' for Active; 'I' for Inactive)
REMARK    1  A    between atoms: C_1  and  C_2
REMARK    2  A    between atoms: C_2  and  C_3
REMARK    3  A    between atoms: C_3  and  C_5
REMARK    4  A    between atoms: C_3  and  C_6
REMARK    5  A    between atoms: C_9  and  C_12
REMARK    6  A    between atoms: C_12  and  C_14
REMARK    7  A    between atoms: C_12  and  N_19
REMARK    8  A    between atoms: C_20  and  C_22
REMARK    9  A    between atoms: C_24  and  O_34
REMARK   10  A    between atoms: C_25  and  O_29
REMARK   11  A    between atoms: O_29  and  C_30
REMARK   12  A    between atoms: C_30  and  C_31
REMARK   13  A    between atoms: O_34  and  C_35
REMARK                            x       y       z     vdW  Elec       q    Type
REMARK                         _______ _______ _______ _____ _____    ______ ____
ROOT
ATOM      1  N   UNL     1       1.115  -1.103   6.713  0.00  0.00    -0.300 N 
ATOM      2  C   UNL     1       1.514   0.040   6.120  0.00  0.00    +0.245 C 
ATOM      3  O   UNL     1       2.348   0.743   6.656  0.00  0.00    -0.270 OA
ATOM      4  H   UNL     1       0.449  -1.665   6.285  0.00  0.00    +0.150 HD
ENDROOT
BRANCH   2   5
ATOM      5  C   UNL     1       0.937   0.438   4.821  0.00  0.00    +0.042 A 
ATOM      6  C   UNL     1       1.349   1.623   4.206  0.00  0.00    +0.062 A 
ATOM      7  C   UNL     1       0.808   1.992   2.990  0.00  0.00    +0.164 A 
ATOM      8  C   UNL     1      -0.149   1.182   2.379  0.00  0.00    +0.181 A 
ATOM      9  C   UNL     1      -0.563   0.007   2.993  0.00  0.00    +0.087 A 
ATOM     10  C   UNL     1      -0.021  -0.369   4.204  0.00  0.00    +0.037 A 
ATOM     11 CL   UNL     1      -1.760  -0.993   2.231  0.00  0.00    -0.080 Cl
BRANCH   7  12
ATOM     12  O   UNL     1       1.207   3.144   2.389  0.00  0.00    -0.491 OA
ATOM     13  C   UNL     1       2.191   3.925   3.071  0.00  0.00    +0.277 C 
ENDBRANCH   7  12
BRANCH   8  14
ATOM     14  O   UNL     1      -0.682   1.547   1.184  0.00  0.00    -0.478 OA
BRANCH  14  15
ATOM     15  C   UNL     1      -0.013   1.086   0.008  0.00  0.00    +0.324 C 
BRANCH  15  16
ATOM     16  C   UNL     1      -0.742   1.585  -1.213  0.00  0.00    +0.248 C 
ATOM     17  O   UNL     1      -1.736   2.268  -1.088  0.00  0.00    -0.272 OA
ATOM     18  N   UNL     1      -0.288   1.272  -2.443  0.00  0.00    -0.327 N 
ATOM     19  H   UNL     1       0.507   0.726  -2.543  0.00  0.00    +0.145 HD
ATOM     20  H   UNL     1      -0.758   1.594  -3.229  0.00  0.00    +0.145 HD
ENDBRANCH  15  16
ENDBRANCH  14  15
ENDBRANCH   8  14
ENDBRANCH   2   5
BRANCH   1  21
ATOM     21  C   UNL     1       1.687  -1.499   8.002  0.00  0.00    +0.140 C 
BRANCH  21  25
ATOM     22  C   UNL     1       1.407  -5.738   8.445  0.00  0.00    -0.045 A 
ATOM     23  C   UNL     1       2.544  -5.073   8.865  0.00  0.00    +0.004 A 
ATOM     24  C   UNL     1       2.635  -3.701   8.721  0.00  0.00    +0.006 A 
ATOM     25  C   UNL     1       1.589  -2.994   8.158  0.00  0.00    -0.022 A 
ATOM     26  C   UNL     1       0.450  -3.659   7.743  0.00  0.00    +0.006 A 
ATOM     27  C   UNL     1       0.361  -5.031   7.882  0.00  0.00    +0.004 A 
BRANCH  22  28
ATOM     28  C   UNL     1       1.308  -7.234   8.602  0.00  0.00    +0.016 C 
ATOM     29  C   UNL     1       1.124  -7.880   7.228  0.00  0.00    +0.012 C 
BRANCH  28  31
ATOM     30  C   UNL     1       0.082  -9.082   9.752  0.00  0.00    +0.004 C 
ATOM     31  C   UNL     1       0.110  -7.575   9.491  0.00  0.00    +0.004 C 
ENDBRANCH  28  31
ENDBRANCH  22  28
ENDBRANCH  21  25
BRANCH  21  32
ATOM     32  C   UNL     1       0.927  -0.826   9.116  0.00  0.00    +0.014 A 
ATOM     33  C   UNL     1       1.400  -0.277  10.262  0.00  0.00    +0.013 A 
ATOM     34  C   UNL     1       0.507   0.292  11.150  0.00  0.00    +0.008 A 
ATOM     35  C   UNL     1      -0.814   0.286  10.849  0.00  0.00    +0.045 A 
ATOM     36  S   UNL     1      -0.828  -0.538   9.266  0.00  0.00    -0.099 S 
ENDBRANCH  21  32
ENDBRANCH   1  21
TORSDOF 10
