REMARK  Name = ZINC05898225
REMARK  13 active torsions:
REMARK  status: ('A' for Active; 'I' for Inactive)
REMARK    1  A    between atoms: C_1  and  C_2
REMARK    2  A    between atoms: C_2  and  C_3
REMARK    3  A    between atoms: C_3  and  N_4
REMARK    4  A    between atoms: C_8  and  C_9
REMARK    5  A    between atoms: C_11  and  C_20
REMARK    6  A    between atoms: C_12  and  O_19
REMARK    7  A    between atoms: C_13  and  C_15
REMARK    8  A    between atoms: C_15  and  C_16
REMARK    9  A    between atoms: C_15  and  C_17
REMARK   10  A    between atoms: C_15  and  C_18
REMARK   11  A    between atoms: C_20  and  C_21
REMARK   12  A    between atoms: C_20  and  C_22
REMARK   13  A    between atoms: C_20  and  C_23
REMARK                            x       y       z     vdW  Elec       q    Type
REMARK                         _______ _______ _______ _____ _____    ______ ____
ROOT
ATOM      1  C   UNL     1       0.745   4.138  -0.081  0.00  0.00    -0.022 A 
ATOM      2  C   UNL     1      -0.619   3.822  -0.067  0.00  0.00    +0.015 A 
ATOM      3  C   UNL     1      -1.556   4.828  -0.139  0.00  0.00    +0.000 A 
ATOM      4  C   UNL     1      -1.151   6.154  -0.236  0.00  0.00    +0.124 A 
ATOM      5  C   UNL     1       0.202   6.473  -0.256  0.00  0.00    +0.000 A 
ATOM      6  C   UNL     1       1.148   5.476  -0.179  0.00  0.00    +0.015 A 
ENDROOT
BRANCH   1  11
ATOM      7  N   UNL     1       1.520  -0.263   1.267  0.00  0.00    -0.248 N 
ATOM      8  C   UNL     1       2.243   0.654   0.594  0.00  0.00    +0.266 C 
ATOM      9  O   UNL     1       3.346   0.499   0.103  0.00  0.00    -0.268 OA
ATOM     10  C   UNL     1       1.431   1.881   0.570  0.00  0.00    +0.096 C 
ATOM     11  C   UNL     1       1.750   3.070   0.001  0.00  0.00    +0.036 C 
ATOM     12  N   UNL     1       0.256   1.556   1.261  0.00  0.00    -0.292 N 
ATOM     13  C   UNL     1       0.353   0.274   1.656  0.00  0.00    +0.144 C 
ATOM     14  S   UNL     1      -0.852  -0.561   2.539  0.00  0.00    -0.018 S 
ATOM     15  H   UNL     1      -0.533   2.311   1.389  0.00  0.00    +0.154 HD
BRANCH   7  16
ATOM     16  C   UNL     1       1.943  -1.640   1.533  0.00  0.00    +0.115 C 
BRANCH  16  18
ATOM     17  C   UNL     1       1.924  -3.983   0.668  0.00  0.00    +0.005 C 
ATOM     18  C   UNL     1       1.481  -2.546   0.390  0.00  0.00    +0.016 C 
ENDBRANCH  16  18
ENDBRANCH   7  16
ENDBRANCH   1  11
BRANCH   5  19
ATOM     19  C   UNL     1       0.633   7.913  -0.362  0.00  0.00    -0.009 C 
ATOM     20  C   UNL     1       2.162   7.989  -0.362  0.00  0.00    +0.015 C 
ATOM     21  C   UNL     1       0.093   8.514  -1.661  0.00  0.00    +0.015 C 
ATOM     22  C   UNL     1       0.084   8.699   0.831  0.00  0.00    +0.015 C 
ENDBRANCH   5  19
BRANCH   3  23
ATOM     23  C   UNL     1      -3.025   4.490  -0.119  0.00  0.00    -0.009 C 
ATOM     24  C   UNL     1      -3.198   2.974  -0.007  0.00  0.00    +0.015 C 
ATOM     25  C   UNL     1      -3.688   5.169   1.081  0.00  0.00    +0.015 C 
ATOM     26  C   UNL     1      -3.680   4.984  -1.411  0.00  0.00    +0.015 C 
ENDBRANCH   3  23
BRANCH   4  27
ATOM     27  O   UNL     1      -2.080   7.141  -0.312  0.00  0.00    -0.506 OA
ATOM     28  H   UNL     1      -1.762   8.191  -0.389  0.00  0.00    +0.292 HD
ENDBRANCH   4  27
TORSDOF 6
