REMARK  Name = ZINC00622925
REMARK  11 active torsions:
REMARK  status: ('A' for Active; 'I' for Inactive)
REMARK    1  A    between atoms: C_1  and  C_2
REMARK    2  A    between atoms: C_2  and  C_3
REMARK    3  A    between atoms: C_3  and  C_4
REMARK    4  A    between atoms: C_11  and  N_35
REMARK    5  A    between atoms: C_12  and  C_33
REMARK    6  A    between atoms: C_13  and  C_15
REMARK    7  A    between atoms: C_19  and  O_31
REMARK    8  A    between atoms: C_20  and  O_21
REMARK    9  A    between atoms: O_21  and  C_22
REMARK   10  A    between atoms: C_22  and  C_23
REMARK   11  A    between atoms: O_31  and  C_32
REMARK                            x       y       z     vdW  Elec       q    Type
REMARK                         _______ _______ _______ _____ _____    ______ ____
ROOT
ATOM      1  C   UNL     1       0.173   4.163   1.316  0.00  0.00    +0.071 A 
ATOM      2  C   UNL     1       0.460   2.924   0.759  0.00  0.00    +0.050 A 
ATOM      3  C   UNL     1      -0.700   2.201   0.714  0.00  0.00    +0.222 A 
ATOM      4  N   UNL     1      -1.677   2.969   1.224  0.00  0.00    -0.246 N 
ATOM      5  H   UNL     1      -2.638   2.712   1.319  0.00  0.00    +0.192 HD
ATOM      6  N   UNL     1      -1.108   4.195   1.600  0.00  0.00    -0.176 NA
ATOM      7  O   UNL     1      -0.758   0.940   0.219  0.00  0.00    -0.423 OA
ATOM      8  C   UNL     1       0.302   0.497  -0.488  0.00  0.00    +0.200 C 
ATOM      9  C   UNL     1       1.503   1.117  -0.512  0.00  0.00    +0.098 C 
ATOM     10  C   UNL     1       1.776   2.381   0.265  0.00  0.00    +0.105 C 
ENDROOT
BRANCH  10  11
ATOM     11  C   UNL     1       2.671   2.075   1.437  0.00  0.00    +0.011 A 
ATOM     12  C   UNL     1       2.131   1.576   2.608  0.00  0.00    +0.008 A 
ATOM     13  C   UNL     1       2.950   1.288   3.683  0.00  0.00    +0.004 A 
ATOM     14  C   UNL     1       4.313   1.508   3.597  0.00  0.00    +0.049 A 
ATOM     15  C   UNL     1       4.860   2.013   2.428  0.00  0.00    +0.162 A 
ATOM     16  C   UNL     1       4.035   2.297   1.343  0.00  0.00    +0.166 A 
BRANCH  15  17
ATOM     17  O   UNL     1       6.200   2.229   2.341  0.00  0.00    -0.491 OA
ATOM     18  C   UNL     1       6.984   1.914   3.493  0.00  0.00    +0.277 C 
ENDBRANCH  15  17
BRANCH  16  19
ATOM     19  O   UNL     1       4.568   2.792   0.194  0.00  0.00    -0.483 OA
BRANCH  19  20
ATOM     20  C   UNL     1       4.574   4.213   0.041  0.00  0.00    +0.269 C 
BRANCH  20  21
ATOM     21  C   UNL     1       5.329   4.580  -1.210  0.00  0.00    +0.043 A 
ATOM     22  C   UNL     1       6.662   4.947  -1.131  0.00  0.00    +0.131 A 
ATOM     23  C   UNL     1       7.357   5.279  -2.282  0.00  0.00    +0.039 A 
ATOM     24  C   UNL     1       6.717   5.255  -3.507  0.00  0.00    +0.004 A 
ATOM     25  C   UNL     1       5.385   4.895  -3.584  0.00  0.00    +0.020 A 
ATOM     26  C   UNL     1       4.690   4.558  -2.436  0.00  0.00    +0.050 A 
ATOM     27 CL   UNL     1       3.017   4.106  -2.534  0.00  0.00    -0.083 Cl
ATOM     28  F   UNL     1       7.286   4.975   0.067  0.00  0.00    -0.205 F 
ENDBRANCH  20  21
ENDBRANCH  19  20
ENDBRANCH  16  19
ENDBRANCH  10  11
BRANCH   8  29
ATOM     29  N   UNL     1       0.153  -0.651  -1.225  0.00  0.00    -0.328 N 
ATOM     30  H   UNL     1      -0.696  -1.119  -1.228  0.00  0.00    +0.145 HD
ATOM     31  H   UNL     1       0.898  -0.994  -1.744  0.00  0.00    +0.145 HD
ENDBRANCH   8  29
BRANCH   9  32
ATOM     32  C   UNL     1       2.554   0.554  -1.304  0.00  0.00    +0.101 C 
ATOM     33  N   UNL     1       3.388   0.107  -1.933  0.00  0.00    -0.191 NA
ENDBRANCH   9  32
BRANCH   1  34
ATOM     34  C   UNL     1       1.160   5.277   1.552  0.00  0.00    +0.057 C 
BRANCH  34  36
ATOM     35  C   UNL     1       2.233   7.296   0.545  0.00  0.00    +0.004 C 
ATOM     36  C   UNL     1       1.165   6.218   0.346  0.00  0.00    +0.003 C 
ENDBRANCH  34  36
ENDBRANCH   1  34
TORSDOF 9
