REMARK  Name = ZINC09581361
REMARK  10 active torsions:
REMARK  status: ('A' for Active; 'I' for Inactive)
REMARK    1  A    between atoms: C_1  and  C_2
REMARK    2  A    between atoms: C_2  and  O_3
REMARK    3  A    between atoms: O_3  and  C_4
REMARK    4  A    between atoms: C_4  and  C_6
REMARK    5  A    between atoms: C_6  and  C_7
REMARK    6  A    between atoms: C_7  and  N_8
REMARK    7  A    between atoms: C_12  and  S_26
REMARK    8  A    between atoms: N_17  and  C_18
REMARK    9  A    between atoms: C_18  and  C_20
REMARK   10  A    between atoms: S_26  and  N_29
REMARK                            x       y       z     vdW  Elec       q    Type
REMARK                         _______ _______ _______ _____ _____    ______ ____
ROOT
ATOM      1  N   UNL     1       1.314   3.366   0.008  0.00  0.00    -0.321 N 
ATOM      2  C   UNL     1       2.594   3.890  -0.002  0.00  0.00    +0.058 A 
ATOM      3  C   UNL     1       2.965   5.246   0.002  0.00  0.00    +0.029 A 
ATOM      4  C   UNL     1       4.288   5.616  -0.008  0.00  0.00    +0.030 A 
ATOM      5  C   UNL     1       5.299   4.670  -0.022  0.00  0.00    +0.106 A 
ATOM      6  C   UNL     1       4.965   3.327  -0.026  0.00  0.00    +0.045 A 
ATOM      7  C   UNL     1       3.641   2.956  -0.016  0.00  0.00    +0.041 A 
ATOM      8  S   UNL     1       2.797   1.393  -0.009  0.00  0.00    -0.052 S 
ATOM      9  C   UNL     1       1.124   2.015   0.002  0.00  0.00    +0.167 A 
ATOM     10  N   UNL     1      -0.016   1.336   0.009  0.00  0.00    -0.152 NA
ENDROOT
BRANCH   5  11
ATOM     11  S   UNL     1       6.988   5.169  -0.035  0.00  0.00    +0.056 S 
ATOM     12  O   UNL     1       7.726   4.092  -0.598  0.00  0.00    -0.153 OA
ATOM     13  O   UNL     1       7.020   6.481  -0.579  0.00  0.00    -0.153 OA
BRANCH  11  14
ATOM     14  N   UNL     1       7.473   5.300   1.544  0.00  0.00    -0.204 NA
ATOM     15  H   UNL     1       6.847   5.109   2.260  0.00  0.00    +0.144 HD
ATOM     16  H   UNL     1       8.382   5.566   1.752  0.00  0.00    +0.144 HD
ENDBRANCH  11  14
ENDBRANCH   5  11
BRANCH  10  17
ATOM     17  C   UNL     1       0.002  -0.004   0.002  0.00  0.00    +0.276 C 
ATOM     18  O   UNL     1       1.067  -0.600  -0.011  0.00  0.00    -0.267 OA
BRANCH  17  19
ATOM     19  C   UNL     1      -1.260  -0.756   0.010  0.00  0.00    +0.077 A 
ATOM     20  C   UNL     1      -1.460  -2.126  -0.001  0.00  0.00    +0.022 A 
ATOM     21  C   UNL     1      -2.760  -2.570   0.015  0.00  0.00    +0.028 A 
ATOM     22  C   UNL     1      -3.770  -1.660   0.029  0.00  0.00    +0.079 A 
ATOM     23  S   UNL     1      -2.935  -0.141   0.029  0.00  0.00    -0.072 S 
ATOM     24 CL   UNL     1      -5.482  -1.950   0.043  0.00  0.00    -0.076 Cl
ENDBRANCH  17  19
ENDBRANCH  10  17
BRANCH   1  25
ATOM     25  C   UNL     1       0.158   4.265   0.023  0.00  0.00    +0.135 C 
BRANCH  25  26
ATOM     26  C   UNL     1      -0.231   4.571   1.470  0.00  0.00    +0.142 C 
BRANCH  26  27
ATOM     27  C   UNL     1      -1.421   5.496   1.486  0.00  0.00    +0.309 C 
ATOM     28  O   UNL     1      -1.907   5.872   0.446  0.00  0.00    -0.251 OA
BRANCH  27  29
ATOM     29  O   UNL     1      -1.940   5.903   2.655  0.00  0.00    -0.465 OA
BRANCH  29  31
ATOM     30  C   UNL     1      -3.533   7.146   4.014  0.00  0.00    +0.048 C 
ATOM     31  C   UNL     1      -3.085   6.793   2.594  0.00  0.00    +0.229 C 
ENDBRANCH  29  31
ENDBRANCH  27  29
ENDBRANCH  26  27
ENDBRANCH  25  26
ENDBRANCH   1  25
TORSDOF 9
