REMARK  Name = ZINC08964543
REMARK  9 active torsions:
REMARK  status: ('A' for Active; 'I' for Inactive)
REMARK    1  A    between atoms: C_1  and  C_2
REMARK    2  A    between atoms: C_8  and  C_9
REMARK    3  A    between atoms: C_8  and  N_70
REMARK    4  A    between atoms: C_10  and  O_35
REMARK    5  A    between atoms: C_11  and  C_27
REMARK    6  A    between atoms: C_14  and  O_15
REMARK    7  A    between atoms: C_19  and  C_21
REMARK    8  A    between atoms: C_27  and  N_72
REMARK    9  A    between atoms: C_32  and  C_34
REMARK                            x       y       z     vdW  Elec       q    Type
REMARK                         _______ _______ _______ _____ _____    ______ ____
ROOT
ATOM      1  C   UNL     1       0.442  -0.072  -3.645  0.00  0.00    +0.020 A 
ATOM      2  C   UNL     1       1.505   0.624  -4.210  0.00  0.00    +0.127 A 
ATOM      3  C   UNL     1       2.084   0.191  -5.393  0.00  0.00    +0.021 A 
ATOM      4  C   UNL     1       1.597  -0.940  -6.030  0.00  0.00    +0.148 A 
ATOM      5  C   UNL     1       0.519  -1.642  -5.464  0.00  0.00    +0.106 A 
ATOM      6  C   UNL     1      -0.057  -1.202  -4.266  0.00  0.00    +0.136 A 
ATOM      7  C   UNL     1       0.019  -2.840  -6.159  0.00  0.00    +0.197 A 
ATOM      8  O   UNL     1      -0.914  -3.488  -5.713  0.00  0.00    -0.287 OA
ATOM      9  C   UNL     1       0.663  -3.210  -7.365  0.00  0.00    +0.098 A 
ATOM     10  C   UNL     1       1.698  -2.462  -7.828  0.00  0.00    +0.139 A 
ATOM     11  O   UNL     1       2.146  -1.372  -7.186  0.00  0.00    -0.454 OA
ENDROOT
BRANCH  10  12
ATOM     12  C   UNL     1       2.357  -2.865  -9.087  0.00  0.00    +0.017 A 
ATOM     13  C   UNL     1       1.919  -3.998  -9.777  0.00  0.00    +0.011 A 
ATOM     14  C   UNL     1       2.536  -4.364 -10.955  0.00  0.00    +0.001 A 
ATOM     15  C   UNL     1       3.592  -3.619 -11.448  0.00  0.00    +0.000 A 
ATOM     16  C   UNL     1       4.035  -2.499 -10.767  0.00  0.00    +0.001 A 
ATOM     17  C   UNL     1       3.424  -2.117  -9.591  0.00  0.00    +0.011 A 
ENDBRANCH  10  12
BRANCH   6  18
ATOM     18  O   UNL     1      -1.098  -1.879  -3.718  0.00  0.00    -0.506 OA
ATOM     19  H   UNL     1      -1.966  -1.575  -4.016  0.00  0.00    +0.292 HD
ENDBRANCH   6  18
BRANCH   2  20
ATOM     20  O   UNL     1       1.984   1.735  -3.595  0.00  0.00    -0.506 OA
ATOM     21  H   UNL     1       2.692   1.559  -2.960  0.00  0.00    +0.292 HD
ENDBRANCH   2  20
BRANCH   1  22
ATOM     22  C   UNL     1      -0.171   0.410  -2.355  0.00  0.00    -0.035 C 
BRANCH  22  29
ATOM     23  C   UNL     1       0.398   1.933  -0.059  0.00  0.00    -0.013 C 
ATOM     24  C   UNL     1       0.146   0.428   0.045  0.00  0.00    -0.071 C 
ATOM     25  C   UNL     1       0.988  -0.153   1.183  0.00  0.00    -0.016 C 
ATOM     26  C   UNL     1       0.747  -1.663   1.270  0.00  0.00    -0.003 C 
ATOM     27  C   UNL     1       1.095  -2.306  -0.076  0.00  0.00    -0.019 C 
ATOM     28  C   UNL     1       0.250  -1.662  -1.177  0.00  0.00    -0.078 C 
ATOM     29  N   UNL     1       0.546  -0.214  -1.225  0.00  0.00    +0.384 N 
ATOM     30  H   UNL     1       1.556  -0.086  -1.359  0.00  0.00    -0.081 HD
ENDBRANCH  22  29
ENDBRANCH   1  22
BRANCH   3  31
ATOM     31  C   UNL     1       3.239   0.953  -5.989  0.00  0.00    -0.035 C 
BRANCH  31  38
ATOM     32  C   UNL     1       1.957   2.999  -6.164  0.00  0.00    -0.078 C 
ATOM     33  C   UNL     1       1.319   3.975  -7.155  0.00  0.00    -0.019 C 
ATOM     34  C   UNL     1       2.418   4.645  -7.984  0.00  0.00    -0.003 C 
ATOM     35  C   UNL     1       3.235   3.566  -8.700  0.00  0.00    -0.016 C 
ATOM     36  C   UNL     1       3.818   2.602  -7.665  0.00  0.00    -0.071 C 
ATOM     37  C   UNL     1       4.618   1.511  -8.378  0.00  0.00    -0.013 C 
ATOM     38  N   UNL     1       2.708   1.972  -6.917  0.00  0.00    +0.384 N 
ATOM     39  H   UNL     1       2.073   1.518  -7.584  0.00  0.00    -0.081 HD
ENDBRANCH  31  38
ENDBRANCH   3  31
TORSDOF 7
