REMARK  Name = ZINC41169993
REMARK  7 active torsions:
REMARK  status: ('A' for Active; 'I' for Inactive)
REMARK    1  A    between atoms: C_1  and  C_2
REMARK    2  A    between atoms: C_9  and  C_14
REMARK    3  A    between atoms: C_14  and  C_15
REMARK    4  A    between atoms: C_15  and  N_16
REMARK    5  A    between atoms: N_16  and  S_17
REMARK    6  A    between atoms: S_17  and  C_20
REMARK    7  A    between atoms: C_23  and  C_27
REMARK                            x       y       z     vdW  Elec       q    Type
REMARK                         _______ _______ _______ _____ _____    ______ ____
ROOT
ATOM      1  C   UNL     1       0.089  -5.020   3.624  0.00  0.00    +0.057 C 
ENDROOT
BRANCH   1  10
ATOM      2  C   UNL     1      -0.018   1.503   0.010  0.00  0.00    +0.044 C 
ATOM      3  C   UNL     1       0.002  -0.004   0.002  0.00  0.00    -0.050 A 
ATOM      4  C   UNL     1       0.006  -0.685  -1.208  0.00  0.00    +0.005 A 
ATOM      5  C   UNL     1       0.024  -2.063  -1.239  0.00  0.00    +0.026 A 
ATOM      6  C   UNL     1       0.040  -2.780  -0.047  0.00  0.00    +0.049 A 
ATOM      7  C   UNL     1       0.037  -2.086   1.177  0.00  0.00    -0.001 A 
ATOM      8  C   UNL     1       0.023  -0.687   1.185  0.00  0.00    +0.013 A 
ATOM      9  C   UNL     1       0.053  -2.850   2.426  0.00  0.00    +0.019 A 
ATOM     10  C   UNL     1       0.072  -4.204   2.357  0.00  0.00    +0.019 A 
ATOM     11  C   UNL     1       0.074  -4.852   1.103  0.00  0.00    +0.252 A 
ATOM     12  O   UNL     1       0.091  -6.070   1.064  0.00  0.00    -0.268 OA
ATOM     13  N   UNL     1       0.059  -4.159  -0.049  0.00  0.00    -0.322 N 
ATOM     14  H   UNL     1       0.061  -4.636  -0.893  0.00  0.00    +0.169 HD
ENDBRANCH   1  10
BRANCH   1  15
ATOM     15  C   UNL     1      -1.341  -5.421   3.992  0.00  0.00    +0.110 C 
BRANCH  15  16
ATOM     16  N   UNL     1      -1.324  -6.215   5.223  0.00  0.00    -0.190 NA
ATOM     17  H   UNL     1      -0.489  -6.589   5.548  0.00  0.00    +0.148 HD
BRANCH  16  18
ATOM     18  S   UNL     1      -2.728  -6.473   6.061  0.00  0.00    +0.058 S 
ATOM     19  O   UNL     1      -2.392  -7.288   7.176  0.00  0.00    -0.153 OA
ATOM     20  O   UNL     1      -3.354  -5.206   6.205  0.00  0.00    -0.153 OA
BRANCH  18  21
ATOM     21  C   UNL     1      -3.780  -7.440   5.030  0.00  0.00    +0.107 A 
ATOM     22  C   UNL     1      -4.651  -6.818   4.155  0.00  0.00    +0.029 A 
ATOM     23  C   UNL     1      -5.476  -7.576   3.345  0.00  0.00    +0.007 A 
ATOM     24  C   UNL     1      -5.432  -8.956   3.411  0.00  0.00    -0.032 A 
ATOM     25  C   UNL     1      -4.560  -9.579   4.286  0.00  0.00    +0.046 A 
ATOM     26  C   UNL     1      -3.730  -8.820   5.092  0.00  0.00    +0.048 A 
ATOM     27 CL   UNL     1      -4.504 -11.312   4.369  0.00  0.00    -0.083 Cl
ATOM     28  C   UNL     1      -6.332  -9.782   2.529  0.00  0.00    +0.045 C 
ENDBRANCH  18  21
ENDBRANCH  16  18
ENDBRANCH  15  16
ENDBRANCH   1  15
TORSDOF 5
