REMARK  Name = ZINC54733488
REMARK  6 active torsions:
REMARK  status: ('A' for Active; 'I' for Inactive)
REMARK    1  A    between atoms: C_1  and  C_2
REMARK    2  A    between atoms: C_5  and  C_7
REMARK    3  A    between atoms: C_7  and  C_9
REMARK    4  A    between atoms: C_7  and  N_10
REMARK    5  A    between atoms: N_16  and  C_19
REMARK    6  A    between atoms: C_19  and  C_20
REMARK                            x       y       z     vdW  Elec       q    Type
REMARK                         _______ _______ _______ _____ _____    ______ ____
ROOT
ATOM      1  N   UNL     1       1.814  -6.418  -1.231  0.00  0.00    -0.292 N 
ATOM      2  C   UNL     1       2.539  -5.311  -1.489  0.00  0.00    +0.303 C 
ATOM      3  O   UNL     1       2.181  -4.234  -1.054  0.00  0.00    -0.253 OA
ATOM      4  N   UNL     1       3.662  -5.399  -2.229  0.00  0.00    -0.283 N 
ATOM      5  C   UNL     1       4.532  -4.229  -2.422  0.00  0.00    +0.124 C 
ATOM      6  C   UNL     1       4.795  -4.060  -3.922  0.00  0.00    +0.104 C 
ATOM      7  N   UNL     1       5.316  -5.320  -4.470  0.00  0.00    -0.294 NA
ATOM      8  C   UNL     1       4.331  -6.402  -4.348  0.00  0.00    +0.104 C 
ATOM      9  C   UNL     1       4.053  -6.669  -2.860  0.00  0.00    +0.124 C 
ATOM     10  H   UNL     1       2.059  -7.264  -1.637  0.00  0.00    +0.151 HD
ENDROOT
BRANCH   1  11
ATOM     11  C   UNL     1       0.655  -6.342  -0.338  0.00  0.00    +0.108 C 
ATOM     12  C   UNL     1      -0.574  -5.899  -1.133  0.00  0.00    +0.033 C 
BRANCH  11  17
ATOM     13  C   UNL     1      -0.086 -11.786   1.044  0.00  0.00    +0.051 C 
ATOM     14  C   UNL     1       0.046 -10.289   0.927  0.00  0.00    -0.013 A 
ATOM     15  C   UNL     1      -0.146  -9.338   1.874  0.00  0.00    +0.011 A 
ATOM     16  C   UNL     1       0.035  -8.010   1.537  0.00  0.00    +0.013 A 
ATOM     17  C   UNL     1       0.399  -7.697   0.269  0.00  0.00    +0.010 A 
ATOM     18  S   UNL     1       0.504  -9.308  -0.493  0.00  0.00    -0.097 S 
ENDBRANCH  11  17
ENDBRANCH   1  11
BRANCH   7  19
ATOM     19  C   UNL     1       5.742  -5.151  -5.866  0.00  0.00    +0.139 C 
BRANCH  19  20
ATOM     20  C   UNL     1       6.491  -6.379  -6.315  0.00  0.00    +0.048 A 
ATOM     21  C   UNL     1       7.833  -6.537  -6.290  0.00  0.00    +0.115 A 
ATOM     22  N   UNL     1       8.101  -7.787  -6.779  0.00  0.00    -0.308 N 
ATOM     23  C   UNL     1       9.266  -8.469  -6.978  0.00  0.00    +0.092 A 
ATOM     24  C   UNL     1       9.252  -9.720  -7.485  0.00  0.00    +0.018 A 
ATOM     25  C   UNL     1       8.034 -10.336  -7.816  0.00  0.00    +0.005 A 
ATOM     26  C   UNL     1       6.865  -9.667  -7.622  0.00  0.00    +0.045 A 
ATOM     27  C   UNL     1       6.897  -8.362  -7.091  0.00  0.00    +0.115 A 
ATOM     28  N   UNL     1       5.939  -7.495  -6.798  0.00  0.00    -0.342 N 
ATOM     29  H   UNL     1       4.988  -7.645  -6.917  0.00  0.00    +0.167 HD
ENDBRANCH  19  20
ENDBRANCH   7  19
TORSDOF 4
