REMARK  Name = ZINC63994278
REMARK  9 active torsions:
REMARK  status: ('A' for Active; 'I' for Inactive)
REMARK    1  A    between atoms: C_1  and  C_2
REMARK    2  A    between atoms: C_2  and  C_4
REMARK    3  A    between atoms: C_2  and  N_15
REMARK    4  A    between atoms: C_4  and  C_5
REMARK    5  A    between atoms: C_5  and  C_6
REMARK    6  A    between atoms: N_23  and  C_28
REMARK    7  A    between atoms: N_26  and  C_27
REMARK    8  A    between atoms: C_28  and  C_29
REMARK    9  A    between atoms: C_29  and  C_30
REMARK                            x       y       z     vdW  Elec       q    Type
REMARK                         _______ _______ _______ _____ _____    ______ ____
ROOT
ATOM      1  N   UNL     1      -1.266  -0.410  -0.576  0.00  0.00    +0.382 N 
ATOM      2  C   UNL     1      -1.794  -0.189  -1.927  0.00  0.00    -0.076 C 
ATOM      3  C   UNL     1      -3.266  -0.609  -1.978  0.00  0.00    +0.017 C 
ATOM      4  C   UNL     1      -3.382  -2.083  -1.599  0.00  0.00    +0.112 C 
ATOM      5  C   UNL     1      -2.747  -2.332  -0.235  0.00  0.00    +0.017 C 
ATOM      6  C   UNL     1      -1.296  -1.842  -0.255  0.00  0.00    -0.076 C 
ATOM      7  C   UNL     1      -4.829  -2.515  -1.597  0.00  0.00    +0.247 C 
ATOM      8  O   UNL     1      -5.724  -2.082  -0.903  0.00  0.00    -0.273 OA
ATOM      9  N   UNL     1      -4.916  -3.486  -2.530  0.00  0.00    -0.224 N 
ATOM     10  C   UNL     1      -3.733  -3.718  -3.112  0.00  0.00    +0.312 C 
ATOM     11  O   UNL     1      -3.559  -4.547  -3.983  0.00  0.00    -0.252 OA
ATOM     12  N   UNL     1      -2.757  -2.929  -2.622  0.00  0.00    -0.274 N 
ATOM     13  C   UNL     1      -1.349  -2.919  -3.030  0.00  0.00    +0.134 C 
ATOM     14  H   UNL     1      -1.833   0.095   0.090  0.00  0.00    -0.081 HD
ENDROOT
BRANCH   1  16
ATOM     15  C   UNL     1       0.958  -0.622  -1.577  0.00  0.00    -0.013 C 
ATOM     16  C   UNL     1       0.118   0.077  -0.507  0.00  0.00    -0.071 C 
BRANCH  16  17
ATOM     17  C   UNL     1       0.140   1.588  -0.747  0.00  0.00    -0.011 C 
BRANCH  17  18
ATOM     18  C   UNL     1      -0.633   2.293   0.369  0.00  0.00    +0.031 C 
BRANCH  18  19
ATOM     19  C   UNL     1      -0.702   3.770   0.077  0.00  0.00    -0.042 C 
ATOM     20  C   UNL     1      -1.709   4.431  -0.538  0.00  0.00    -0.001 A 
ATOM     21  C   UNL     1      -2.991   3.990  -1.099  0.00  0.00    +0.010 A 
ATOM     22  C   UNL     1      -3.809   4.906  -1.666  0.00  0.00    +0.001 A 
ATOM     23  C   UNL     1      -3.463   6.263  -1.731  0.00  0.00    +0.002 A 
ATOM     24  C   UNL     1      -2.302   6.744  -1.238  0.00  0.00    +0.026 A 
ATOM     25  C   UNL     1      -1.367   5.869  -0.619  0.00  0.00    +0.043 A 
ATOM     26  N   UNL     1      -0.194   6.088  -0.075  0.00  0.00    -0.380 N 
ATOM     27  C   UNL     1       0.338   4.813   0.419  0.00  0.00    +0.144 C 
ATOM     28  H   UNL     1       0.246   6.950  -0.006  0.00  0.00    +0.160 HD
ENDBRANCH  18  19
ENDBRANCH  17  18
ENDBRANCH  16  17
ENDBRANCH   1  16
BRANCH   9  29
ATOM     29  C   UNL     1      -6.152  -4.198  -2.865  0.00  0.00    +0.122 C 
BRANCH  29  30
ATOM     30  C   UNL     1      -6.882  -3.454  -3.985  0.00  0.00    +0.054 C 
BRANCH  30  31
ATOM     31  C   UNL     1      -8.153  -4.186  -4.330  0.00  0.00    -0.046 A 
ATOM     32  C   UNL     1      -8.142  -5.172  -5.299  0.00  0.00    +0.004 A 
ATOM     33  C   UNL     1      -9.308  -5.844  -5.615  0.00  0.00    +0.000 A 
ATOM     34  C   UNL     1     -10.485  -5.530  -4.962  0.00  0.00    +0.000 A 
ATOM     35  C   UNL     1     -10.496  -4.546  -3.992  0.00  0.00    +0.000 A 
ATOM     36  C   UNL     1      -9.329  -3.877  -3.673  0.00  0.00    +0.004 A 
ENDBRANCH  30  31
ENDBRANCH  29  30
ENDBRANCH   9  29
TORSDOF 7
