REMARK  Name = ZINC09630495
REMARK  8 active torsions:
REMARK  status: ('A' for Active; 'I' for Inactive)
REMARK    1  A    between atoms: C_1  and  C_2
REMARK    2  A    between atoms: C_2  and  C_34
REMARK    3  A    between atoms: C_6  and  C_25
REMARK    4  A    between atoms: C_8  and  C_23
REMARK    5  A    between atoms: C_9  and  S_11
REMARK    6  A    between atoms: S_11  and  C_12
REMARK    7  A    between atoms: C_12  and  C_13
REMARK    8  A    between atoms: C_13  and  C_15
REMARK                            x       y       z     vdW  Elec       q    Type
REMARK                         _______ _______ _______ _____ _____    ______ ____
ROOT
ATOM      1  C   UNL     1      -1.980   1.103  -2.164  0.00  0.00    +0.011 C 
ATOM      2  C   UNL     1      -2.394   1.300  -0.705  0.00  0.00    -0.023 C 
ATOM      3  C   UNL     1      -1.320   2.105   0.032  0.00  0.00    +0.058 C 
ATOM      4  C   UNL     1      -0.016   1.346   0.009  0.00  0.00    +0.016 C 
ATOM      5  C   UNL     1       0.002  -0.004   0.002  0.00  0.00    +0.025 C 
ATOM      6  C   UNL     1       1.306  -0.761   0.001  0.00  0.00    +0.098 C 
ATOM      7  C   UNL     1       2.444   0.119  -0.424  0.00  0.00    +0.069 C 
ATOM      8  C   UNL     1       2.327   1.474  -0.405  0.00  0.00    +0.080 C 
ATOM      9  N   UNL     1       1.151   2.060   0.002  0.00  0.00    -0.311 N 
ATOM     10  C   UNL     1      -1.193  -0.745  -0.008  0.00  0.00    +0.162 C 
ATOM     11  O   UNL     1      -1.141  -1.959  -0.007  0.00  0.00    -0.292 OA
ATOM     12  C   UNL     1      -2.534  -0.064  -0.020  0.00  0.00    +0.086 C 
ATOM     13  C   UNL     1      -3.730   2.044  -0.646  0.00  0.00    +0.011 C 
ATOM     14  H   UNL     1       1.154   3.112   0.324  0.00  0.00    +0.152 HD
ENDROOT
BRANCH   6  15
ATOM     15  C   UNL     1       1.576  -1.281   1.390  0.00  0.00    -0.017 A 
ATOM     16  C   UNL     1       1.699  -2.644   1.618  0.00  0.00    +0.007 A 
ATOM     17  C   UNL     1       1.952  -3.076   2.911  0.00  0.00    +0.020 A 
ATOM     18  C   UNL     1       2.063  -2.142   3.924  0.00  0.00    +0.111 A 
ATOM     19  N   UNL     1       1.935  -0.854   3.671  0.00  0.00    -0.263 NA
ATOM     20  C   UNL     1       1.699  -0.407   2.453  0.00  0.00    +0.115 A 
ENDBRANCH   6  15
BRANCH   7  21
ATOM     21  C   UNL     1       3.672  -0.476  -0.858  0.00  0.00    +0.098 C 
ATOM     22  N   UNL     1       4.646  -0.949  -1.202  0.00  0.00    -0.191 NA
ENDBRANCH   7  21
BRANCH   8  23
ATOM     23  S   UNL     1       3.685   2.481  -0.903  0.00  0.00    -0.101 S 
BRANCH  23  24
ATOM     24  C   UNL     1       2.959   4.123  -0.673  0.00  0.00    +0.155 C 
BRANCH  24  25
ATOM     25  C   UNL     1       3.970   5.176  -1.049  0.00  0.00    +0.173 C 
ATOM     26  O   UNL     1       5.072   4.848  -1.434  0.00  0.00    -0.291 OA
BRANCH  25  27
ATOM     27  C   UNL     1       3.620   6.601  -0.948  0.00  0.00    +0.020 A 
ATOM     28  C   UNL     1       2.347   6.983  -0.509  0.00  0.00    +0.013 A 
ATOM     29  C   UNL     1       2.027   8.319  -0.412  0.00  0.00    +0.022 A 
ATOM     30  C   UNL     1       2.958   9.285  -0.758  0.00  0.00    +0.059 A 
ATOM     31  C   UNL     1       4.220   8.915  -1.200  0.00  0.00    +0.060 A 
ATOM     32  C   UNL     1       4.555   7.581  -1.296  0.00  0.00    +0.032 A 
ATOM     33 CL   UNL     1       5.379  10.134  -1.631  0.00  0.00    -0.082 Cl
ATOM     34 CL   UNL     1       2.544  10.967  -0.639  0.00  0.00    -0.082 Cl
ENDBRANCH  25  27
ENDBRANCH  24  25
ENDBRANCH  23  24
ENDBRANCH   8  23
TORSDOF 6
