REMARK  Name = ZINC33644291
REMARK  10 active torsions:
REMARK  status: ('A' for Active; 'I' for Inactive)
REMARK    1  A    between atoms: C_4  and  O_7
REMARK    2  A    between atoms: O_7  and  C_8
REMARK    3  A    between atoms: C_11  and  C_14
REMARK    4  A    between atoms: N_22  and  C_25
REMARK    5  A    between atoms: C_25  and  C_26
REMARK    6  A    between atoms: C_26  and  S_27
REMARK    7  A    between atoms: S_27  and  C_28
REMARK    8  A    between atoms: C_34  and  C_36
REMARK    9  A    between atoms: C_34  and  C_38
REMARK   10  A    between atoms: C_36  and  O_37
REMARK                            x       y       z     vdW  Elec       q    Type
REMARK                         _______ _______ _______ _____ _____    ______ ____
ROOT
ATOM      1  C   UNL     1      -1.691   3.794   3.852  0.00  0.00    -0.027 C 
ATOM      2  C   UNL     1      -1.003   2.647   3.150  0.00  0.00    +0.077 C 
ATOM      3  C   UNL     1      -2.298   1.868   2.687  0.00  0.00    +0.088 C 
ATOM      4  C   UNL     1      -1.679   0.862   1.828  0.00  0.00    +0.225 C 
ATOM      5  O   UNL     1      -2.018  -0.293   1.680  0.00  0.00    -0.275 OA
ATOM      6  N   UNL     1      -0.631   1.510   1.224  0.00  0.00    -0.241 N 
ATOM      7  C   UNL     1      -0.323   2.696   1.838  0.00  0.00    +0.224 C 
ATOM      8  O   UNL     1       0.360   3.596   1.398  0.00  0.00    -0.275 OA
ATOM      9  C   UNL     1      -3.043   1.802   3.970  0.00  0.00    +0.071 C 
ATOM     10  N   UNL     1      -2.748   3.092   4.656  0.00  0.00    +0.397 N 
ATOM     11  H   UNL     1      -2.375   2.911   5.674  0.00  0.00    -0.083 HD
ATOM     12  H   UNL     1      -3.651   3.720   4.702  0.00  0.00    -0.083 HD
ENDROOT
BRANCH   1  16
ATOM     13  C   UNL     1       1.035   5.867   6.407  0.00  0.00    +0.128 A 
ATOM     14  C   UNL     1       0.729   6.380   5.155  0.00  0.00    +0.046 A 
ATOM     15  C   UNL     1      -0.152   5.708   4.331  0.00  0.00    +0.005 A 
ATOM     16  C   UNL     1      -0.730   4.525   4.753  0.00  0.00    -0.060 A 
ATOM     17  C   UNL     1      -0.431   4.013   6.002  0.00  0.00    +0.005 A 
ATOM     18  C   UNL     1       0.454   4.679   6.829  0.00  0.00    +0.046 A 
BRANCH  13  19
ATOM     19  O   UNL     1       1.902   6.526   7.220  0.00  0.00    -0.456 OA
BRANCH  19  23
ATOM     20  C   UNL     1       0.738  10.181   8.737  0.00  0.00    +0.000 A 
ATOM     21  C   UNL     1       2.023   9.721   8.956  0.00  0.00    +0.004 A 
ATOM     22  C   UNL     1       2.416   8.497   8.449  0.00  0.00    +0.046 A 
ATOM     23  C   UNL     1       1.519   7.730   7.720  0.00  0.00    +0.128 A 
ATOM     24  C   UNL     1       0.231   8.196   7.497  0.00  0.00    +0.046 A 
ATOM     25  C   UNL     1      -0.158   9.418   8.011  0.00  0.00    +0.004 A 
ENDBRANCH  19  23
ENDBRANCH  13  19
ENDBRANCH   1  16
BRANCH   9  26
ATOM     26  C   UNL     1      -2.556   0.645   4.803  0.00  0.00    +0.348 C 
ATOM     27  O   UNL     1      -2.040  -0.308   4.269  0.00  0.00    -0.248 OA
ATOM     28  O   UNL     1      -2.695   0.672   6.138  0.00  0.00    -0.248 OA
ENDBRANCH   9  26
BRANCH   6  29
ATOM     29  C   UNL     1       0.084   0.989   0.057  0.00  0.00    +0.127 C 
BRANCH  29  30
ATOM     30  C   UNL     1      -0.592   1.492  -1.221  0.00  0.00    +0.094 C 
BRANCH  30  31
ATOM     31  S   UNL     1       0.293   0.846  -2.667  0.00  0.00    -0.124 S 
BRANCH  31  32
ATOM     32  C   UNL     1      -0.594   1.505  -4.039  0.00  0.00    +0.008 A 
ATOM     33  C   UNL     1      -1.704   2.314  -3.827  0.00  0.00    +0.015 A 
ATOM     34  C   UNL     1      -2.394   2.833  -4.905  0.00  0.00    +0.001 A 
ATOM     35  C   UNL     1      -1.988   2.540  -6.194  0.00  0.00    +0.000 A 
ATOM     36  C   UNL     1      -0.887   1.730  -6.409  0.00  0.00    +0.001 A 
ATOM     37  C   UNL     1      -0.189   1.212  -5.336  0.00  0.00    +0.015 A 
ENDBRANCH  31  32
ENDBRANCH  30  31
ENDBRANCH  29  30
ENDBRANCH   6  29
BRANCH   9  38
ATOM     38  C   UNL     1      -4.546   1.678   3.709  0.00  0.00    +0.155 C 
BRANCH  38  39
ATOM     39  O   UNL     1      -5.251   1.733   4.950  0.00  0.00    -0.396 OA
ATOM     40  H   UNL     1      -6.349   1.659   4.963  0.00  0.00    +0.209 HD
ENDBRANCH  38  39
ENDBRANCH   9  38
TORSDOF 10
