REMARK  Name = ZINC10243537
REMARK  6 active torsions:
REMARK  status: ('A' for Active; 'I' for Inactive)
REMARK    1  A    between atoms: C_3  and  C_7
REMARK    2  A    between atoms: C_7  and  S_8
REMARK    3  A    between atoms: S_8  and  C_9
REMARK    4  A    between atoms: C_14  and  N_18
REMARK    5  A    between atoms: C_15  and  N_17
REMARK    6  A    between atoms: C_19  and  C_21
REMARK                            x       y       z     vdW  Elec       q    Type
REMARK                         _______ _______ _______ _____ _____    ______ ____
ROOT
ATOM      1  C   UNL     1       1.110   5.881   1.454  0.00  0.00    +0.171 A 
ATOM      2  N   UNL     1       1.089   6.732   2.518  0.00  0.00    -0.300 N 
ATOM      3  H   UNL     1       1.097   6.378   3.421  0.00  0.00    +0.171 HD
ATOM      4  C   UNL     1       1.063   8.066   2.318  0.00  0.00    +0.275 A 
ATOM      5  O   UNL     1       1.050   8.836   3.266  0.00  0.00    -0.266 OA
ATOM      6  C   UNL     1       1.047   8.553   1.003  0.00  0.00    +0.139 A 
ATOM      7  C   UNL     1       1.063   7.640  -0.046  0.00  0.00    +0.146 A 
ATOM      8  N   UNL     1       1.095   6.328   0.216  0.00  0.00    -0.207 NA
ENDROOT
BRANCH   6   9
ATOM      9  N   UNL     1       1.014   9.938   0.750  0.00  0.00    -0.272 N 
ATOM     10  C   UNL     1      -0.008  10.684   1.215  0.00  0.00    +0.284 C 
ATOM     11  O   UNL     1      -0.857  10.178   1.927  0.00  0.00    -0.266 OA
ATOM     12  H   UNL     1       1.726  10.355   0.240  0.00  0.00    +0.155 HD
BRANCH  10  13
ATOM     13  C   UNL     1      -0.097  12.104   0.866  0.00  0.00    +0.191 A 
ATOM     14  C   UNL     1      -1.077  12.969   1.263  0.00  0.00    +0.056 A 
ATOM     15  C   UNL     1      -0.766  14.217   0.703  0.00  0.00    +0.058 A 
ATOM     16  C   UNL     1       0.373  14.061  -0.011  0.00  0.00    +0.171 A 
ATOM     17  O   UNL     1       0.772  12.786   0.090  0.00  0.00    -0.444 OA
ATOM     18 BR   UNL     1       1.254  15.417  -0.989  0.00  0.00    -0.008 Br
ENDBRANCH  10  13
ENDBRANCH   6   9
BRANCH   7  19
ATOM     19  N   UNL     1       1.048   8.086  -1.356  0.00  0.00    -0.341 N 
ATOM     20  H   UNL     1       1.059   7.447  -2.086  0.00  0.00    +0.144 HD
ATOM     21  H   UNL     1       1.025   9.037  -1.544  0.00  0.00    +0.144 HD
ENDBRANCH   7  19
BRANCH   1  22
ATOM     22  S   UNL     1       1.151   4.143   1.742  0.00  0.00    -0.083 S 
BRANCH  22  23
ATOM     23  C   UNL     1       1.158   3.542   0.035  0.00  0.00    +0.114 C 
BRANCH  23  26
ATOM     24  C   UNL     1       2.387  -0.026   0.024  0.00  0.00    +0.020 A 
ATOM     25  C   UNL     1       2.403   1.361   0.026  0.00  0.00    +0.007 A 
ATOM     26  C   UNL     1       1.192   2.035   0.033  0.00  0.00    -0.019 A 
ATOM     27  C   UNL     1       0.016   1.308   0.037  0.00  0.00    +0.115 A 
ATOM     28  N   UNL     1       0.039  -0.010   0.035  0.00  0.00    -0.263 NA
ATOM     29  C   UNL     1       1.172  -0.685   0.029  0.00  0.00    +0.111 A 
ENDBRANCH  23  26
ENDBRANCH  22  23
ENDBRANCH   1  22
TORSDOF 6
