REMARK  Name = ZINC67102152
REMARK  7 active torsions:
REMARK  status: ('A' for Active; 'I' for Inactive)
REMARK    1  A    between atoms: C_1  and  C_2
REMARK    2  A    between atoms: C_6  and  C_7
REMARK    3  A    between atoms: N_9  and  N_10
REMARK    4  A    between atoms: N_13  and  C_14
REMARK    5  A    between atoms: N_13  and  C_15
REMARK    6  A    between atoms: C_15  and  C_16
REMARK    7  A    between atoms: C_21  and  C_22
REMARK                            x       y       z     vdW  Elec       q    Type
REMARK                         _______ _______ _______ _____ _____    ______ ____
ROOT
ATOM      1  N   UNL     1       0.112  -0.343   5.198  0.00  0.00    -0.218 N 
ATOM      2  C   UNL     1      -0.074  -1.280   6.149  0.00  0.00    +0.319 C 
ATOM      3  O   UNL     1      -0.369  -0.948   7.281  0.00  0.00    -0.251 OA
ATOM      4  N   UNL     1       0.067  -2.585   5.845  0.00  0.00    -0.283 N 
ATOM      5  C   UNL     1       0.487  -2.982   4.499  0.00  0.00    +0.134 C 
ATOM      6  H   UNL     1       0.110   0.598   5.437  0.00  0.00    +0.174 HD
ENDROOT
BRANCH   1   9
ATOM      7  C   UNL     1       0.345   0.207   2.894  0.00  0.00    +0.267 C 
ATOM      8  O   UNL     1       0.208   1.384   3.175  0.00  0.00    -0.268 OA
ATOM      9  N   UNL     1       0.308  -0.726   3.865  0.00  0.00    -0.229 N 
ATOM     10  H   UNL     1       0.417  -1.663   3.641  0.00  0.00    +0.173 HD
BRANCH   7  16
ATOM     11  C   UNL     1       0.481   2.098   0.421  0.00  0.00    +0.045 C 
ATOM     12  C   UNL     1       0.620   0.598   0.363  0.00  0.00    -0.031 A 
ATOM     13  C   UNL     1       0.828  -0.071  -0.819  0.00  0.00    +0.011 A 
ATOM     14  C   UNL     1       0.944  -1.422  -0.800  0.00  0.00    +0.046 A 
ATOM     15  S   UNL     1       0.774  -1.827   0.821  0.00  0.00    -0.092 S 
ATOM     16  C   UNL     1       0.550  -0.194   1.499  0.00  0.00    +0.078 A 
ENDBRANCH   7  16
ENDBRANCH   1   9
BRANCH   4  17
ATOM     17  C   UNL     1      -0.201  -3.607   6.860  0.00  0.00    +0.144 C 
BRANCH  17  18
ATOM     18  C   UNL     1      -1.621  -4.091   6.723  0.00  0.00    -0.022 A 
ATOM     19  C   UNL     1      -2.402  -3.655   5.672  0.00  0.00    +0.006 A 
ATOM     20  C   UNL     1      -3.706  -4.098   5.546  0.00  0.00    +0.000 A 
ATOM     21  C   UNL     1      -4.235  -4.981   6.471  0.00  0.00    +0.001 A 
ATOM     22  C   UNL     1      -3.462  -5.425   7.525  0.00  0.00    +0.009 A 
ATOM     23  C   UNL     1      -2.146  -4.985   7.654  0.00  0.00    -0.013 A 
BRANCH  23  24
ATOM     24  C   UNL     1      -1.309  -5.462   8.783  0.00  0.00    -0.018 A 
ATOM     25  C   UNL     1      -0.035  -5.971   8.542  0.00  0.00    +0.008 A 
ATOM     26  C   UNL     1       0.739  -6.413   9.596  0.00  0.00    +0.001 A 
ATOM     27  C   UNL     1       0.252  -6.351  10.889  0.00  0.00    +0.000 A 
ATOM     28  C   UNL     1      -1.012  -5.846  11.134  0.00  0.00    +0.001 A 
ATOM     29  C   UNL     1      -1.793  -5.396  10.088  0.00  0.00    +0.008 A 
ENDBRANCH  23  24
ENDBRANCH  17  18
ENDBRANCH   4  17
TORSDOF 5
