REMARK  Name = ZINC38966551
REMARK  7 active torsions:
REMARK  status: ('A' for Active; 'I' for Inactive)
REMARK    1  A    between atoms: C_1  and  C_2
REMARK    2  A    between atoms: C_5  and  C_32
REMARK    3  A    between atoms: C_6  and  S_8
REMARK    4  A    between atoms: S_8  and  N_11
REMARK    5  A    between atoms: C_13  and  N_23
REMARK    6  A    between atoms: N_23  and  C_24
REMARK    7  A    between atoms: C_29  and  C_30
REMARK                            x       y       z     vdW  Elec       q    Type
REMARK                         _______ _______ _______ _____ _____    ______ ____
ROOT
ATOM      1  N   UNL     1      -1.314  -3.676   3.050  0.00  0.00    -0.110 NA
ATOM      2  C   UNL     1      -1.614  -4.527   3.986  0.00  0.00    +0.192 C 
ATOM      3  C   UNL     1      -2.893  -5.331   3.912  0.00  0.00    +0.237 C 
ATOM      4  N   UNL     1      -3.174  -6.278   5.002  0.00  0.00    -0.359 N 
ATOM      5  C   UNL     1      -2.312  -6.378   5.976  0.00  0.00    +0.063 A 
ATOM      6  C   UNL     1      -2.546  -7.310   7.090  0.00  0.00    +0.027 A 
ATOM      7  C   UNL     1      -1.631  -7.387   8.080  0.00  0.00    +0.002 A 
ATOM      8  C   UNL     1      -0.466  -6.602   8.072  0.00  0.00    +0.002 A 
ATOM      9  C   UNL     1      -0.183  -5.725   7.084  0.00  0.00    +0.030 A 
ATOM     10  C   UNL     1      -1.074  -5.562   5.993  0.00  0.00    +0.089 A 
ATOM     11  N   UNL     1      -0.790  -4.709   5.031  0.00  0.00    -0.226 NA
ATOM     12  H   UNL     1      -3.982  -6.814   4.997  0.00  0.00    +0.162 HD
ENDROOT
BRANCH   1  13
ATOM     13  S   UNL     1       0.093  -2.807   3.141  0.00  0.00    +0.101 S 
ATOM     14  O   UNL     1       1.156  -3.741   3.013  0.00  0.00    -0.146 OA
ATOM     15  O   UNL     1      -0.034  -1.946   4.264  0.00  0.00    -0.146 OA
BRANCH  13  21
ATOM     16  C   UNL     1       0.104   1.914   0.897  0.00  0.00    +0.044 C 
ATOM     17  C   UNL     1       0.158   0.415   0.742  0.00  0.00    -0.049 A 
ATOM     18  C   UNL     1       0.259  -0.146  -0.517  0.00  0.00    +0.004 A 
ATOM     19  C   UNL     1       0.308  -1.520  -0.659  0.00  0.00    +0.005 A 
ATOM     20  C   UNL     1       0.257  -2.333   0.458  0.00  0.00    -0.024 A 
ATOM     21  C   UNL     1       0.158  -1.771   1.717  0.00  0.00    +0.116 A 
ATOM     22  C   UNL     1       0.113  -0.397   1.859  0.00  0.00    +0.032 A 
ATOM     23  C   UNL     1       0.310  -3.831   0.303  0.00  0.00    +0.046 C 
ENDBRANCH  13  21
ENDBRANCH   1  13
BRANCH   3  24
ATOM     24  N   UNL     1      -4.011  -4.387   3.841  0.00  0.00    -0.318 N 
ATOM     25  H   UNL     1      -4.024  -3.607   4.418  0.00  0.00    +0.148 HD
BRANCH  24  26
ATOM     26  C   UNL     1      -5.057  -4.610   2.942  0.00  0.00    +0.032 A 
ATOM     27  C   UNL     1      -5.104  -5.787   2.206  0.00  0.00    +0.024 A 
ATOM     28  C   UNL     1      -6.140  -6.005   1.319  0.00  0.00    +0.017 A 
ATOM     29  C   UNL     1      -7.130  -5.051   1.163  0.00  0.00    +0.018 A 
ATOM     30  C   UNL     1      -7.086  -3.877   1.894  0.00  0.00    +0.020 A 
ATOM     31  C   UNL     1      -6.055  -3.657   2.787  0.00  0.00    -0.029 A 
ATOM     32  C   UNL     1      -6.011  -2.381   3.587  0.00  0.00    +0.046 C 
ATOM     33 BR   UNL     1      -8.546  -5.352  -0.054  0.00  0.00    -0.050 Br
ENDBRANCH  24  26
ENDBRANCH   3  24
TORSDOF 4
