REMARK  Name = ZINC60355053
REMARK  7 active torsions:
REMARK  status: ('A' for Active; 'I' for Inactive)
REMARK    1  A    between atoms: C_1  and  C_2
REMARK    2  A    between atoms: C_5  and  C_7
REMARK    3  A    between atoms: C_7  and  C_9
REMARK    4  A    between atoms: C_7  and  N_29
REMARK    5  A    between atoms: C_9  and  N_10
REMARK    6  A    between atoms: C_11  and  C_13
REMARK    7  A    between atoms: C_19  and  C_21
REMARK                            x       y       z     vdW  Elec       q    Type
REMARK                         _______ _______ _______ _____ _____    ______ ____
ROOT
ATOM      1  N   UNL     1       3.033  -4.491  -1.405  0.00  0.00    -0.315 N 
ATOM      2  C   UNL     1       3.616  -5.007  -2.506  0.00  0.00    +0.234 C 
ATOM      3  O   UNL     1       3.432  -4.491  -3.588  0.00  0.00    -0.274 OA
ATOM      4  H   UNL     1       3.180  -4.904  -0.540  0.00  0.00    +0.149 HD
ENDROOT
BRANCH   2   5
ATOM      5  C   UNL     1       4.496  -6.225  -2.391  0.00  0.00    +0.162 C 
ATOM      6  C   UNL     1       3.674  -7.418  -1.859  0.00  0.00    +0.033 C 
ATOM      7  C   UNL     1       3.292  -8.182  -3.154  0.00  0.00    +0.021 C 
ATOM      8  C   UNL     1       4.558  -7.974  -4.023  0.00  0.00    +0.109 C 
ATOM      9  N   UNL     1       5.006  -6.599  -3.719  0.00  0.00    -0.286 N 
ATOM     10  C   UNL     1       5.754  -5.817  -4.522  0.00  0.00    +0.249 C 
ATOM     11  O   UNL     1       5.992  -4.669  -4.202  0.00  0.00    -0.270 OA
BRANCH  10  12
ATOM     12  C   UNL     1       6.286  -6.356  -5.791  0.00  0.00    +0.057 A 
ATOM     13  C   UNL     1       6.744  -7.674  -5.856  0.00  0.00    +0.034 A 
ATOM     14  C   UNL     1       7.239  -8.171  -7.044  0.00  0.00    +0.042 A 
ATOM     15  C   UNL     1       7.283  -7.366  -8.171  0.00  0.00    +0.021 A 
ATOM     16  C   UNL     1       6.831  -6.061  -8.114  0.00  0.00    +0.022 A 
ATOM     17  C   UNL     1       6.327  -5.552  -6.932  0.00  0.00    +0.053 A 
ATOM     18 CL   UNL     1       5.753  -3.915  -6.864  0.00  0.00    -0.083 Cl
ATOM     19 CL   UNL     1       7.810  -9.808  -7.127  0.00  0.00    -0.084 Cl
ENDBRANCH  10  12
ENDBRANCH   2   5
BRANCH   1  20
ATOM     20  C   UNL     1       2.178  -3.307  -1.516  0.00  0.00    +0.096 C 
BRANCH  20  21
ATOM     21  C   UNL     1       1.725  -2.872  -0.121  0.00  0.00    +0.016 C 
BRANCH  21  26
ATOM     22  C   UNL     1      -2.300  -5.729   0.916  0.00  0.00    +0.086 C 
ATOM     23  C   UNL     1      -0.894  -5.188   0.934  0.00  0.00    +0.102 A 
ATOM     24  C   UNL     1       0.124  -5.666   1.672  0.00  0.00    +0.044 A 
ATOM     25  C   UNL     1       1.252  -4.865   1.381  0.00  0.00    +0.043 A 
ATOM     26  C   UNL     1       0.856  -3.945   0.483  0.00  0.00    +0.093 A 
ATOM     27  O   UNL     1      -0.443  -4.149   0.211  0.00  0.00    -0.466 OA
ENDBRANCH  21  26
BRANCH  21  28
ATOM     28  N   UNL     1       0.960  -1.622  -0.222  0.00  0.00    +0.387 N 
ATOM     29  C   UNL     1       0.509  -1.187   1.125  0.00  0.00    -0.078 C 
ATOM     30  C   UNL     1       0.251   0.329   0.941  0.00  0.00    -0.020 C 
ATOM     31  C   UNL     1       1.387   0.759  -0.015  0.00  0.00    -0.020 C 
ATOM     32  C   UNL     1       1.825  -0.534  -0.728  0.00  0.00    -0.078 C 
ATOM     33  H   UNL     1       0.166  -1.748  -0.831  0.00  0.00    -0.081 HD
ENDBRANCH  21  28
ENDBRANCH  20  21
ENDBRANCH   1  20
TORSDOF 6
