REMARK  Name = ZINC20731859
REMARK  5 active torsions:
REMARK  status: ('A' for Active; 'I' for Inactive)
REMARK    1  A    between atoms: C_1  and  C_2
REMARK    2  A    between atoms: C_2  and  C_4
REMARK    3  A    between atoms: C_2  and  N_17
REMARK    4  A    between atoms: C_4  and  N_6
REMARK    5  A    between atoms: C_18  and  C_20
REMARK                            x       y       z     vdW  Elec       q    Type
REMARK                         _______ _______ _______ _____ _____    ______ ____
ROOT
ATOM      1  C   UNL     1      -0.019   1.543  -0.002  0.00  0.00    +0.038 C 
ATOM      2  C   UNL     1       0.011   0.013   0.002  0.00  0.00    +0.158 C 
ENDROOT
BRANCH   2   3
ATOM      3  N   UNL     1       0.728  -0.458   1.189  0.00  0.00    -0.301 N 
ATOM      4  C   UNL     1       0.074  -0.597   2.360  0.00  0.00    +0.258 C 
ATOM      5  O   UNL     1      -1.107  -0.332   2.430  0.00  0.00    -0.272 OA
ATOM      6  H   UNL     1       1.673  -0.670   1.133  0.00  0.00    +0.150 HD
BRANCH   4   7
ATOM      7  C   UNL     1       0.811  -1.083   3.581  0.00  0.00    +0.296 C 
ATOM      8  C   UNL     1       1.270  -2.531   3.368  0.00  0.00    +0.283 C 
ATOM      9  O   UNL     1       1.952  -2.965   4.549  0.00  0.00    -0.484 OA
ATOM     10  C   UNL     1       1.351  -2.687   5.739  0.00  0.00    +0.162 A 
ATOM     11  C   UNL     1       1.748  -3.372   6.878  0.00  0.00    +0.049 A 
ATOM     12  C   UNL     1       1.150  -3.099   8.093  0.00  0.00    +0.004 A 
ATOM     13  C   UNL     1       0.154  -2.143   8.177  0.00  0.00    +0.004 A 
ATOM     14  C   UNL     1      -0.246  -1.458   7.046  0.00  0.00    +0.049 A 
ATOM     15  C   UNL     1       0.349  -1.728   5.823  0.00  0.00    +0.163 A 
ATOM     16  O   UNL     1      -0.061  -1.050   4.716  0.00  0.00    -0.473 OA
ENDBRANCH   4   7
ENDBRANCH   2   3
BRANCH   2  17
ATOM     17  C   UNL     1       0.714  -0.478  -1.237  0.00  0.00    +0.259 C 
ATOM     18  O   UNL     1       1.718  -1.157  -1.138  0.00  0.00    -0.272 OA
BRANCH  17  19
ATOM     19  N   UNL     1       0.237  -0.169  -2.439  0.00  0.00    -0.145 NA
ATOM     20  C   UNL     1       0.914  -0.513  -3.532  0.00  0.00    +0.198 A 
ATOM     21  N   UNL     1       2.037  -1.278  -3.554  0.00  0.00    -0.326 N 
ATOM     22  H   UNL     1       2.478  -1.662  -2.781  0.00  0.00    +0.169 HD
ATOM     23  C   UNL     1       2.445  -1.415  -4.877  0.00  0.00    +0.065 A 
ATOM     24  C   UNL     1       3.507  -2.076  -5.477  0.00  0.00    +0.028 A 
ATOM     25  C   UNL     1       3.658  -2.033  -6.849  0.00  0.00    +0.002 A 
ATOM     26  C   UNL     1       2.754  -1.332  -7.629  0.00  0.00    +0.002 A 
ATOM     27  C   UNL     1       1.694  -0.669  -7.042  0.00  0.00    +0.028 A 
ATOM     28  C   UNL     1       1.533  -0.707  -5.664  0.00  0.00    +0.065 A 
ATOM     29  N   UNL     1       0.588  -0.160  -4.803  0.00  0.00    -0.326 N 
ATOM     30  H   UNL     1      -0.173   0.383  -5.065  0.00  0.00    +0.169 HD
ENDBRANCH  17  19
ENDBRANCH   2  17
TORSDOF 4
