REMARK  Name = ZINC36552188
REMARK  10 active torsions:
REMARK  status: ('A' for Active; 'I' for Inactive)
REMARK    1  A    between atoms: C_1  and  C_2
REMARK    2  A    between atoms: C_2  and  C_3
REMARK    3  A    between atoms: C_3  and  C_4
REMARK    4  A    between atoms: C_4  and  N_5
REMARK    5  A    between atoms: C_6  and  C_8
REMARK    6  A    between atoms: C_8  and  C_10
REMARK    7  A    between atoms: C_8  and  N_24
REMARK    8  A    between atoms: N_24  and  C_25
REMARK    9  A    between atoms: C_32  and  C_34
REMARK   10  A    between atoms: C_34  and  O_35
REMARK                            x       y       z     vdW  Elec       q    Type
REMARK                         _______ _______ _______ _____ _____    ______ ____
ROOT
ATOM      1  C   UNL     1       2.337  -4.317  -3.703  0.00  0.00    +0.198 C 
ENDROOT
BRANCH   1   2
ATOM      2  C   UNL     1       1.370  -4.045  -4.826  0.00  0.00    -0.010 A 
ATOM      3  C   UNL     1       0.560  -5.035  -5.254  0.00  0.00    +0.015 A 
ATOM      4  C   UNL     1      -0.365  -4.830  -6.303  0.00  0.00    -0.017 A 
ATOM      5  C   UNL     1      -1.202  -5.865  -6.741  0.00  0.00    +0.008 A 
ATOM      6  C   UNL     1      -2.086  -5.639  -7.755  0.00  0.00    +0.001 A 
ATOM      7  C   UNL     1      -2.169  -4.393  -8.365  0.00  0.00    +0.001 A 
ATOM      8  C   UNL     1      -1.367  -3.363  -7.962  0.00  0.00    +0.009 A 
ATOM      9  C   UNL     1      -0.453  -3.564  -6.926  0.00  0.00    -0.010 A 
ATOM     10  C   UNL     1       0.427  -2.488  -6.461  0.00  0.00    -0.010 A 
ATOM     11  C   UNL     1       1.326  -2.755  -5.404  0.00  0.00    -0.012 A 
ATOM     12  C   UNL     1       2.168  -1.731  -4.948  0.00  0.00    +0.009 A 
ATOM     13  C   UNL     1       2.105  -0.496  -5.524  0.00  0.00    +0.001 A 
ATOM     14  C   UNL     1       1.216  -0.236  -6.559  0.00  0.00    +0.001 A 
ATOM     15  C   UNL     1       0.391  -1.215  -7.034  0.00  0.00    +0.009 A 
ENDBRANCH   1   2
BRANCH   1  17
ATOM     16  N   UNL     1       1.569  -2.609  -2.088  0.00  0.00    -0.313 N 
ATOM     17  C   UNL     1       1.713  -3.914  -2.393  0.00  0.00    +0.238 C 
ATOM     18  O   UNL     1       1.340  -4.763  -1.611  0.00  0.00    -0.273 OA
ATOM     19  H   UNL     1       1.868  -1.929  -2.713  0.00  0.00    +0.149 HD
BRANCH  16  20
ATOM     20  C   UNL     1       0.962  -2.216  -0.814  0.00  0.00    +0.104 C 
BRANCH  20  21
ATOM     21  C   UNL     1       0.918  -0.690  -0.719  0.00  0.00    +0.018 C 
BRANCH  21  23
ATOM     22  C   UNL     1       0.240   1.246   0.708  0.00  0.00    +0.004 C 
ATOM     23  C   UNL     1       0.284  -0.280   0.612  0.00  0.00    -0.002 C 
ENDBRANCH  21  23
ENDBRANCH  20  21
ENDBRANCH  16  20
ENDBRANCH   1  17
BRANCH   1  24
ATOM     24  N   UNL     1       2.659  -5.747  -3.672  0.00  0.00    -0.253 N 
ATOM     25  C   UNL     1       3.891  -6.168  -4.018  0.00  0.00    +0.246 C 
ATOM     26  O   UNL     1       4.124  -7.355  -4.106  0.00  0.00    -0.273 OA
BRANCH  24  27
ATOM     27  C   UNL     1       1.686  -6.674  -3.282  0.00  0.00    +0.039 A 
ATOM     28  C   UNL     1       0.381  -6.258  -3.053  0.00  0.00    +0.023 A 
ATOM     29  C   UNL     1      -0.578  -7.175  -2.669  0.00  0.00    +0.003 A 
ATOM     30  C   UNL     1      -0.239  -8.507  -2.511  0.00  0.00    +0.020 A 
ATOM     31  C   UNL     1       1.060  -8.925  -2.738  0.00  0.00    +0.043 A 
ATOM     32  C   UNL     1       2.022  -8.012  -3.129  0.00  0.00    +0.043 A 
ATOM     33 CL   UNL     1       1.481 -10.597  -2.538  0.00  0.00    -0.083 Cl
ENDBRANCH  24  27
BRANCH  25  34
ATOM     34  C   UNL     1       4.981  -5.164  -4.294  0.00  0.00    +0.252 C 
BRANCH  34  35
ATOM     35  O   UNL     1       6.154  -5.846  -4.741  0.00  0.00    -0.386 OA
ATOM     36  H   UNL     1       6.898  -5.261  -4.938  0.00  0.00    +0.210 HD
ENDBRANCH  34  35
ENDBRANCH  25  34
ENDBRANCH   1  24
TORSDOF 9
