REMARK  Name = ZINC58887359
REMARK  13 active torsions:
REMARK  status: ('A' for Active; 'I' for Inactive)
REMARK    1  A    between atoms: C_1  and  C_2
REMARK    2  A    between atoms: C_2  and  O_3
REMARK    3  A    between atoms: O_3  and  C_4
REMARK    4  A    between atoms: C_6  and  C_19
REMARK    5  A    between atoms: C_9  and  O_10
REMARK    6  A    between atoms: O_10  and  C_11
REMARK    7  A    between atoms: C_11  and  C_12
REMARK    8  A    between atoms: N_20  and  N_21
REMARK    9  A    between atoms: C_22  and  C_24
REMARK   10  A    between atoms: C_24  and  C_25
REMARK   11  A    between atoms: C_25  and  C_26
REMARK   12  A    between atoms: C_26  and  C_28
REMARK   13  A    between atoms: C_26  and  O_34
REMARK                            x       y       z     vdW  Elec       q    Type
REMARK                         _______ _______ _______ _____ _____    ______ ____
ROOT
ATOM      1  C   UNL     1       0.209  -1.830  -1.590  0.00  0.00    +0.164 A 
ATOM      2  C   UNL     1       0.123  -2.687  -0.509  0.00  0.00    +0.059 A 
ATOM      3  C   UNL     1      -0.144  -4.043  -0.716  0.00  0.00    -0.001 A 
ATOM      4  C   UNL     1      -0.321  -4.526  -2.015  0.00  0.00    +0.028 A 
ATOM      5  C   UNL     1      -0.233  -3.665  -3.089  0.00  0.00    +0.064 A 
ATOM      6  C   UNL     1       0.026  -2.317  -2.882  0.00  0.00    +0.176 A 
ATOM      7 BR   UNL     1      -0.473  -4.320  -4.847  0.00  0.00    -0.046 Br
ENDROOT
BRANCH   3   8
ATOM      8  C   UNL     1      -0.237  -4.962   0.433  0.00  0.00    +0.138 C 
ATOM      9  N   UNL     1      -0.194  -6.245   0.243  0.00  0.00    -0.188 NA
BRANCH   9  10
ATOM     10  N   UNL     1       0.454  -6.765  -0.885  0.00  0.00    -0.207 N 
ATOM     11  C   UNL     1       0.386  -8.084  -1.153  0.00  0.00    +0.232 C 
ATOM     12  O   UNL     1      -0.236  -8.821  -0.417  0.00  0.00    -0.274 OA
ATOM     13  H   UNL     1       0.952  -6.176  -1.473  0.00  0.00    +0.177 HD
BRANCH  11  14
ATOM     14  C   UNL     1       1.084  -8.643  -2.366  0.00  0.00    +0.100 C 
BRANCH  14  15
ATOM     15  C   UNL     1       0.851 -10.154  -2.437  0.00  0.00    +0.045 C 
BRANCH  15  16
ATOM     16  C   UNL     1       1.559 -10.722  -3.668  0.00  0.00    +0.145 C 
BRANCH  16  17
ATOM     17  C   UNL     1       1.433 -12.224  -3.672  0.00  0.00    -0.019 A 
ATOM     18  C   UNL     1       0.310 -12.822  -4.213  0.00  0.00    +0.006 A 
ATOM     19  C   UNL     1       0.195 -14.199  -4.216  0.00  0.00    +0.000 A 
ATOM     20  C   UNL     1       1.203 -14.979  -3.680  0.00  0.00    +0.000 A 
ATOM     21  C   UNL     1       2.326 -14.380  -3.140  0.00  0.00    +0.000 A 
ATOM     22  C   UNL     1       2.443 -13.003  -3.140  0.00  0.00    +0.006 A 
ENDBRANCH  16  17
BRANCH  16  23
ATOM     23  O   UNL     1       0.957 -10.191  -4.851  0.00  0.00    -0.387 OA
ATOM     24  H   UNL     1       0.017 -10.398  -4.941  0.00  0.00    +0.210 HD
ENDBRANCH  16  23
ENDBRANCH  15  16
ENDBRANCH  14  15
ENDBRANCH  11  14
ENDBRANCH   9  10
ENDBRANCH   3   8
BRANCH   1  25
ATOM     25  O   UNL     1       0.469  -0.510  -1.391  0.00  0.00    -0.489 OA
BRANCH  25  27
ATOM     26  C   UNL     1       0.926   1.425  -0.017  0.00  0.00    +0.048 C 
ATOM     27  C   UNL     1       0.646  -0.079  -0.040  0.00  0.00    +0.226 C 
ENDBRANCH  25  27
ENDBRANCH   1  25
BRANCH   6  28
ATOM     28  O   UNL     1       0.107  -1.471  -3.943  0.00  0.00    -0.483 OA
BRANCH  28  29
ATOM     29  C   UNL     1       1.394  -1.299  -4.540  0.00  0.00    +0.264 C 
BRANCH  29  30
ATOM     30  C   UNL     1       1.288  -0.333  -5.692  0.00  0.00    -0.010 A 
ATOM     31  C   UNL     1       1.012  -0.801  -6.963  0.00  0.00    +0.007 A 
ATOM     32  C   UNL     1       0.915   0.085  -8.020  0.00  0.00    +0.000 A 
ATOM     33  C   UNL     1       1.095   1.438  -7.806  0.00  0.00    +0.000 A 
ATOM     34  C   UNL     1       1.370   1.907  -6.535  0.00  0.00    +0.000 A 
ATOM     35  C   UNL     1       1.463   1.021  -5.477  0.00  0.00    +0.007 A 
ENDBRANCH  29  30
ENDBRANCH  28  29
ENDBRANCH   6  28
TORSDOF 12
