REMARK  Name = ZINC38657622
REMARK  7 active torsions:
REMARK  status: ('A' for Active; 'I' for Inactive)
REMARK    1  A    between atoms: C_1  and  C_2
REMARK    2  A    between atoms: C_5  and  C_8
REMARK    3  A    between atoms: C_8  and  O_10
REMARK    4  A    between atoms: O_10  and  C_11
REMARK    5  A    between atoms: C_18  and  N_34
REMARK    6  A    between atoms: C_19  and  C_32
REMARK    7  A    between atoms: C_20  and  C_22
REMARK                            x       y       z     vdW  Elec       q    Type
REMARK                         _______ _______ _______ _____ _____    ______ ____
ROOT
ATOM      1  C   UNL     1       0.054  -6.288   1.209  0.00  0.00    +0.135 A 
ATOM      2  C   UNL     1       0.100  -7.016   0.028  0.00  0.00    +0.047 A 
ATOM      3  C   UNL     1       0.086  -8.396   0.068  0.00  0.00    +0.012 A 
ATOM      4  C   UNL     1       0.028  -9.058   1.281  0.00  0.00    +0.008 A 
ATOM      5  C   UNL     1      -0.018  -8.336   2.463  0.00  0.00    +0.138 A 
ATOM      6  C   UNL     1       0.001  -6.948   2.426  0.00  0.00    +0.093 A 
ATOM      7  O   UNL     1      -0.077  -8.968   3.662  0.00  0.00    -0.441 OA
ATOM      8  C   UNL     1       0.290 -10.256   3.759  0.00  0.00    +0.199 C 
ATOM      9  C   UNL     1       0.354 -11.067   2.677  0.00  0.00    +0.098 C 
ATOM     10  C   UNL     1       0.013 -10.564   1.302  0.00  0.00    +0.098 C 
ENDROOT
BRANCH  10  11
ATOM     11  C   UNL     1      -1.358 -11.056   0.916  0.00  0.00    -0.027 A 
ATOM     12  C   UNL     1      -2.456 -10.620   1.592  0.00  0.00    +0.005 A 
ATOM     13  C   UNL     1      -3.732 -11.064   1.249  0.00  0.00    +0.001 A 
ATOM     14  C   UNL     1      -3.917 -11.946   0.229  0.00  0.00    +0.008 A 
ATOM     15  C   UNL     1      -2.807 -12.418  -0.491  0.00  0.00    -0.018 A 
ATOM     16  C   UNL     1      -1.510 -11.962  -0.147  0.00  0.00    -0.014 A 
ATOM     17  C   UNL     1      -0.400 -12.430  -0.871  0.00  0.00    +0.009 A 
ATOM     18  C   UNL     1      -0.585 -13.307  -1.895  0.00  0.00    +0.001 A 
ATOM     19  C   UNL     1      -1.861 -13.751  -2.238  0.00  0.00    +0.001 A 
ATOM     20  C   UNL     1      -2.958 -13.330  -1.550  0.00  0.00    +0.008 A 
ENDBRANCH  10  11
BRANCH   8  21
ATOM     21  N   UNL     1       0.611 -10.765   4.993  0.00  0.00    -0.328 N 
ATOM     22  H   UNL     1       0.571 -10.197   5.778  0.00  0.00    +0.145 HD
ATOM     23  H   UNL     1       0.878 -11.694   5.080  0.00  0.00    +0.145 HD
ENDBRANCH   8  21
BRANCH   9  24
ATOM     24  C   UNL     1       0.754 -12.432   2.845  0.00  0.00    +0.101 C 
ATOM     25  N   UNL     1       1.071 -13.514   2.979  0.00  0.00    -0.191 NA
ENDBRANCH   9  24
BRANCH   1  26
ATOM     26  O   UNL     1       0.067  -4.929   1.172  0.00  0.00    -0.422 OA
BRANCH  26  27
ATOM     27  C   UNL     1      -1.074  -4.295   0.840  0.00  0.00    +0.344 C 
ATOM     28  O   UNL     1      -2.048  -4.935   0.498  0.00  0.00    -0.245 OA
BRANCH  27  33
ATOM     29  C   UNL     1      -1.335   1.450   1.042  0.00  0.00    +0.044 C 
ATOM     30  C   UNL     1      -1.267  -0.055   0.989  0.00  0.00    -0.050 A 
ATOM     31  C   UNL     1      -2.378  -0.782   0.599  0.00  0.00    +0.004 A 
ATOM     32  C   UNL     1      -2.322  -2.159   0.548  0.00  0.00    +0.015 A 
ATOM     33  C   UNL     1      -1.141  -2.820   0.891  0.00  0.00    +0.059 A 
ATOM     34  C   UNL     1      -0.024  -2.080   1.285  0.00  0.00    +0.015 A 
ATOM     35  C   UNL     1      -0.092  -0.703   1.326  0.00  0.00    +0.004 A 
ENDBRANCH  27  33
ENDBRANCH  26  27
ENDBRANCH   1  26
TORSDOF 6
