REMARK  Name = ZINC16161930
REMARK  11 active torsions:
REMARK  status: ('A' for Active; 'I' for Inactive)
REMARK    1  A    between atoms: C_1  and  C_2
REMARK    2  A    between atoms: C_2  and  C_3
REMARK    3  A    between atoms: C_6  and  N_9
REMARK    4  A    between atoms: N_9  and  C_10
REMARK    5  A    between atoms: C_16  and  C_17
REMARK    6  A    between atoms: C_20  and  O_26
REMARK    7  A    between atoms: C_22  and  O_23
REMARK    8  A    between atoms: O_23  and  C_24
REMARK    9  A    between atoms: C_24  and  C_25
REMARK   10  A    between atoms: O_26  and  C_27
REMARK   11  A    between atoms: C_27  and  C_28
REMARK                            x       y       z     vdW  Elec       q    Type
REMARK                         _______ _______ _______ _____ _____    ______ ____
ROOT
ATOM      1  C   UNL     1       3.746   2.608   0.416  0.00  0.00    +0.224 C 
ATOM      2  N   UNL     1       2.664   3.605   0.359  0.00  0.00    -0.284 N 
ATOM      3  C   UNL     1       1.424   3.170   0.227  0.00  0.00    +0.252 C 
ATOM      4  O   UNL     1       0.498   3.959   0.177  0.00  0.00    -0.270 OA
ATOM      5  C   UNL     1       1.171   1.723   0.143  0.00  0.00    +0.074 C 
ATOM      6  C   UNL     1      -0.013   1.076   0.008  0.00  0.00    +0.031 C 
ATOM      7  S   UNL     1       2.813   1.031   0.270  0.00  0.00    -0.078 S 
ATOM      8  H   UNL     1       2.856   4.554   0.417  0.00  0.00    +0.152 HD
ENDROOT
BRANCH   6   9
ATOM      9  C   UNL     1      -1.240   1.838  -0.253  0.00  0.00    +0.019 A 
ATOM     10  C   UNL     1      -1.230   2.893  -1.173  0.00  0.00    +0.030 A 
ATOM     11  C   UNL     1      -2.384   3.605  -1.414  0.00  0.00    +0.060 A 
ATOM     12  C   UNL     1      -3.561   3.279  -0.747  0.00  0.00    +0.138 A 
ATOM     13  C   UNL     1      -3.581   2.236   0.168  0.00  0.00    +0.093 A 
ATOM     14  C   UNL     1      -2.431   1.508   0.415  0.00  0.00    +0.131 A 
ATOM     15 BR   UNL     1      -2.370   5.030  -2.657  0.00  0.00    -0.046 Br
BRANCH  14  16
ATOM     16  O   UNL     1      -2.451   0.483   1.305  0.00  0.00    -0.492 OA
BRANCH  16  17
ATOM     17  C   UNL     1      -3.697   0.205   1.946  0.00  0.00    +0.226 C 
ATOM     18  C   UNL     1      -3.525  -0.974   2.907  0.00  0.00    +0.048 C 
ENDBRANCH  16  17
ENDBRANCH  14  16
BRANCH  12  19
ATOM     19  O   UNL     1      -4.695   3.986  -0.990  0.00  0.00    -0.491 OA
BRANCH  19  20
ATOM     20  C   UNL     1      -5.867   3.600  -0.271  0.00  0.00    +0.226 C 
ATOM     21  C   UNL     1      -7.034   4.504  -0.675  0.00  0.00    +0.048 C 
ENDBRANCH  19  20
ENDBRANCH  12  19
ENDBRANCH   6   9
BRANCH   1  22
ATOM     22  N   UNL     1       4.674   2.779  -0.705  0.00  0.00    -0.317 N 
ATOM     23  H   UNL     1       4.420   3.323  -1.467  0.00  0.00    +0.149 HD
BRANCH  22  27
ATOM     24  C   UNL     1       8.403   0.928  -0.619  0.00  0.00    -0.048 A 
ATOM     25  C   UNL     1       8.043   1.703  -1.706  0.00  0.00    +0.005 A 
ATOM     26  C   UNL     1       6.806   2.318  -1.738  0.00  0.00    +0.023 A 
ATOM     27  C   UNL     1       5.925   2.158  -0.676  0.00  0.00    +0.029 A 
ATOM     28  C   UNL     1       6.293   1.383   0.416  0.00  0.00    +0.023 A 
ATOM     29  C   UNL     1       7.528   0.766   0.439  0.00  0.00    +0.005 A 
BRANCH  24  31
ATOM     30  C   UNL     1      10.772   1.194   0.064  0.00  0.00    +0.009 C 
ATOM     31  C   UNL     1       9.753   0.258  -0.588  0.00  0.00    +0.032 C 
ENDBRANCH  24  31
ENDBRANCH  22  27
ENDBRANCH   1  22
TORSDOF 8
