REMARK  Name = ZINC16034378
REMARK  5 active torsions:
REMARK  status: ('A' for Active; 'I' for Inactive)
REMARK    1  A    between atoms: C_12  and  C_26
REMARK    2  A    between atoms: C_14  and  C_21
REMARK    3  A    between atoms: C_16  and  C_17
REMARK    4  A    between atoms: C_16  and  C_19
REMARK    5  A    between atoms: C_26  and  C_28
REMARK                            x       y       z     vdW  Elec       q    Type
REMARK                         _______ _______ _______ _____ _____    ______ ____
ROOT
ATOM      1  C   UNL     1       6.446   6.888  -2.699  0.00  0.00    +0.001 A 
ATOM      2  C   UNL     1       5.356   6.375  -3.383  0.00  0.00    +0.002 A 
ATOM      3  C   UNL     1       4.151   6.175  -2.734  0.00  0.00    +0.024 A 
ATOM      4  C   UNL     1       4.030   6.488  -1.395  0.00  0.00    +0.038 A 
ATOM      5  C   UNL     1       5.138   7.015  -0.696  0.00  0.00    -0.004 A 
ATOM      6  C   UNL     1       6.342   7.209  -1.360  0.00  0.00    +0.010 A 
ATOM      7  C   UNL     1       4.979   7.349   0.739  0.00  0.00    +0.007 C 
ATOM      8  C   UNL     1       4.014   6.709   1.424  0.00  0.00    -0.002 C 
ATOM      9  C   UNL     1       3.197   5.719   0.651  0.00  0.00    +0.132 C 
ATOM     10  N   UNL     1       2.873   6.305  -0.678  0.00  0.00    -0.309 N 
ATOM     11  C   UNL     1       1.834   5.415  -1.208  0.00  0.00    +0.156 C 
ATOM     12  C   UNL     1       0.918   5.160   0.021  0.00  0.00    +0.090 C 
ATOM     13  C   UNL     1       1.824   5.412   1.254  0.00  0.00    +0.174 C 
ENDROOT
BRANCH  12  14
ATOM     14  C   UNL     1       0.421   3.738   0.017  0.00  0.00    -0.002 A 
ATOM     15  C   UNL     1      -0.855   3.279   0.027  0.00  0.00    +0.011 A 
ATOM     16  C   UNL     1      -1.077   1.915   0.017  0.00  0.00    +0.008 A 
ATOM     17  C   UNL     1      -0.013   1.076   0.008  0.00  0.00    +0.045 A 
ATOM     18  S   UNL     1       1.359   2.219   0.001  0.00  0.00    -0.101 S 
ENDBRANCH  12  14
BRANCH  13  19
ATOM     19  C   UNL     1       1.332   6.563   2.029  0.00  0.00    +0.087 C 
ATOM     20  N   UNL     1       0.952   7.452   2.626  0.00  0.00    -0.195 NA
ENDBRANCH  13  19
BRANCH  13  21
ATOM     21  C   UNL     1       1.889   4.210   2.100  0.00  0.00    +0.087 C 
ATOM     22  N   UNL     1       1.940   3.281   2.753  0.00  0.00    -0.195 NA
ENDBRANCH  13  21
BRANCH  11  23
ATOM     23  C   UNL     1       1.066   6.094  -2.312  0.00  0.00    +0.191 C 
ATOM     24  O   UNL     1       1.237   7.276  -2.532  0.00  0.00    -0.289 OA
BRANCH  23  25
ATOM     25  C   UNL     1       0.148   5.356  -3.090  0.00  0.00    +0.056 A 
ATOM     26  C   UNL     1      -0.657   5.786  -4.140  0.00  0.00    +0.019 A 
ATOM     27  C   UNL     1      -1.463   4.849  -4.732  0.00  0.00    +0.008 A 
ATOM     28  C   UNL     1      -1.448   3.571  -4.267  0.00  0.00    +0.046 A 
ATOM     29  S   UNL     1      -0.289   3.630  -2.979  0.00  0.00    -0.094 S 
ENDBRANCH  23  25
ENDBRANCH  11  23
TORSDOF 5
