REMARK  Name = ZINC15221503
REMARK  7 active torsions:
REMARK  status: ('A' for Active; 'I' for Inactive)
REMARK    1  A    between atoms: C_1  and  N_2
REMARK    2  A    between atoms: N_2  and  C_3
REMARK    3  A    between atoms: N_2  and  C_4
REMARK    4  A    between atoms: C_7  and  C_10
REMARK    5  A    between atoms: C_15  and  C_17
REMARK    6  A    between atoms: C_29  and  S_33
REMARK    7  A    between atoms: S_33  and  C_34
REMARK                            x       y       z     vdW  Elec       q    Type
REMARK                         _______ _______ _______ _____ _____    ______ ____
ROOT
ATOM      1  C   UNL     1      -8.055   3.732   0.103  0.00  0.00    +0.041 C 
ATOM      2  C   UNL     1      -6.905   2.972   0.191  0.00  0.00    +0.129 C 
ATOM      3  C   UNL     1      -5.522   3.468   0.294  0.00  0.00    +0.277 C 
ATOM      4  O   UNL     1      -5.155   4.628   0.321  0.00  0.00    -0.267 OA
ATOM      5  N   UNL     1      -4.746   2.363   0.350  0.00  0.00    -0.187 N 
ATOM      6  C   UNL     1      -5.568   1.257   0.296  0.00  0.00    +0.142 C 
ATOM      7  N   UNL     1      -6.821   1.612   0.203  0.00  0.00    -0.226 NA
ATOM      8  C   UNL     1      -3.362   2.344   0.451  0.00  0.00    +0.209 A 
ATOM      9  N   UNL     1      -2.569   3.450   0.544  0.00  0.00    -0.325 N 
ATOM     10  H   UNL     1      -2.876   4.402   0.551  0.00  0.00    +0.169 HD
ATOM     11  C   UNL     1      -1.257   3.009   0.625  0.00  0.00    +0.068 A 
ATOM     12  C   UNL     1      -0.033   3.652   0.735  0.00  0.00    +0.029 A 
ATOM     13  C   UNL     1       1.129   2.913   0.797  0.00  0.00    +0.017 A 
ATOM     14  C   UNL     1       1.082   1.520   0.749  0.00  0.00    +0.015 A 
ATOM     15  C   UNL     1      -0.132   0.866   0.640  0.00  0.00    +0.045 A 
ATOM     16  C   UNL     1      -1.314   1.607   0.572  0.00  0.00    +0.092 A 
ATOM     17  N   UNL     1      -2.625   1.264   0.470  0.00  0.00    -0.214 NA
ENDROOT
BRANCH   1  21
ATOM     18  C   UNL     1      -7.787   7.922  -0.381  0.00  0.00    +0.029 A 
ATOM     19  C   UNL     1      -6.930   7.085  -1.093  0.00  0.00    +0.023 A 
ATOM     20  C   UNL     1      -7.012   5.731  -0.940  0.00  0.00    +0.010 A 
ATOM     21  C   UNL     1      -7.962   5.182  -0.064  0.00  0.00    -0.023 A 
ATOM     22  C   UNL     1      -8.826   6.030   0.646  0.00  0.00    +0.010 A 
ATOM     23  C   UNL     1      -8.732   7.383   0.489  0.00  0.00    +0.023 A 
BRANCH  18  25
ATOM     24  C   UNL     1      -6.706   9.870  -1.455  0.00  0.00    +0.129 C 
ATOM     25  N   UNL     1      -7.699   9.300  -0.540  0.00  0.00    -0.336 N 
ATOM     26  C   UNL     1      -8.598  10.183   0.207  0.00  0.00    +0.129 C 
ENDBRANCH  18  25
ENDBRANCH   1  21
BRANCH   6  27
ATOM     27  C   UNL     1      -5.094  -0.142   0.337  0.00  0.00    +0.016 A 
ATOM     28  C   UNL     1      -4.011  -0.539  -0.450  0.00  0.00    +0.011 A 
ATOM     29  C   UNL     1      -3.570  -1.845  -0.401  0.00  0.00    +0.001 A 
ATOM     30  C   UNL     1      -4.206  -2.764   0.416  0.00  0.00    +0.000 A 
ATOM     31  C   UNL     1      -5.283  -2.378   1.194  0.00  0.00    +0.001 A 
ATOM     32  C   UNL     1      -5.731  -1.074   1.160  0.00  0.00    +0.011 A 
ENDBRANCH   6  27
BRANCH  14  33
ATOM     33  S   UNL     1       2.576   0.590   0.828  0.00  0.00    -0.089 S 
BRANCH  33  34
ATOM     34  C   UNL     1       2.890   0.433   2.554  0.00  0.00    +0.013 A 
ATOM     35  C   UNL     1       1.963   0.904   3.476  0.00  0.00    +0.015 A 
ATOM     36  C   UNL     1       2.210   0.775   4.829  0.00  0.00    +0.001 A 
ATOM     37  C   UNL     1       3.383   0.187   5.266  0.00  0.00    +0.000 A 
ATOM     38  C   UNL     1       4.310  -0.278   4.351  0.00  0.00    +0.001 A 
ATOM     39  C   UNL     1       4.067  -0.157   2.998  0.00  0.00    +0.015 A 
ENDBRANCH  33  34
ENDBRANCH  14  33
TORSDOF 5
