REMARK  Name = ZINC13399758
REMARK  6 active torsions:
REMARK  status: ('A' for Active; 'I' for Inactive)
REMARK    1  A    between atoms: C_1  and  C_2
REMARK    2  A    between atoms: C_2  and  C_3
REMARK    3  A    between atoms: C_3  and  O_4
REMARK    4  A    between atoms: O_4  and  C_5
REMARK    5  A    between atoms: C_11  and  C_31
REMARK    6  A    between atoms: C_21  and  C_30
REMARK                            x       y       z     vdW  Elec       q    Type
REMARK                         _______ _______ _______ _____ _____    ______ ____
ROOT
ATOM      1  C   UNL     1      -0.325   1.505  -0.048  0.00  0.00    +0.124 C 
ATOM      2  C   UNL     1       1.075   2.166  -0.168  0.00  0.00    +0.032 C 
ATOM      3  C   UNL     1       2.111   1.079   0.245  0.00  0.00    +0.007 C 
ATOM      4  C   UNL     1       1.229   0.030   0.932  0.00  0.00    +0.001 C 
ATOM      5  C   UNL     1       0.002  -0.004   0.002  0.00  0.00    -0.003 C 
ATOM      6  C   UNL     1      -1.072  -0.885   0.584  0.00  0.00    +0.010 C 
ATOM      7  C   UNL     1      -0.493  -2.289   0.862  0.00  0.00    +0.005 C 
ATOM      8  C   UNL     1       0.684  -2.205   1.813  0.00  0.00    +0.003 C 
ATOM      9  C   UNL     1       1.806  -1.315   1.243  0.00  0.00    +0.000 C 
ATOM     10  C   UNL     1       2.445  -2.030   0.058  0.00  0.00    +0.031 C 
ATOM     11  C   UNL     1       2.989  -3.351   0.542  0.00  0.00    -0.027 C 
ATOM     12  C   UNL     1       2.437  -4.008   1.515  0.00  0.00    -0.062 C 
ATOM     13  C   UNL     1       1.236  -3.532   2.284  0.00  0.00    -0.008 C 
ATOM     14  C   UNL     1       1.616  -3.431   3.769  0.00  0.00    +0.016 C 
ATOM     15  C   UNL     1       3.026  -3.967   3.995  0.00  0.00    +0.066 C 
ATOM     16  C   UNL     1       3.172  -5.380   3.436  0.00  0.00    +0.174 C 
ATOM     17  C   UNL     1       3.040  -5.347   1.908  0.00  0.00    +0.096 C 
ATOM     18  O   UNL     1       4.456  -5.913   3.786  0.00  0.00    -0.346 OA
ATOM     19  C   UNL     1       4.220  -6.988   4.720  0.00  0.00    +0.191 C 
ATOM     20  C   UNL     1       2.799  -7.465   4.331  0.00  0.00    +0.191 C 
ATOM     21  O   UNL     1       2.148  -6.226   3.978  0.00  0.00    -0.346 OA
ATOM     22  C   UNL     1       0.155  -4.610   2.173  0.00  0.00    +0.016 C 
ATOM     23  C   UNL     1       0.325  -0.420  -1.431  0.00  0.00    +0.014 C 
ENDROOT
BRANCH   1  24
ATOM     24  O   UNL     1      -1.116   1.788  -1.199  0.00  0.00    -0.376 OA
BRANCH  24  25
ATOM     25  C   UNL     1      -2.010   2.890  -1.032  0.00  0.00    +0.160 C 
BRANCH  25  27
ATOM     26  C   UNL     1      -3.762   4.282  -2.145  0.00  0.00    +0.006 C 
ATOM     27  C   UNL     1      -2.805   3.102  -2.323  0.00  0.00    +0.025 C 
ENDBRANCH  25  27
ENDBRANCH  24  25
ENDBRANCH   1  24
TORSDOF 3
