REMARK  Name = ZINC54726012
REMARK  13 active torsions:
REMARK  status: ('A' for Active; 'I' for Inactive)
REMARK    1  A    between atoms: C_1  and  C_2
REMARK    2  A    between atoms: C_4  and  C_31
REMARK    3  A    between atoms: C_5  and  N_9
REMARK    4  A    between atoms: C_6  and  C_8
REMARK    5  A    between atoms: C_10  and  C_12
REMARK    6  A    between atoms: C_12  and  N_13
REMARK    7  A    between atoms: N_16  and  C_17
REMARK    8  A    between atoms: C_17  and  C_18
REMARK    9  A    between atoms: C_18  and  C_19
REMARK   10  A    between atoms: C_18  and  C_20
REMARK   11  A    between atoms: C_18  and  N_21
REMARK   12  A    between atoms: C_23  and  C_30
REMARK   13  A    between atoms: C_26  and  C_29
REMARK                            x       y       z     vdW  Elec       q    Type
REMARK                         _______ _______ _______ _____ _____    ______ ____
ROOT
ATOM      1  N   UNL     1       0.536  -6.934   2.503  0.00  0.00    -0.291 N 
ATOM      2  C   UNL     1       0.796  -8.253   2.601  0.00  0.00    +0.300 C 
ATOM      3  O   UNL     1       0.588  -8.986   1.654  0.00  0.00    -0.253 OA
ATOM      4  N   UNL     1       1.287  -8.759   3.750  0.00  0.00    -0.301 N 
ATOM      5  H   UNL     1       0.702  -6.349   3.258  0.00  0.00    +0.151 HD
ATOM      6  H   UNL     1       1.453  -8.174   4.506  0.00  0.00    +0.150 HD
ENDROOT
BRANCH   1   7
ATOM      7  C   UNL     1       0.002  -6.384   1.254  0.00  0.00    +0.202 C 
BRANCH   7   9
ATOM      8  N   UNL     1      -0.684  -4.176   0.376  0.00  0.00    -0.284 N 
ATOM      9  C   UNL     1      -0.198  -4.898   1.405  0.00  0.00    +0.234 C 
ATOM     10  O   UNL     1       0.077  -4.352   2.452  0.00  0.00    -0.274 OA
ATOM     11  H   UNL     1      -0.983  -4.623  -0.432  0.00  0.00    +0.155 HD
BRANCH   8  16
ATOM     12  C   UNL     1      -0.982   1.476   0.766  0.00  0.00    +0.044 C 
ATOM     13  C   UNL     1      -0.903  -0.026   0.663  0.00  0.00    -0.050 A 
ATOM     14  C   UNL     1      -0.195  -0.609  -0.372  0.00  0.00    +0.008 A 
ATOM     15  C   UNL     1      -0.121  -1.985  -0.470  0.00  0.00    -0.029 A 
ATOM     16  C   UNL     1      -0.757  -2.782   0.472  0.00  0.00    +0.039 A 
ATOM     17  C   UNL     1      -1.467  -2.193   1.510  0.00  0.00    -0.029 A 
ATOM     18  C   UNL     1      -1.533  -0.817   1.605  0.00  0.00    +0.008 A 
ATOM     19  C   UNL     1      -2.159  -3.054   2.535  0.00  0.00    +0.045 C 
ATOM     20  C   UNL     1       0.650  -2.620  -1.599  0.00  0.00    +0.045 C 
ENDBRANCH   8  16
ENDBRANCH   7   9
ENDBRANCH   1   7
BRANCH   4  21
ATOM     21  C   UNL     1       1.570 -10.192   3.857  0.00  0.00    +0.093 C 
BRANCH  21  22
ATOM     22  C   UNL     1       2.231 -10.482   5.206  0.00  0.00    -0.055 C 
ATOM     23  C   UNL     1       1.251 -10.155   6.335  0.00  0.00    -0.008 C 
ATOM     24  C   UNL     1       2.616 -11.961   5.278  0.00  0.00    -0.008 C 
BRANCH  22  25
ATOM     25  N   UNL     1       3.436  -9.654   5.349  0.00  0.00    +0.384 N 
ATOM     26  C   UNL     1       4.344  -9.917   4.226  0.00  0.00    -0.075 C 
ATOM     27  C   UNL     1       5.564  -8.999   4.326  0.00  0.00    -0.031 C 
ATOM     28  C   UNL     1       6.292  -9.268   5.646  0.00  0.00    +0.003 C 
ATOM     29  C   UNL     1       5.314  -9.063   6.808  0.00  0.00    -0.031 C 
ATOM     30  C   UNL     1       4.103  -9.979   6.615  0.00  0.00    -0.075 C 
ATOM     31  C   UNL     1       6.010  -9.404   8.127  0.00  0.00    +0.005 C 
ATOM     32  C   UNL     1       5.109  -7.539   4.280  0.00  0.00    +0.005 C 
ATOM     33  H   UNL     1       3.175  -8.680   5.347  0.00  0.00    -0.081 HD
ENDBRANCH  22  25
ENDBRANCH  21  22
ENDBRANCH   4  21
TORSDOF 6
