REMARK  Name = ZINC03663979
REMARK  6 active torsions:
REMARK  status: ('A' for Active; 'I' for Inactive)
REMARK    1  A    between atoms: C_4  and  C_7
REMARK    2  A    between atoms: C_8  and  C_9
REMARK    3  A    between atoms: N_11  and  N_12
REMARK    4  A    between atoms: C_13  and  C_15
REMARK    5  A    between atoms: C_15  and  C_16
REMARK    6  A    between atoms: C_15  and  C_22
REMARK                            x       y       z     vdW  Elec       q    Type
REMARK                         _______ _______ _______ _____ _____    ______ ____
ROOT
ATOM      1  N   UNL     1      -0.292   5.260  -2.431  0.00  0.00    -0.233 N 
ATOM      2  C   UNL     1      -0.827   5.612  -1.245  0.00  0.00    +0.241 C 
ATOM      3  O   UNL     1      -1.917   6.143  -1.205  0.00  0.00    -0.273 OA
ATOM      4  H   UNL     1       0.580   4.836  -2.463  0.00  0.00    +0.173 HD
ENDROOT
BRANCH   1   7
ATOM      5  C   UNL     1      -0.460   5.154  -4.803  0.00  0.00    +0.253 C 
ATOM      6  O   UNL     1       0.633   4.622  -4.843  0.00  0.00    -0.269 OA
ATOM      7  N   UNL     1      -0.995   5.507  -3.617  0.00  0.00    -0.231 N 
ATOM      8  H   UNL     1      -1.867   5.931  -3.585  0.00  0.00    +0.173 HD
BRANCH   5  10
ATOM      9  C   UNL     1      -0.660   5.060  -7.229  0.00  0.00    +0.013 C 
ATOM     10  C   UNL     1      -1.195   5.412  -6.043  0.00  0.00    +0.069 C 
BRANCH   9  14
ATOM     11  C   UNL     1      -2.790   5.805 -10.822  0.00  0.00    +0.000 A 
ATOM     12  C   UNL     1      -1.546   5.200 -10.872  0.00  0.00    +0.001 A 
ATOM     13  C   UNL     1      -0.848   4.955  -9.709  0.00  0.00    +0.008 A 
ATOM     14  C   UNL     1      -1.399   5.319  -8.476  0.00  0.00    -0.025 A 
ATOM     15  C   UNL     1      -2.659   5.925  -8.434  0.00  0.00    +0.008 A 
ATOM     16  C   UNL     1      -3.342   6.169  -9.606  0.00  0.00    +0.001 A 
ENDBRANCH   9  14
ENDBRANCH   5  10
ENDBRANCH   1   7
BRANCH   2  17
ATOM     17  C   UNL     1      -0.070   5.347   0.031  0.00  0.00    +0.136 C 
BRANCH  17  18
ATOM     18  C   UNL     1       0.178   3.867   0.169  0.00  0.00    -0.031 A 
ATOM     19  C   UNL     1       1.456   3.401   0.419  0.00  0.00    +0.005 A 
ATOM     20  C   UNL     1       1.684   2.044   0.546  0.00  0.00    +0.000 A 
ATOM     21  C   UNL     1       0.635   1.152   0.423  0.00  0.00    +0.000 A 
ATOM     22  C   UNL     1      -0.642   1.618   0.168  0.00  0.00    +0.000 A 
ATOM     23  C   UNL     1      -0.871   2.975   0.046  0.00  0.00    +0.005 A 
ENDBRANCH  17  18
BRANCH  17  24
ATOM     24  C   UNL     1      -0.881   5.832   1.205  0.00  0.00    -0.031 A 
ATOM     25  C   UNL     1      -0.322   6.708   2.117  0.00  0.00    +0.005 A 
ATOM     26  C   UNL     1      -1.067   7.157   3.191  0.00  0.00    +0.000 A 
ATOM     27  C   UNL     1      -2.368   6.721   3.360  0.00  0.00    +0.000 A 
ATOM     28  C   UNL     1      -2.925   5.841   2.452  0.00  0.00    +0.000 A 
ATOM     29  C   UNL     1      -2.182   5.396   1.374  0.00  0.00    +0.005 A 
ENDBRANCH  17  24
ENDBRANCH   2  17
TORSDOF 6
