REMARK  Name = ZINC10002795
REMARK  13 active torsions:
REMARK  status: ('A' for Active; 'I' for Inactive)
REMARK    1  A    between atoms: C_1  and  C_2
REMARK    2  A    between atoms: C_2  and  C_3
REMARK    3  A    between atoms: C_2  and  C_4
REMARK    4  A    between atoms: C_4  and  C_5
REMARK    5  A    between atoms: C_5  and  C_7
REMARK    6  A    between atoms: C_5  and  N_23
REMARK    7  A    between atoms: N_9  and  N_10
REMARK    8  A    between atoms: C_11  and  C_12
REMARK    9  A    between atoms: C_15  and  O_19
REMARK   10  A    between atoms: O_19  and  C_20
REMARK   11  A    between atoms: C_20  and  C_21
REMARK   12  A    between atoms: C_20  and  C_22
REMARK   13  A    between atoms: C_24  and  C_26
REMARK                            x       y       z     vdW  Elec       q    Type
REMARK                         _______ _______ _______ _____ _____    ______ ____
ROOT
ATOM      1  C   UNL     1       4.547  -4.747   0.637  0.00  0.00    +0.253 C 
ATOM      2  O   UNL     1       5.372  -3.955   0.235  0.00  0.00    -0.272 OA
ATOM      3  N   UNL     1       4.675  -6.058   0.350  0.00  0.00    -0.205 N 
ATOM      4  H   UNL     1       4.014  -6.691   0.671  0.00  0.00    +0.177 HD
ENDROOT
BRANCH   3   5
ATOM      5  N   UNL     1       5.761  -6.505  -0.414  0.00  0.00    -0.188 NA
ATOM      6  C   UNL     1       5.884  -7.767  -0.691  0.00  0.00    +0.138 C 
BRANCH   6   7
ATOM      7  C   UNL     1       7.027  -8.237  -1.494  0.00  0.00    -0.004 A 
ATOM      8  C   UNL     1       7.976  -7.325  -1.963  0.00  0.00    +0.013 A 
ATOM      9  C   UNL     1       9.046  -7.769  -2.710  0.00  0.00    +0.047 A 
ATOM     10  C   UNL     1       9.177  -9.120  -3.005  0.00  0.00    +0.135 A 
ATOM     11  C   UNL     1       8.233 -10.030  -2.545  0.00  0.00    +0.060 A 
ATOM     12  C   UNL     1       7.162  -9.595  -1.793  0.00  0.00    +0.028 A 
ATOM     13 BR   UNL     1       8.416 -11.868  -2.952  0.00  0.00    -0.046 Br
BRANCH  10  14
ATOM     14  O   UNL     1      10.230  -9.553  -3.746  0.00  0.00    -0.488 OA
BRANCH  14  15
ATOM     15  C   UNL     1      11.097  -8.553  -4.287  0.00  0.00    +0.167 C 
ATOM     16  C   UNL     1      12.141  -8.163  -3.239  0.00  0.00    +0.051 C 
ATOM     17  C   UNL     1      11.801  -9.106  -5.527  0.00  0.00    +0.051 C 
ENDBRANCH  14  15
ENDBRANCH  10  14
ENDBRANCH   6   7
ENDBRANCH   3   5
BRANCH   1  18
ATOM     18  C   UNL     1       3.378  -4.266   1.458  0.00  0.00    +0.161 C 
BRANCH  18  19
ATOM     19  N   UNL     1       3.466  -2.814   1.630  0.00  0.00    -0.300 N 
ATOM     20  C   UNL     1       2.351  -2.094   1.865  0.00  0.00    +0.245 C 
ATOM     21  O   UNL     1       1.272  -2.650   1.933  0.00  0.00    -0.270 OA
ATOM     22  H   UNL     1       4.327  -2.371   1.575  0.00  0.00    +0.150 HD
BRANCH  20  23
ATOM     23  C   UNL     1       2.441  -0.629   2.038  0.00  0.00    +0.037 A 
ATOM     24  C   UNL     1       1.287   0.119   2.281  0.00  0.00    +0.014 A 
ATOM     25  C   UNL     1       1.377   1.486   2.441  0.00  0.00    +0.021 A 
ATOM     26  C   UNL     1       2.607   2.116   2.362  0.00  0.00    +0.041 A 
ATOM     27  C   UNL     1       3.755   1.379   2.121  0.00  0.00    +0.021 A 
ATOM     28  C   UNL     1       3.678   0.012   1.959  0.00  0.00    +0.014 A 
ATOM     29 CL   UNL     1       2.712   3.837   2.564  0.00  0.00    -0.084 Cl
ENDBRANCH  20  23
ENDBRANCH  18  19
BRANCH  18  30
ATOM     30  C   UNL     1       3.405  -4.945   2.829  0.00  0.00    +0.034 C 
BRANCH  30  32
ATOM     31  C   UNL     1       0.913  -5.111   2.913  0.00  0.00    +0.007 C 
ATOM     32  C   UNL     1       2.153  -4.553   3.617  0.00  0.00    -0.015 C 
ATOM     33  C   UNL     1       2.239  -5.130   5.031  0.00  0.00    +0.007 C 
ENDBRANCH  30  32
ENDBRANCH  18  30
ENDBRANCH   1  18
TORSDOF 9
