REMARK  Name = ZINC07524707
REMARK  5 active torsions:
REMARK  status: ('A' for Active; 'I' for Inactive)
REMARK    1  A    between atoms: C_3  and  C_14
REMARK    2  A    between atoms: C_5  and  C_6
REMARK    3  A    between atoms: C_6  and  N_37
REMARK    4  A    between atoms: C_7  and  C_8
REMARK    5  A    between atoms: C_7  and  N_37
REMARK                            x       y       z     vdW  Elec       q    Type
REMARK                         _______ _______ _______ _____ _____    ______ ____
ROOT
ATOM      1  C   UNL     1      -4.748   7.274   0.105  0.00  0.00    +0.043 A 
ATOM      2  C   UNL     1      -6.052   7.679   0.450  0.00  0.00    +0.050 A 
ATOM      3  C   UNL     1      -6.905   6.950  -0.317  0.00  0.00    +0.135 A 
ATOM      4  O   UNL     1      -6.172   6.138  -1.103  0.00  0.00    -0.462 OA
ATOM      5  C   UNL     1      -4.867   6.327  -0.846  0.00  0.00    +0.089 A 
ENDROOT
BRANCH   3   6
ATOM      6  C   UNL     1      -8.380   7.037  -0.298  0.00  0.00    +0.020 A 
ATOM      7  C   UNL     1      -9.018   7.926   0.569  0.00  0.00    +0.031 A 
ATOM      8  C   UNL     1     -10.396   8.007   0.579  0.00  0.00    +0.043 A 
ATOM      9  C   UNL     1     -11.146   7.201  -0.261  0.00  0.00    +0.040 A 
ATOM     10  C   UNL     1     -10.519   6.313  -1.119  0.00  0.00    +0.043 A 
ATOM     11  C   UNL     1      -9.141   6.227  -1.142  0.00  0.00    +0.031 A 
ATOM     12 CL   UNL     1     -11.468   5.307  -2.168  0.00  0.00    -0.083 Cl
ATOM     13 CL   UNL     1     -11.191   9.117   1.651  0.00  0.00    -0.083 Cl
ENDBRANCH   3   6
BRANCH   5  14
ATOM     14  C   UNL     1      -3.726   5.606  -1.516  0.00  0.00    -0.007 C 
BRANCH  14  15
ATOM     15  N   UNL     1      -3.404   4.390  -0.746  0.00  0.00    +0.385 N 
ATOM     16  H   UNL     1      -4.230   3.781  -0.713  0.00  0.00    -0.085 HD
ATOM     17  H   UNL     1      -3.136   4.655   0.209  0.00  0.00    -0.085 HD
BRANCH  15  18
ATOM     18  C   UNL     1      -2.289   3.662  -1.380  0.00  0.00    -0.050 C 
BRANCH  18  19
ATOM     19  C   UNL     1      -1.978   2.408  -0.561  0.00  0.00    +0.101 C 
ATOM     20  C   UNL     1      -0.811   1.623  -1.201  0.00  0.00    +0.032 C 
ATOM     21  C   UNL     1      -0.013   1.086   0.008  0.00  0.00    +0.030 C 
ATOM     22  C   UNL     1      -0.788   1.610   1.237  0.00  0.00    +0.160 C 
ATOM     23  O   UNL     1      -1.501   2.772   0.753  0.00  0.00    -0.378 OA
ENDBRANCH  18  19
ENDBRANCH  15  18
ENDBRANCH  14  15
ENDBRANCH   5  14
TORSDOF 5
