REMARK  Name = ZINC06999774
REMARK  8 active torsions:
REMARK  status: ('A' for Active; 'I' for Inactive)
REMARK    1  A    between atoms: C_1  and  C_2
REMARK    2  A    between atoms: C_2  and  C_3
REMARK    3  A    between atoms: C_8  and  N_9
REMARK    4  A    between atoms: C_10  and  C_12
REMARK    5  A    between atoms: C_12  and  N_13
REMARK    6  A    between atoms: C_14  and  N_29
REMARK    7  A    between atoms: C_15  and  C_18
REMARK    8  A    between atoms: N_20  and  C_21
REMARK                            x       y       z     vdW  Elec       q    Type
REMARK                         _______ _______ _______ _____ _____    ______ ____
ROOT
ATOM      1  N   UNL     1      -0.465   1.289   1.301  0.00  0.00    -0.222 N 
ATOM      2  C   UNL     1      -1.436   0.571   1.912  0.00  0.00    +0.148 A 
ATOM      3  C   UNL     1      -1.617   1.144   3.165  0.00  0.00    +0.188 A 
ATOM      4  N   UNL     1      -0.763   2.179   3.278  0.00  0.00    -0.123 NA
ATOM      5  N   UNL     1      -0.067   2.287   2.201  0.00  0.00    -0.063 NA
ENDROOT
BRANCH   3   6
ATOM      6  C   UNL     1      -2.573   0.700   4.187  0.00  0.00    +0.272 C 
ATOM      7  O   UNL     1      -3.297  -0.254   3.968  0.00  0.00    -0.268 OA
ATOM      8  N   UNL     1      -2.648   1.347   5.366  0.00  0.00    -0.280 N 
ATOM      9  H   UNL     1      -2.127   2.152   5.512  0.00  0.00    +0.155 HD
BRANCH   8  10
ATOM     10  C   UNL     1      -3.479   0.858   6.381  0.00  0.00    +0.037 A 
ATOM     11  C   UNL     1      -4.111   1.740   7.248  0.00  0.00    +0.026 A 
ATOM     12  C   UNL     1      -4.936   1.257   8.245  0.00  0.00    +0.043 A 
ATOM     13  C   UNL     1      -5.124  -0.107   8.389  0.00  0.00    +0.159 A 
ATOM     14  C   UNL     1      -4.490  -0.991   7.529  0.00  0.00    +0.160 A 
ATOM     15  C   UNL     1      -3.668  -0.510   6.526  0.00  0.00    +0.064 A 
ATOM     16  F   UNL     1      -4.675  -2.321   7.671  0.00  0.00    -0.202 F 
ATOM     17  F   UNL     1      -5.926  -0.577   9.369  0.00  0.00    -0.202 F 
ENDBRANCH   8  10
ENDBRANCH   3   6
BRANCH   2  18
ATOM     18  N   UNL     1      -2.112  -0.514   1.394  0.00  0.00    -0.341 N 
ATOM     19  H   UNL     1      -1.905  -0.833   0.502  0.00  0.00    +0.144 HD
ATOM     20  H   UNL     1      -2.795  -0.957   1.922  0.00  0.00    +0.144 HD
ENDBRANCH   2  18
BRANCH   1  21
ATOM     21  C   UNL     1       0.073   1.062  -0.043  0.00  0.00    +0.243 C 
BRANCH  21  23
ATOM     22  N   UNL     1      -0.410   1.801  -2.353  0.00  0.00    -0.284 N 
ATOM     23  C   UNL     1      -0.726   1.855  -1.044  0.00  0.00    +0.239 C 
ATOM     24  O   UNL     1      -1.654   2.542  -0.672  0.00  0.00    -0.273 OA
ATOM     25  H   UNL     1       0.377   1.314  -2.643  0.00  0.00    +0.155 HD
BRANCH  22  31
ATOM     26  C   UNL     1      -0.703   2.785  -4.539  0.00  0.00    -0.026 A 
ATOM     27  C   UNL     1      -1.504   3.422  -5.467  0.00  0.00    +0.005 A 
ATOM     28  C   UNL     1      -2.818   3.723  -5.159  0.00  0.00    +0.000 A 
ATOM     29  C   UNL     1      -3.335   3.386  -3.921  0.00  0.00    +0.002 A 
ATOM     30  C   UNL     1      -2.541   2.744  -2.990  0.00  0.00    +0.023 A 
ATOM     31  C   UNL     1      -1.219   2.446  -3.296  0.00  0.00    +0.037 A 
BRANCH  26  33
ATOM     32  C   UNL     1       0.814   1.021  -5.396  0.00  0.00    +0.009 C 
ATOM     33  C   UNL     1       0.728   2.458  -4.877  0.00  0.00    +0.033 C 
ENDBRANCH  26  33
ENDBRANCH  22  31
ENDBRANCH  21  23
ENDBRANCH   1  21
TORSDOF 7
