REMARK  Name = ZINC32815732
REMARK  5 active torsions:
REMARK  status: ('A' for Active; 'I' for Inactive)
REMARK    1  A    between atoms: C_5  and  N_8
REMARK    2  A    between atoms: N_8  and  N_9
REMARK    3  A    between atoms: C_10  and  C_12
REMARK    4  A    between atoms: N_17  and  C_19
REMARK    5  A    between atoms: C_19  and  C_20
REMARK                            x       y       z     vdW  Elec       q    Type
REMARK                         _______ _______ _______ _____ _____    ______ ____
ROOT
ATOM      1  N   UNL     1      -0.010   1.393   0.100  0.00  0.00    -0.236 N 
ATOM      2  C   UNL     1      -1.168   2.043   0.331  0.00  0.00    +0.234 C 
ATOM      3  O   UNL     1      -2.200   1.418   0.454  0.00  0.00    -0.274 OA
ATOM      4  H   UNL     1       0.926   1.961  -0.011  0.00  0.00    +0.173 HD
ENDROOT
BRANCH   2   5
ATOM      5  C   UNL     1      -1.181   3.546   0.437  0.00  0.00    +0.102 C 
ATOM      6  C   UNL     1      -0.705   4.198  -0.882  0.00  0.00    +0.110 C 
ATOM      7  C   UNL     1      -1.573   5.429  -1.022  0.00  0.00    +0.216 C 
ATOM      8  O   UNL     1      -1.343   6.361  -1.763  0.00  0.00    -0.276 OA
ATOM      9  N   UNL     1      -2.638   5.339  -0.206  0.00  0.00    -0.300 N 
ATOM     10  C   UNL     1      -2.626   4.080   0.549  0.00  0.00    +0.121 C 
BRANCH   9  11
ATOM     11  C   UNL     1      -3.677   6.365  -0.087  0.00  0.00    +0.111 C 
BRANCH  11  12
ATOM     12  C   UNL     1      -4.791   6.082  -1.097  0.00  0.00    +0.006 C 
ATOM     13  C   UNL     1      -5.024   7.118  -2.199  0.00  0.00    +0.005 C 
ATOM     14  C   UNL     1      -6.029   6.980  -1.052  0.00  0.00    +0.005 C 
ENDBRANCH  11  12
ENDBRANCH   9  11
ENDBRANCH   2   5
BRANCH   1  15
ATOM     15  N   UNL     1       0.002  -0.004   0.002  0.00  0.00    -0.262 N 
ATOM     16  H   UNL     1      -0.944  -0.565   0.020  0.00  0.00    +0.170 HD
BRANCH  15  21
ATOM     17  C   UNL     1       2.502  -2.499  -1.026  0.00  0.00    +0.042 A 
ATOM     18  C   UNL     1       3.623  -2.037  -0.358  0.00  0.00    +0.044 A 
ATOM     19  C   UNL     1       3.544  -0.902   0.429  0.00  0.00    +0.042 A 
ATOM     20  C   UNL     1       2.344  -0.225   0.550  0.00  0.00    +0.066 A 
ATOM     21  C   UNL     1       1.217  -0.686  -0.119  0.00  0.00    +0.081 A 
ATOM     22  C   UNL     1       1.298  -1.830  -0.904  0.00  0.00    +0.066 A 
ATOM     23 CL   UNL     1      -0.109  -2.414  -1.736  0.00  0.00    -0.081 Cl
ATOM     24 CL   UNL     1       2.246   1.199   1.538  0.00  0.00    -0.081 Cl
ATOM     25 CL   UNL     1       5.131  -2.883  -0.509  0.00  0.00    -0.083 Cl
ENDBRANCH  15  21
ENDBRANCH   1  15
TORSDOF 5
