REMARK  Name = ZINC50360373
REMARK  4 active torsions:
REMARK  status: ('A' for Active; 'I' for Inactive)
REMARK    1  A    between atoms: N_3  and  C_6
REMARK    2  A    between atoms: C_11  and  N_13
REMARK    3  A    between atoms: N_13  and  C_14
REMARK    4  A    between atoms: C_14  and  C_15
REMARK                            x       y       z     vdW  Elec       q    Type
REMARK                         _______ _______ _______ _____ _____    ______ ____
ROOT
ATOM      1  C   UNL     1       3.521   0.638  -0.028  0.00  0.00    +0.074 C 
ATOM      2  C   UNL     1       4.027  -0.132  -1.265  0.00  0.00    +0.023 C 
ATOM      3  C   UNL     1       5.277  -0.891  -0.754  0.00  0.00    +0.000 C 
ATOM      4  C   UNL     1       4.858  -1.316   0.675  0.00  0.00    -0.014 C 
ATOM      5  C   UNL     1       4.049  -0.113   1.206  0.00  0.00    -0.048 C 
ENDROOT
BRANCH   1   8
ATOM      6  C   UNL     1      -0.016   1.337   0.009  0.00  0.00    +0.101 A 
ATOM      7  C   UNL     1       1.259   1.771  -0.000  0.00  0.00    +0.104 A 
ATOM      8  N   UNL     1       2.056   0.658  -0.014  0.00  0.00    -0.337 N 
ATOM      9  C   UNL     1       1.240  -0.418  -0.012  0.00  0.00    +0.174 A 
ATOM     10  N   UNL     1       0.002  -0.004   0.002  0.00  0.00    -0.352 N 
ATOM     11  H   UNL     1      -0.781  -0.576   0.007  0.00  0.00    +0.166 HD
ENDBRANCH   1   8
BRANCH   5  12
ATOM     12  N   UNL     1       2.926  -0.585   2.027  0.00  0.00    +0.387 N 
ATOM     13  H   UNL     1       2.331   0.195   2.262  0.00  0.00    -0.085 HD
ATOM     14  H   UNL     1       2.396  -1.270   1.510  0.00  0.00    -0.085 HD
BRANCH  12  15
ATOM     15  C   UNL     1       3.443  -1.194   3.260  0.00  0.00    -0.006 C 
BRANCH  15  16
ATOM     16  C   UNL     1       2.291  -1.678   4.103  0.00  0.00    +0.091 A 
ATOM     17  C   UNL     1       1.737  -2.902   4.048  0.00  0.00    +0.059 A 
ATOM     18  C   UNL     1       0.695  -2.924   5.004  0.00  0.00    +0.070 A 
ATOM     19  C   UNL     1       0.676  -1.710   5.586  0.00  0.00    +0.184 A 
ATOM     20  O   UNL     1       1.648  -0.962   5.039  0.00  0.00    -0.454 OA
ATOM     21 BR   UNL     1      -0.514  -1.155   6.947  0.00  0.00    -0.007 Br
ATOM     22 BR   UNL     1      -0.450  -4.378   5.391  0.00  0.00    -0.046 Br
ENDBRANCH  15  16
ENDBRANCH  12  15
ENDBRANCH   5  12
TORSDOF 4
