REMARK  Name = ZINC07949682
REMARK  8 active torsions:
REMARK  status: ('A' for Active; 'I' for Inactive)
REMARK    1  A    between atoms: C_1  and  C_2
REMARK    2  A    between atoms: C_2  and  C_4
REMARK    3  A    between atoms: C_2  and  N_13
REMARK    4  A    between atoms: C_8  and  N_10
REMARK    5  A    between atoms: N_13  and  C_14
REMARK    6  A    between atoms: C_15  and  C_17
REMARK    7  A    between atoms: C_18  and  C_19
REMARK    8  A    between atoms: N_22  and  C_24
REMARK                            x       y       z     vdW  Elec       q    Type
REMARK                         _______ _______ _______ _____ _____    ______ ____
ROOT
ATOM      1  N   UNL     1      -1.201   5.816   0.837  0.00  0.00    -0.294 N 
ATOM      2  C   UNL     1      -2.558   5.357   0.531  0.00  0.00    +0.133 C 
ATOM      3  C   UNL     1      -1.003   6.750   1.788  0.00  0.00    +0.240 C 
ATOM      4  O   UNL     1       0.125   7.131   2.042  0.00  0.00    -0.271 OA
ENDROOT
BRANCH   1   6
ATOM      5  C   UNL     1      -0.291   5.406  -1.396  0.00  0.00    +0.033 C 
ATOM      6  C   UNL     1      -0.058   5.258   0.109  0.00  0.00    +0.103 C 
BRANCH   6   7
ATOM      7  C   UNL     1       0.093   3.799   0.453  0.00  0.00    -0.025 A 
ATOM      8  C   UNL     1      -0.968   2.932   0.269  0.00  0.00    +0.005 A 
ATOM      9  C   UNL     1      -0.827   1.593   0.580  0.00  0.00    +0.003 A 
ATOM     10  C   UNL     1       0.371   1.122   1.084  0.00  0.00    +0.033 A 
ATOM     11  C   UNL     1       1.432   1.989   1.267  0.00  0.00    +0.127 A 
ATOM     12  C   UNL     1       1.293   3.328   0.951  0.00  0.00    +0.038 A 
BRANCH  11  13
ATOM     13  N   UNL     1       2.717   1.484   1.801  0.00  0.00    +0.056 N 
ATOM     14  O   UNL     1       2.840   0.304   2.079  0.00  0.00    -0.126 OA
ATOM     15  O   UNL     1       3.652   2.248   1.962  0.00  0.00    -0.126 OA
ENDBRANCH  11  13
ENDBRANCH   6   7
ENDBRANCH   1   6
BRANCH   3  16
ATOM     16  C   UNL     1      -2.110   7.290   2.492  0.00  0.00    +0.068 C 
ATOM     17  C   UNL     1      -1.912   8.226   3.445  0.00  0.00    +0.016 C 
BRANCH  17  18
ATOM     18  C   UNL     1      -3.058   8.785   4.175  0.00  0.00    +0.013 A 
ATOM     19  C   UNL     1      -4.419   8.443   3.993  0.00  0.00    +0.142 A 
ATOM     20  N   UNL     1      -5.130   9.152   4.825  0.00  0.00    -0.174 NA
ATOM     21  N   UNL     1      -4.275   9.971   5.571  0.00  0.00    -0.239 N 
ATOM     22  C   UNL     1      -3.009   9.740   5.175  0.00  0.00    +0.122 A 
BRANCH  21  23
ATOM     23  C   UNL     1      -4.669  10.875   6.566  0.00  0.00    +0.065 A 
ATOM     24  C   UNL     1      -3.716  11.628   7.239  0.00  0.00    +0.028 A 
ATOM     25  C   UNL     1      -4.109  12.522   8.217  0.00  0.00    +0.002 A 
ATOM     26  C   UNL     1      -5.448  12.659   8.533  0.00  0.00    +0.000 A 
ATOM     27  C   UNL     1      -6.399  11.906   7.868  0.00  0.00    +0.002 A 
ATOM     28  C   UNL     1      -6.013  11.015   6.886  0.00  0.00    +0.028 A 
ENDBRANCH  21  23
ENDBRANCH  17  18
ENDBRANCH   3  16
TORSDOF 6
