REMARK  Name = ZINC12603939
REMARK  4 active torsions:
REMARK  status: ('A' for Active; 'I' for Inactive)
REMARK    1  A    between atoms: C_4  and  C_7
REMARK    2  A    between atoms: C_8  and  N_15
REMARK    3  A    between atoms: C_16  and  C_18
REMARK    4  A    between atoms: C_18  and  C_19
REMARK                            x       y       z     vdW  Elec       q    Type
REMARK                         _______ _______ _______ _____ _____    ______ ____
ROOT
ATOM      1  C   UNL     1       3.368   5.079   0.186  0.00  0.00    +0.112 A 
ATOM      2  C   UNL     1       2.949   3.787   0.087  0.00  0.00    +0.138 A 
ATOM      3  N   UNL     1       4.081   2.978   0.075  0.00  0.00    -0.281 N 
ATOM      4  C   UNL     1       4.381   1.634  -0.005  0.00  0.00    +0.102 A 
ATOM      5  C   UNL     1       5.644   1.214   0.016  0.00  0.00    +0.067 A 
ATOM      6  S   UNL     1       6.544   2.751   0.156  0.00  0.00    -0.058 S 
ATOM      7  C   UNL     1       5.142   3.845   0.176  0.00  0.00    +0.179 A 
ATOM      8  N   UNL     1       4.724   5.073   0.245  0.00  0.00    -0.219 NA
ENDROOT
BRANCH   1  12
ATOM      9  C   UNL     1       0.872   8.516   0.305  0.00  0.00    +0.000 A 
ATOM     10  C   UNL     1       2.043   8.489   1.042  0.00  0.00    +0.001 A 
ATOM     11  C   UNL     1       2.857   7.376   1.007  0.00  0.00    +0.010 A 
ATOM     12  C   UNL     1       2.498   6.277   0.228  0.00  0.00    +0.004 A 
ATOM     13  C   UNL     1       1.319   6.312  -0.516  0.00  0.00    +0.010 A 
ATOM     14  C   UNL     1       0.510   7.429  -0.469  0.00  0.00    +0.001 A 
ENDBRANCH   1  12
BRANCH   2  15
ATOM     15  N   UNL     1       1.624   3.353   0.005  0.00  0.00    -0.269 N 
ATOM     16  C   UNL     1       1.333   2.187  -0.606  0.00  0.00    +0.223 C 
ATOM     17  O   UNL     1       2.206   1.566  -1.175  0.00  0.00    -0.275 OA
ATOM     18  H   UNL     1       0.913   3.891   0.387  0.00  0.00    +0.156 HD
BRANCH  16  19
ATOM     19  C   UNL     1      -0.076   1.654  -0.580  0.00  0.00    +0.132 C 
BRANCH  19  20
ATOM     20  C   UNL     1      -0.133   0.347  -1.328  0.00  0.00    -0.020 A 
ATOM     21  C   UNL     1      -0.507   0.327  -2.659  0.00  0.00    +0.005 A 
ATOM     22  C   UNL     1      -0.554  -0.871  -3.346  0.00  0.00    +0.000 A 
ATOM     23  C   UNL     1      -0.237  -2.052  -2.701  0.00  0.00    +0.001 A 
ATOM     24  C   UNL     1       0.132  -2.034  -1.369  0.00  0.00    +0.020 A 
ATOM     25  C   UNL     1       0.184  -0.835  -0.682  0.00  0.00    +0.045 A 
ATOM     26 CL   UNL     1       0.647  -0.812   0.991  0.00  0.00    -0.083 Cl
ENDBRANCH  19  20
ENDBRANCH  16  19
ENDBRANCH   2  15
TORSDOF 4
