REMARK  Name = ZINC63541060
REMARK  7 active torsions:
REMARK  status: ('A' for Active; 'I' for Inactive)
REMARK    1  A    between atoms: C_1  and  C_2
REMARK    2  A    between atoms: C_2  and  O_3
REMARK    3  A    between atoms: O_3  and  C_4
REMARK    4  A    between atoms: C_9  and  S_14
REMARK    5  A    between atoms: S_14  and  C_15
REMARK    6  A    between atoms: C_15  and  C_16
REMARK    7  A    between atoms: N_18  and  C_19
REMARK                            x       y       z     vdW  Elec       q    Type
REMARK                         _______ _______ _______ _____ _____    ______ ____
ROOT
ATOM      1  S   UNL     1      -4.168  -6.814   1.479  0.00  0.00    -0.106 S 
ENDROOT
BRANCH   1   7
ATOM      2  C   UNL     1      -1.498  -1.845   0.006  0.00  0.00    +0.123 A 
ATOM      3  C   UNL     1      -0.317  -2.699  -0.004  0.00  0.00    +0.048 A 
ATOM      4  C   UNL     1      -0.409  -4.042  -0.010  0.00  0.00    +0.031 A 
ATOM      5  C   UNL     1      -1.733  -4.683  -0.006  0.00  0.00    +0.061 A 
ATOM      6  N   UNL     1      -2.101  -5.931  -0.012  0.00  0.00    -0.355 N 
ATOM      7  C   UNL     1      -3.568  -5.960  -0.005  0.00  0.00    +0.236 C 
ATOM      8  N   UNL     1      -4.010  -4.560   0.005  0.00  0.00    -0.355 N 
ATOM      9  C   UNL     1      -2.940  -3.813   0.004  0.00  0.00    +0.064 A 
ATOM     10  C   UNL     1      -2.752  -2.361   0.016  0.00  0.00    +0.073 A 
ATOM     11  H   UNL     1      -1.513  -6.702  -0.019  0.00  0.00    +0.162 HD
ATOM     12  H   UNL     1      -4.929  -4.248   0.011  0.00  0.00    +0.162 HD
BRANCH   2  13
ATOM     13  O   UNL     1      -1.339  -0.499   0.012  0.00  0.00    -0.492 OA
BRANCH  13  15
ATOM     14  C   UNL     1      -0.019   1.526   0.010  0.00  0.00    +0.048 C 
ATOM     15  C   UNL     1       0.002  -0.004   0.002  0.00  0.00    +0.225 C 
ENDBRANCH  13  15
ENDBRANCH   2  13
ENDBRANCH   1   7
BRANCH   1  16
ATOM     16  C   UNL     1      -3.468  -5.854   2.850  0.00  0.00    +0.168 C 
BRANCH  16  17
ATOM     17  C   UNL     1      -3.894  -6.465   4.160  0.00  0.00    +0.225 C 
ATOM     18  O   UNL     1      -4.601  -7.451   4.168  0.00  0.00    -0.275 OA
ATOM     19  N   UNL     1      -3.491  -5.916   5.323  0.00  0.00    -0.288 N 
ATOM     20  H   UNL     1      -2.926  -5.128   5.317  0.00  0.00    +0.151 HD
BRANCH  19  21
ATOM     21  C   UNL     1      -3.905  -6.510   6.596  0.00  0.00    +0.224 C 
ATOM     22  N   UNL     1      -3.595  -5.618   7.721  0.00  0.00    -0.316 N 
ATOM     23  C   UNL     1      -2.701  -6.082   8.685  0.00  0.00    +0.043 A 
ATOM     24  C   UNL     1      -2.286  -5.373   9.826  0.00  0.00    +0.024 A 
ATOM     25  C   UNL     1      -1.396  -5.920  10.720  0.00  0.00    +0.002 A 
ATOM     26  C   UNL     1      -0.879  -7.188  10.528  0.00  0.00    +0.001 A 
ATOM     27  C   UNL     1      -1.270  -7.910   9.413  0.00  0.00    +0.016 A 
ATOM     28  C   UNL     1      -2.160  -7.361   8.518  0.00  0.00    +0.032 A 
ATOM     29  S   UNL     1      -2.876  -7.975   7.009  0.00  0.00    -0.082 S 
ATOM     30  H   UNL     1      -3.997  -4.738   7.791  0.00  0.00    +0.149 HD
ENDBRANCH  19  21
ENDBRANCH  16  17
ENDBRANCH   1  16
TORSDOF 6
