REMARK  Name = ZINC17534947
REMARK  5 active torsions:
REMARK  status: ('A' for Active; 'I' for Inactive)
REMARK    1  A    between atoms: C_1  and  C_2
REMARK    2  A    between atoms: N_13  and  C_26
REMARK    3  A    between atoms: C_14  and  S_16
REMARK    4  A    between atoms: S_16  and  C_17
REMARK    5  A    between atoms: C_17  and  C_18
REMARK                            x       y       z     vdW  Elec       q    Type
REMARK                         _______ _______ _______ _____ _____    ______ ____
ROOT
ATOM      1  C   UNL     1       3.672   0.022   2.300  0.00  0.00    +0.008 C 
ATOM      2  C   UNL     1       2.313   0.707   2.134  0.00  0.00    -0.009 C 
ATOM      3  C   UNL     1       1.320  -0.270   1.499  0.00  0.00    +0.008 C 
ATOM      4  C   UNL     1      -0.092   0.312   1.560  0.00  0.00    +0.037 C 
ATOM      5  C   UNL     1      -0.076   1.715   0.957  0.00  0.00    -0.023 A 
ATOM      6  C   UNL     1       1.087   2.392   0.825  0.00  0.00    -0.004 A 
ATOM      7  S   UNL     1       0.640   3.946   0.092  0.00  0.00    -0.073 S 
ATOM      8  C   UNL     1      -1.101   3.686  -0.035  0.00  0.00    +0.117 A 
ATOM      9  C   UNL     1      -1.280   2.392   0.505  0.00  0.00    +0.076 A 
ATOM     10  C   UNL     1      -2.616   1.875   0.537  0.00  0.00    +0.268 A 
ATOM     11  O   UNL     1      -2.872   0.768   0.979  0.00  0.00    -0.267 OA
ATOM     12  N   UNL     1      -3.579   2.694   0.051  0.00  0.00    -0.255 N 
ATOM     13  C   UNL     1      -3.314   3.936  -0.448  0.00  0.00    +0.178 A 
ATOM     14  N   UNL     1      -2.089   4.441  -0.497  0.00  0.00    -0.215 NA
ATOM     15  C   UNL     1       2.457   1.928   1.215  0.00  0.00    +0.046 C 
ENDROOT
BRANCH  12  16
ATOM     16  C   UNL     1      -4.906   2.246   0.061  0.00  0.00    +0.052 A 
ATOM     17  C   UNL     1      -5.416   1.554  -1.029  0.00  0.00    +0.026 A 
ATOM     18  C   UNL     1      -6.723   1.109  -1.014  0.00  0.00    +0.002 A 
ATOM     19  C   UNL     1      -7.528   1.362   0.082  0.00  0.00    +0.000 A 
ATOM     20  C   UNL     1      -7.025   2.056   1.167  0.00  0.00    +0.002 A 
ATOM     21  C   UNL     1      -5.717   2.499   1.160  0.00  0.00    +0.026 A 
ENDBRANCH  12  16
BRANCH  13  22
ATOM     22  S   UNL     1      -4.655   4.907  -1.052  0.00  0.00    -0.079 S 
BRANCH  22  23
ATOM     23  C   UNL     1      -3.758   6.392  -1.569  0.00  0.00    +0.153 C 
BRANCH  23  24
ATOM     24  C   UNL     1      -4.731   7.394  -2.136  0.00  0.00    +0.146 A 
ATOM     25  N   UNL     1      -5.009   7.386  -3.428  0.00  0.00    -0.199 NA
ATOM     26  C   UNL     1      -5.872   8.266  -3.931  0.00  0.00    +0.217 A 
ATOM     27  N   UNL     1      -6.446   9.160  -3.134  0.00  0.00    -0.181 NA
ATOM     28  C   UNL     1      -6.160   9.169  -1.836  0.00  0.00    +0.217 A 
ATOM     29  N   UNL     1      -5.300   8.283  -1.340  0.00  0.00    -0.199 NA
ATOM     30  N   UNL     1      -6.753  10.097  -1.005  0.00  0.00    -0.327 N 
ATOM     31  N   UNL     1      -6.165   8.252  -5.279  0.00  0.00    -0.327 N 
ATOM     32  H   UNL     1      -6.544  10.103  -0.058  0.00  0.00    +0.145 HD
ATOM     33  H   UNL     1      -7.379  10.743  -1.367  0.00  0.00    +0.145 HD
ATOM     34  H   UNL     1      -6.791   8.896  -5.645  0.00  0.00    +0.145 HD
ATOM     35  H   UNL     1      -5.746   7.599  -5.860  0.00  0.00    +0.145 HD
ENDBRANCH  23  24
ENDBRANCH  22  23
ENDBRANCH  13  22
TORSDOF 4
