REMARK  Name = ZINC36028184
REMARK  11 active torsions:
REMARK  status: ('A' for Active; 'I' for Inactive)
REMARK    1  A    between atoms: C_1  and  C_2
REMARK    2  A    between atoms: C_2  and  C_3
REMARK    3  A    between atoms: C_3  and  C_5
REMARK    4  A    between atoms: C_3  and  C_6
REMARK    5  A    between atoms: C_6  and  N_7
REMARK    6  A    between atoms: C_10  and  C_30
REMARK    7  A    between atoms: N_16  and  S_19
REMARK    8  A    between atoms: S_19  and  C_22
REMARK    9  A    between atoms: C_30  and  C_32
REMARK   10  A    between atoms: C_30  and  C_33
REMARK   11  A    between atoms: C_33  and  C_34
REMARK                            x       y       z     vdW  Elec       q    Type
REMARK                         _______ _______ _______ _____ _____    ______ ____
ROOT
ATOM      1  N   UNL     1       1.417  -1.671  -2.534  0.00  0.00    -0.313 N 
ATOM      2  C   UNL     1       0.922  -1.678  -3.789  0.00  0.00    +0.201 C 
ATOM      3  O   UNL     1      -0.096  -1.128  -4.152  0.00  0.00    -0.277 OA
ATOM      4  C   UNL     1       1.852  -2.486  -4.668  0.00  0.00    +0.022 C 
ATOM      5  N   UNL     1       3.112  -2.586  -3.893  0.00  0.00    +0.401 N 
ATOM      6  C   UNL     1       2.660  -2.446  -2.495  0.00  0.00    +0.006 C 
ATOM      7  C   UNL     1       2.404  -3.828  -1.898  0.00  0.00    +0.023 C 
ATOM      8  C   UNL     1       1.900  -3.676  -0.459  0.00  0.00    +0.109 C 
ATOM      9  N   UNL     1       2.857  -2.853   0.292  0.00  0.00    -0.177 NA
ATOM     10  C   UNL     1       3.226  -1.534  -0.240  0.00  0.00    +0.109 C 
ATOM     11  C   UNL     1       3.719  -1.704  -1.681  0.00  0.00    +0.023 C 
ATOM     12  H   UNL     1       3.551  -3.483  -4.040  0.00  0.00    -0.082 HD
ATOM     13  H   UNL     1       3.741  -1.836  -4.137  0.00  0.00    -0.082 HD
ENDROOT
BRANCH   9  14
ATOM     14  S   UNL     1       3.508  -3.402   1.712  0.00  0.00    +0.062 S 
ATOM     15  O   UNL     1       3.760  -2.256   2.514  0.00  0.00    -0.153 OA
ATOM     16  O   UNL     1       2.682  -4.472   2.151  0.00  0.00    -0.153 OA
BRANCH  14  17
ATOM     17  C   UNL     1       5.079  -4.103   1.329  0.00  0.00    +0.125 A 
ATOM     18  C   UNL     1       6.235  -3.498   1.785  0.00  0.00    +0.030 A 
ATOM     19  C   UNL     1       7.468  -4.047   1.484  0.00  0.00    +0.003 A 
ATOM     20  C   UNL     1       7.545  -5.201   0.728  0.00  0.00    +0.021 A 
ATOM     21  C   UNL     1       6.389  -5.808   0.272  0.00  0.00    +0.061 A 
ATOM     22  C   UNL     1       5.154  -5.261   0.578  0.00  0.00    +0.086 A 
ATOM     23 CL   UNL     1       3.702  -6.026   0.012  0.00  0.00    -0.080 Cl
ATOM     24 CL   UNL     1       6.486  -7.258  -0.678  0.00  0.00    -0.082 Cl
ENDBRANCH  14  17
ENDBRANCH   9  14
BRANCH   4  25
ATOM     25  C   UNL     1       2.095  -1.763  -5.994  0.00  0.00    -0.020 C 
ATOM     26  C   UNL     1       3.064  -2.580  -6.850  0.00  0.00    +0.006 C 
BRANCH  25  27
ATOM     27  C   UNL     1       0.767  -1.603  -6.738  0.00  0.00    -0.001 C 
ATOM     28  C   UNL     1       0.989  -0.772  -8.003  0.00  0.00    +0.004 C 
ENDBRANCH  25  27
ENDBRANCH   4  25
BRANCH   1  29
ATOM     29  C   UNL     1       0.808  -0.991  -1.388  0.00  0.00    +0.109 C 
BRANCH  29  30
ATOM     30  C   UNL     1       1.043   0.516  -1.506  0.00  0.00    +0.003 C 
ATOM     31  C   UNL     1       2.535   0.785  -1.714  0.00  0.00    +0.009 C 
BRANCH  30  33
ATOM     32  C   UNL     1       0.693   2.724  -0.391  0.00  0.00    +0.004 C 
ATOM     33  C   UNL     1       0.574   1.208  -0.225  0.00  0.00    +0.001 C 
ENDBRANCH  30  33
ENDBRANCH  29  30
ENDBRANCH   1  29
TORSDOF 7
