REMARK  Name = ZINC16888804
REMARK  11 active torsions:
REMARK  status: ('A' for Active; 'I' for Inactive)
REMARK    1  A    between atoms: C_1  and  C_2
REMARK    2  A    between atoms: C_2  and  C_3
REMARK    3  A    between atoms: C_3  and  C_4
REMARK    4  A    between atoms: C_4  and  C_5
REMARK    5  A    between atoms: C_5  and  C_6
REMARK    6  A    between atoms: C_6  and  N_7
REMARK    7  A    between atoms: C_9  and  C_17
REMARK    8  A    between atoms: C_17  and  C_18
REMARK    9  A    between atoms: C_18  and  C_20
REMARK   10  A    between atoms: C_18  and  N_21
REMARK   11  A    between atoms: C_22  and  C_24
REMARK                            x       y       z     vdW  Elec       q    Type
REMARK                         _______ _______ _______ _____ _____    ______ ____
ROOT
ATOM      1  C   UNL     1      -6.330   4.864  -3.689  0.00  0.00    +0.059 C 
ENDROOT
BRANCH   1   4
ATOM      2  N   UNL     1      -3.933   7.640  -3.363  0.00  0.00    -0.346 N 
ATOM      3  C   UNL     1      -5.125   7.025  -3.091  0.00  0.00    +0.090 A 
ATOM      4  C   UNL     1      -5.188   5.846  -3.730  0.00  0.00    -0.020 A 
ATOM      5  C   UNL     1      -3.938   5.697  -4.479  0.00  0.00    +0.004 A 
ATOM      6  C   UNL     1      -3.184   6.855  -4.212  0.00  0.00    +0.049 A 
ATOM      7  C   UNL     1      -1.929   7.003  -4.793  0.00  0.00    +0.027 A 
ATOM      8  C   UNL     1      -1.435   6.020  -5.622  0.00  0.00    +0.017 A 
ATOM      9  C   UNL     1      -2.178   4.877  -5.886  0.00  0.00    +0.019 A 
ATOM     10  C   UNL     1      -3.423   4.710  -5.321  0.00  0.00    +0.025 A 
ATOM     11 BR   UNL     1      -1.477   3.542  -7.027  0.00  0.00    -0.050 Br
BRANCH   2  12
ATOM     12  C   UNL     1      -3.517   8.941  -2.833  0.00  0.00    +0.122 C 
BRANCH  12  13
ATOM     13  C   UNL     1      -3.864  10.037  -3.843  0.00  0.00    +0.022 C 
BRANCH  13  14
ATOM     14  C   UNL     1      -3.430  11.396  -3.290  0.00  0.00    +0.002 C 
BRANCH  14  15
ATOM     15  C   UNL     1      -3.777  12.491  -4.300  0.00  0.00    -0.000 C 
BRANCH  15  17
ATOM     16  C   UNL     1      -3.691  14.946  -4.757  0.00  0.00    +0.004 C 
ATOM     17  C   UNL     1      -3.343  13.850  -3.747  0.00  0.00    -0.003 C 
ENDBRANCH  15  17
ENDBRANCH  14  15
ENDBRANCH  13  14
ENDBRANCH  12  13
ENDBRANCH   2  12
ENDBRANCH   1   4
BRANCH   1  18
ATOM     18  C   UNL     1      -6.054   3.804  -2.622  0.00  0.00    +0.074 C 
ATOM     19  C   UNL     1      -7.268   2.881  -2.493  0.00  0.00    +0.028 C 
BRANCH  18  20
ATOM     20  N   UNL     1      -4.880   3.017  -3.008  0.00  0.00    -0.312 N 
ATOM     21  C   UNL     1      -4.146   2.395  -2.064  0.00  0.00    +0.221 C 
ATOM     22  O   UNL     1      -4.456   2.488  -0.896  0.00  0.00    -0.275 OA
ATOM     23  H   UNL     1      -4.632   2.943  -3.943  0.00  0.00    +0.149 HD
BRANCH  21  24
ATOM     24  C   UNL     1      -2.938   1.585  -2.462  0.00  0.00    +0.129 C 
ATOM     25  C   UNL     1      -2.849   0.285  -1.630  0.00  0.00    +0.137 C 
ATOM     26  C   UNL     1      -1.784   0.598  -0.595  0.00  0.00    +0.308 C 
ATOM     27  O   UNL     1      -1.720   0.150   0.526  0.00  0.00    -0.251 OA
ATOM     28  O   UNL     1      -0.925   1.467  -1.158  0.00  0.00    -0.457 OA
ATOM     29  C   UNL     1      -1.640   2.325  -2.088  0.00  0.00    +0.125 C 
ATOM     30  C   UNL     1      -0.801   2.557  -3.344  0.00  0.00    +0.049 C 
ATOM     31  C   UNL     1       0.487   3.292  -2.970  0.00  0.00    +0.004 C 
ATOM     32  C   UNL     1       0.139   4.634  -2.322  0.00  0.00    +0.000 C 
ATOM     33  C   UNL     1      -0.687   4.390  -1.057  0.00  0.00    +0.004 C 
ATOM     34  C   UNL     1      -1.979   3.658  -1.425  0.00  0.00    +0.049 C 
ENDBRANCH  21  24
ENDBRANCH  18  20
ENDBRANCH   1  18
TORSDOF 9
