REMARK  Name = ZINC09034033
REMARK  9 active torsions:
REMARK  status: ('A' for Active; 'I' for Inactive)
REMARK    1  A    between atoms: C_1  and  C_2
REMARK    2  A    between atoms: C_2  and  C_39
REMARK    3  A    between atoms: C_4  and  C_9
REMARK    4  A    between atoms: C_9  and  C_11
REMARK    5  A    between atoms: C_9  and  N_76
REMARK    6  A    between atoms: C_11  and  C_12
REMARK    7  A    between atoms: C_18  and  C_19
REMARK    8  A    between atoms: C_18  and  N_76
REMARK    9  A    between atoms: C_31  and  C_38
REMARK                            x       y       z     vdW  Elec       q    Type
REMARK                         _______ _______ _______ _____ _____    ______ ____
ROOT
ATOM      1  N   UNL     1       0.871  -0.471  -1.228  0.00  0.00    +0.382 N 
ATOM      2  H   UNL     1       0.498  -0.227  -2.153  0.00  0.00    -0.085 HD
ATOM      3  H   UNL     1       1.812  -0.073  -1.123  0.00  0.00    -0.085 HD
ENDROOT
BRANCH   1   4
ATOM      4  C   UNL     1       0.947  -1.939  -1.106  0.00  0.00    -0.064 C 
BRANCH   4   8
ATOM      5  C   UNL     1      -2.490  -2.437  -3.748  0.00  0.00    +0.041 C 
ATOM      6  C   UNL     1      -1.131  -2.999  -4.168  0.00  0.00    +0.064 C 
ATOM      7  C   UNL     1      -0.022  -2.291  -3.384  0.00  0.00    +0.036 C 
ATOM      8  C   UNL     1      -0.201  -2.577  -1.890  0.00  0.00    -0.020 C 
ATOM      9  C   UNL     1      -0.195  -4.092  -1.667  0.00  0.00    +0.030 C 
ATOM     10  C   UNL     1      -1.297  -4.730  -2.516  0.00  0.00    +0.161 C 
ATOM     11  O   UNL     1      -1.088  -4.400  -3.891  0.00  0.00    -0.374 OA
ATOM     12  C   UNL     1      -0.924  -2.768  -5.666  0.00  0.00    +0.041 C 
ENDBRANCH   4   8
BRANCH   4  13
ATOM     13  C   UNL     1       2.283  -2.422  -1.674  0.00  0.00    +0.019 C 
BRANCH  13  14
ATOM     14  C   UNL     1       3.411  -1.892  -0.826  0.00  0.00    -0.049 A 
ATOM     15  C   UNL     1       3.991  -0.675  -1.130  0.00  0.00    +0.003 A 
ATOM     16  C   UNL     1       5.023  -0.186  -0.350  0.00  0.00    +0.000 A 
ATOM     17  C   UNL     1       5.479  -0.920   0.729  0.00  0.00    +0.000 A 
ATOM     18  C   UNL     1       4.902  -2.139   1.031  0.00  0.00    +0.000 A 
ATOM     19  C   UNL     1       3.868  -2.625   0.253  0.00  0.00    +0.003 A 
ENDBRANCH  13  14
ENDBRANCH   4  13
ENDBRANCH   1   4
BRANCH   1  20
ATOM     20  C   UNL     1      -0.011   0.086  -0.186  0.00  0.00    -0.067 C 
BRANCH  20  21
ATOM     21  C   UNL     1       0.046   1.613  -0.242  0.00  0.00    +0.087 C 
ATOM     22  C   UNL     1      -0.810   2.230   0.879  0.00  0.00    +0.042 C 
ATOM     23  C   UNL     1       0.002   2.622   2.087  0.00  0.00    +0.016 C 
ATOM     24  C   UNL     1       1.023   3.720   1.781  0.00  0.00    +0.021 C 
ATOM     25  C   UNL     1       1.671   4.140   3.088  0.00  0.00    -0.073 C 
ATOM     26  C   UNL     1       2.954   3.968   3.293  0.00  0.00    +0.008 C 
ATOM     27  C   UNL     1       0.787   4.764   4.145  0.00  0.00    +0.030 C 
ATOM     28  C   UNL     1      -0.002   5.915   3.516  0.00  0.00    +0.005 C 
ATOM     29  C   UNL     1      -0.745   5.413   2.276  0.00  0.00    +0.007 C 
ATOM     30  C   UNL     1       0.264   4.937   1.234  0.00  0.00    -0.022 C 
ATOM     31  C   UNL     1      -0.431   4.555  -0.063  0.00  0.00    +0.052 C 
ATOM     32  C   UNL     1      -1.449   3.433   0.149  0.00  0.00    +0.181 C 
ATOM     33  O   UNL     1      -1.697   2.852  -1.188  0.00  0.00    -0.461 OA
ATOM     34  C   UNL     1      -0.606   2.127  -1.516  0.00  0.00    +0.309 C 
ATOM     35  O   UNL     1      -0.212   1.920  -2.639  0.00  0.00    -0.251 OA
ATOM     36  C   UNL     1       1.256   6.069   0.960  0.00  0.00    +0.012 C 
ENDBRANCH  20  21
ENDBRANCH   1  20
TORSDOF 6
