REMARK  Name = ZINC00663905
REMARK  8 active torsions:
REMARK  status: ('A' for Active; 'I' for Inactive)
REMARK    1  A    between atoms: C_1  and  C_2
REMARK    2  A    between atoms: C_8  and  C_29
REMARK    3  A    between atoms: C_9  and  C_27
REMARK    4  A    between atoms: C_10  and  S_12
REMARK    5  A    between atoms: S_12  and  C_13
REMARK    6  A    between atoms: C_13  and  C_14
REMARK    7  A    between atoms: N_16  and  C_17
REMARK    8  A    between atoms: C_18  and  C_25
REMARK                            x       y       z     vdW  Elec       q    Type
REMARK                         _______ _______ _______ _____ _____    ______ ____
ROOT
ATOM      1  C   UNL     1      -0.763   1.598  -1.223  0.00  0.00    +0.008 C 
ATOM      2  C   UNL     1      -0.013   1.086   0.008  0.00  0.00    -0.009 C 
ATOM      3  C   UNL     1       1.424   1.622  -0.003  0.00  0.00    +0.010 C 
ATOM      4  C   UNL     1       2.213   0.908   1.092  0.00  0.00    +0.056 C 
ATOM      5  C   UNL     1       1.483   0.984   2.409  0.00  0.00    +0.046 A 
ATOM      6  C   UNL     1       0.140   1.287   2.489  0.00  0.00    -0.013 A 
ATOM      7  C   UNL     1      -0.478   1.332   3.732  0.00  0.00    +0.080 A 
ATOM      8  C   UNL     1       0.283   1.072   4.875  0.00  0.00    +0.095 A 
ATOM      9  C   UNL     1       1.649   0.776   4.716  0.00  0.00    +0.116 A 
ATOM     10  N   UNL     1       2.185   0.743   3.509  0.00  0.00    -0.244 NA
ATOM     11  C   UNL     1      -0.702   1.584   1.277  0.00  0.00    +0.040 C 
ENDROOT
BRANCH   7  12
ATOM     12  C   UNL     1      -1.945   1.656   3.847  0.00  0.00    +0.419 C 
ATOM     13  F   UNL     1      -2.188   2.296   5.067  0.00  0.00    -0.166 F 
ATOM     14  F   UNL     1      -2.320   2.499   2.795  0.00  0.00    -0.166 F 
ATOM     15  F   UNL     1      -2.690   0.473   3.785  0.00  0.00    -0.166 F 
ENDBRANCH   7  12
BRANCH   8  16
ATOM     16  C   UNL     1      -0.313   1.107   6.176  0.00  0.00    +0.102 C 
ATOM     17  N   UNL     1      -0.785   1.135   7.209  0.00  0.00    -0.191 NA
ENDBRANCH   8  16
BRANCH   9  18
ATOM     18  S   UNL     1       2.647   0.448   6.130  0.00  0.00    -0.095 S 
BRANCH  18  19
ATOM     19  C   UNL     1       4.241   0.146   5.327  0.00  0.00    +0.172 C 
BRANCH  19  20
ATOM     20  C   UNL     1       5.280  -0.165   6.373  0.00  0.00    +0.228 C 
ATOM     21  O   UNL     1       4.973  -0.181   7.546  0.00  0.00    -0.275 OA
ATOM     22  N   UNL     1       6.550  -0.424   6.005  0.00  0.00    -0.278 N 
ATOM     23  H   UNL     1       6.796  -0.411   5.067  0.00  0.00    +0.155 HD
BRANCH  22  24
ATOM     24  C   UNL     1       7.507  -0.711   6.969  0.00  0.00    +0.090 A 
ATOM     25  C   UNL     1       8.848  -1.000   6.789  0.00  0.00    +0.084 A 
ATOM     26  C   UNL     1       9.650  -1.267   7.982  0.00  0.00    -0.018 A 
ATOM     27  C   UNL     1       8.979  -1.201   9.147  0.00  0.00    -0.004 A 
ATOM     28  S   UNL     1       7.315  -0.785   8.687  0.00  0.00    -0.077 S 
ATOM     29  C   UNL     1       9.867  -1.490  10.327  0.00  0.00    +0.043 C 
ATOM     30  C   UNL     1      11.112  -2.174   9.719  0.00  0.00    +0.010 C 
ATOM     31  C   UNL     1      11.109  -1.613   8.283  0.00  0.00    +0.037 C 
BRANCH  25  32
ATOM     32  C   UNL     1       9.430  -1.038   5.481  0.00  0.00    +0.102 C 
ATOM     33  N   UNL     1       9.892  -1.068   4.444  0.00  0.00    -0.191 NA
ENDBRANCH  25  32
ENDBRANCH  22  24
ENDBRANCH  19  20
ENDBRANCH  18  19
ENDBRANCH   9  18
TORSDOF 7
