REMARK  Name = ZINC39972764
REMARK  8 active torsions:
REMARK  status: ('A' for Active; 'I' for Inactive)
REMARK    1  A    between atoms: C_1  and  C_2
REMARK    2  A    between atoms: C_2  and  C_3
REMARK    3  A    between atoms: C_3  and  C_5
REMARK    4  A    between atoms: C_3  and  N_6
REMARK    5  A    between atoms: N_9  and  C_10
REMARK    6  A    between atoms: C_11  and  C_22
REMARK    7  A    between atoms: C_12  and  C_16
REMARK    8  A    between atoms: C_13  and  C_15
REMARK                            x       y       z     vdW  Elec       q    Type
REMARK                         _______ _______ _______ _____ _____    ______ ____
ROOT
ATOM      1  C   UNL     1      -5.449   0.427  -2.444  0.00  0.00    +0.091 A 
ATOM      2  C   UNL     1      -6.266   0.770  -3.514  0.00  0.00    +0.088 A 
ATOM      3  C   UNL     1      -7.692   0.810  -3.265  0.00  0.00    +0.011 A 
ATOM      4  C   UNL     1      -8.129   0.512  -2.015  0.00  0.00    -0.003 A 
ATOM      5  S   UNL     1      -6.623   0.159  -1.130  0.00  0.00    -0.077 S 
ATOM      6  C   UNL     1      -9.546   0.481  -1.501  0.00  0.00    +0.052 C 
ENDROOT
BRANCH   1  10
ATOM      7  N   UNL     1      -2.105  -0.148  -1.230  0.00  0.00    -0.297 N 
ATOM      8  C   UNL     1      -3.448  -0.040  -1.265  0.00  0.00    +0.304 C 
ATOM      9  O   UNL     1      -4.102  -0.261  -0.264  0.00  0.00    -0.252 OA
ATOM     10  N   UNL     1      -4.067   0.315  -2.409  0.00  0.00    -0.263 N 
ATOM     11  H   UNL     1      -1.584   0.029  -2.029  0.00  0.00    +0.151 HD
ATOM     12  H   UNL     1      -3.545   0.492  -3.207  0.00  0.00    +0.157 HD
BRANCH   7  13
ATOM     13  C   UNL     1      -1.433  -0.534   0.013  0.00  0.00    +0.071 C 
ATOM     14  C   UNL     1      -1.413  -2.059   0.130  0.00  0.00    +0.028 C 
BRANCH  13  16
ATOM     15  C   UNL     1      -0.019   1.526   0.010  0.00  0.00    +0.005 C 
ATOM     16  C   UNL     1       0.002  -0.004   0.002  0.00  0.00    +0.019 C 
ENDBRANCH  13  16
ENDBRANCH   7  13
ENDBRANCH   1  10
BRANCH   3  17
ATOM     17  C   UNL     1      -8.646   1.166  -4.342  0.00  0.00    -0.016 A 
ATOM     18  C   UNL     1      -9.402   2.334  -4.250  0.00  0.00    +0.008 A 
ATOM     19  C   UNL     1     -10.289   2.660  -5.256  0.00  0.00    +0.001 A 
ATOM     20  C   UNL     1     -10.428   1.831  -6.355  0.00  0.00    +0.000 A 
ATOM     21  C   UNL     1      -9.680   0.671  -6.452  0.00  0.00    +0.001 A 
ATOM     22  C   UNL     1      -8.787   0.337  -5.455  0.00  0.00    +0.008 A 
ENDBRANCH   3  17
BRANCH   2  23
ATOM     23  C   UNL     1      -5.723   1.072  -4.805  0.00  0.00    +0.102 C 
ATOM     24  N   UNL     1      -5.291   1.311  -5.828  0.00  0.00    -0.191 NA
ENDBRANCH   2  23
TORSDOF 5
