REMARK  Name = ZINC05271731
REMARK  6 active torsions:
REMARK  status: ('A' for Active; 'I' for Inactive)
REMARK    1  A    between atoms: C_1  and  O_2
REMARK    2  A    between atoms: O_2  and  C_3
REMARK    3  A    between atoms: C_7  and  C_11
REMARK    4  A    between atoms: C_8  and  O_9
REMARK    5  A    between atoms: O_9  and  C_10
REMARK    6  A    between atoms: N_13  and  N_14
REMARK                            x       y       z     vdW  Elec       q    Type
REMARK                         _______ _______ _______ _____ _____    ______ ____
ROOT
ATOM      1  N   UNL     1       0.002  -0.004   0.002  0.00  0.00    -0.242 N 
ATOM      2  C   UNL     1      -1.183  -0.710   0.009  0.00  0.00    +0.176 A 
ATOM      3  N   UNL     1      -1.368  -2.011   0.004  0.00  0.00    -0.223 NA
ATOM      4  C   UNL     1      -2.599  -2.569   0.014  0.00  0.00    +0.084 A 
ATOM      5  C   UNL     1      -3.681  -1.663   0.028  0.00  0.00    +0.041 A 
ATOM      6  S   UNL     1      -2.859  -0.088   0.037  0.00  0.00    -0.051 S 
ATOM      7  C   UNL     1      -4.987  -2.079   0.036  0.00  0.00    +0.017 A 
ATOM      8  C   UNL     1      -5.268  -3.429   0.033  0.00  0.00    +0.005 A 
ATOM      9  C   UNL     1      -4.228  -4.360   0.021  0.00  0.00    -0.042 A 
ATOM     10  C   UNL     1      -2.923  -3.951   0.008  0.00  0.00    -0.018 A 
ATOM     11  C   UNL     1      -1.764  -4.914  -0.018  0.00  0.00    +0.037 C 
ATOM     12  C   UNL     1      -2.216  -6.311   0.404  0.00  0.00    +0.005 C 
ATOM     13  C   UNL     1      -3.448  -6.689  -0.427  0.00  0.00    +0.005 C 
ATOM     14  C   UNL     1      -4.618  -5.818   0.025  0.00  0.00    +0.035 C 
ATOM     15  H   UNL     1       0.849  -0.478  -0.009  0.00  0.00    +0.172 HD
ENDROOT
BRANCH   1  18
ATOM     16  C   UNL     1       1.141   2.087   0.002  0.00  0.00    +0.264 C 
ATOM     17  O   UNL     1       2.202   1.493  -0.011  0.00  0.00    -0.269 OA
ATOM     18  N   UNL     1      -0.017   1.397   0.010  0.00  0.00    -0.231 N 
ATOM     19  H   UNL     1      -0.864   1.870   0.016  0.00  0.00    +0.173 HD
BRANCH  16  24
ATOM     20  C   UNL     1       2.291   5.673   0.010  0.00  0.00    +0.162 A 
ATOM     21  C   UNL     1       1.076   6.338   0.025  0.00  0.00    +0.049 A 
ATOM     22  C   UNL     1      -0.112   5.625   0.033  0.00  0.00    +0.005 A 
ATOM     23  C   UNL     1      -0.097   4.248   0.026  0.00  0.00    +0.017 A 
ATOM     24  C   UNL     1       1.121   3.562   0.011  0.00  0.00    +0.083 A 
ATOM     25  C   UNL     1       2.322   4.282   0.009  0.00  0.00    +0.174 A 
BRANCH  20  27
ATOM     26  C   UNL     1       3.346   7.804   0.010  0.00  0.00    +0.277 C 
ATOM     27  O   UNL     1       3.453   6.379   0.002  0.00  0.00    -0.491 OA
ENDBRANCH  20  27
BRANCH  25  28
ATOM     28  O   UNL     1       3.510   3.626  -0.001  0.00  0.00    -0.491 OA
ATOM     29  C   UNL     1       4.072   3.320  -1.278  0.00  0.00    +0.277 C 
ENDBRANCH  25  28
ENDBRANCH  16  24
ENDBRANCH   1  18
TORSDOF 4
