REMARK  Name = ZINC06448540
REMARK  7 active torsions:
REMARK  status: ('A' for Active; 'I' for Inactive)
REMARK    1  A    between atoms: C_5  and  C_7
REMARK    2  A    between atoms: C_7  and  N_8
REMARK    3  A    between atoms: N_13  and  C_14
REMARK    4  A    between atoms: C_14  and  N_16
REMARK    5  A    between atoms: N_16  and  N_17
REMARK    6  A    between atoms: C_18  and  C_20
REMARK    7  A    between atoms: C_22  and  C_26
REMARK                            x       y       z     vdW  Elec       q    Type
REMARK                         _______ _______ _______ _____ _____    ______ ____
ROOT
ATOM      1  C   UNL     1       2.576  -3.533   5.654  0.00  0.00    +0.152 C 
ATOM      2  S   UNL     1       1.193  -4.541   5.636  0.00  0.00    -0.017 S 
ENDROOT
BRANCH   1   8
ATOM      3  N   UNL     1       0.595  -3.496   1.934  0.00  0.00    -0.265 N 
ATOM      4  C   UNL     1       1.413  -2.623   1.309  0.00  0.00    +0.110 A 
ATOM      5  C   UNL     1       2.394  -2.281   2.174  0.00  0.00    +0.065 A 
ATOM      6  C   UNL     1       2.169  -2.971   3.376  0.00  0.00    +0.146 A 
ATOM      7  N   UNL     1       1.084  -3.696   3.232  0.00  0.00    -0.156 NA
ATOM      8  N   UNL     1       2.960  -2.896   4.530  0.00  0.00    -0.279 N 
ATOM      9  H   UNL     1       3.784  -2.384   4.520  0.00  0.00    +0.155 HD
BRANCH   3  10
ATOM     10  C   UNL     1      -0.599  -4.120   1.359  0.00  0.00    +0.181 C 
BRANCH  10  15
ATOM     11  C   UNL     1       0.102  -7.738   0.537  0.00  0.00    +0.000 A 
ATOM     12  C   UNL     1      -0.292  -8.369   1.702  0.00  0.00    +0.003 A 
ATOM     13  C   UNL     1      -0.785  -7.626   2.757  0.00  0.00    +0.039 A 
ATOM     14  C   UNL     1      -0.885  -6.249   2.648  0.00  0.00    +0.128 A 
ATOM     15  C   UNL     1      -0.490  -5.619   1.480  0.00  0.00    +0.009 A 
ATOM     16  C   UNL     1       0.003  -6.364   0.426  0.00  0.00    +0.008 A 
ATOM     17  F   UNL     1      -1.368  -5.522   3.679  0.00  0.00    -0.205 F 
ENDBRANCH  10  15
ENDBRANCH   3  10
ENDBRANCH   1   8
BRANCH   1  18
ATOM     18  N   UNL     1       3.281  -3.376   6.792  0.00  0.00    -0.245 N 
ATOM     19  H   UNL     1       3.005  -3.835   7.600  0.00  0.00    +0.172 HD
BRANCH  18  20
ATOM     20  N   UNL     1       4.413  -2.551   6.806  0.00  0.00    -0.230 N 
ATOM     21  C   UNL     1       5.119  -2.395   7.944  0.00  0.00    +0.280 C 
ATOM     22  O   UNL     1       4.772  -2.970   8.958  0.00  0.00    -0.267 OA
ATOM     23  H   UNL     1       4.690  -2.092   5.997  0.00  0.00    +0.173 HD
BRANCH  21  24
ATOM     24  C   UNL     1       6.312  -1.525   7.960  0.00  0.00    +0.149 A 
ATOM     25  C   UNL     1       7.152  -1.267   9.069  0.00  0.00    +0.057 A 
ATOM     26  C   UNL     1       8.106  -0.422   8.612  0.00  0.00    +0.040 A 
ATOM     27  N   UNL     1       7.845  -0.192   7.308  0.00  0.00    -0.281 N 
ATOM     28  H   UNL     1       8.372   0.381   6.729  0.00  0.00    +0.189 HD
ATOM     29  N   UNL     1       6.801  -0.845   6.941  0.00  0.00    -0.169 NA
BRANCH  26  30
ATOM     30  C   UNL     1       9.245   0.156   9.411  0.00  0.00    +0.037 C 
ATOM     31  C   UNL     1       9.709   1.571   9.060  0.00  0.00    +0.010 C 
ATOM     32  C   UNL     1      10.578   0.367   8.690  0.00  0.00    +0.010 C 
ENDBRANCH  26  30
ENDBRANCH  21  24
ENDBRANCH  18  20
ENDBRANCH   1  18
TORSDOF 7
