REMARK  Name = ZINC34379777
REMARK  12 active torsions:
REMARK  status: ('A' for Active; 'I' for Inactive)
REMARK    1  A    between atoms: C_1  and  C_2
REMARK    2  A    between atoms: C_2  and  C_3
REMARK    3  A    between atoms: C_3  and  C_4
REMARK    4  A    between atoms: C_4  and  C_5
REMARK    5  A    between atoms: C_5  and  C_6
REMARK    6  A    between atoms: C_6  and  C_7
REMARK    7  A    between atoms: C_7  and  C_9
REMARK    8  A    between atoms: C_7  and  N_10
REMARK    9  A    between atoms: C_11  and  C_30
REMARK   10  A    between atoms: C_12  and  C_27
REMARK   11  A    between atoms: C_13  and  C_21
REMARK   12  A    between atoms: C_14  and  C_15
REMARK                            x       y       z     vdW  Elec       q    Type
REMARK                         _______ _______ _______ _____ _____    ______ ____
ROOT
ATOM      1  N   UNL     1       2.099  -6.029   3.903  0.00  0.00    -0.340 N 
ATOM      2  C   UNL     1       2.471  -6.872   2.920  0.00  0.00    +0.029 A 
ATOM      3  C   UNL     1       2.123  -8.147   3.265  0.00  0.00    +0.065 A 
ATOM      4  C   UNL     1       1.478  -8.058   4.585  0.00  0.00    +0.020 A 
ATOM      5  C   UNL     1       1.500  -6.719   4.925  0.00  0.00    +0.058 A 
ATOM      6  C   UNL     1       3.162  -6.471   1.642  0.00  0.00    +0.064 C 
ENDROOT
BRANCH   5   7
ATOM      7  C   UNL     1       0.969  -6.132   6.172  0.00  0.00    -0.001 A 
ATOM      8  C   UNL     1       0.038  -5.093   6.117  0.00  0.00    +0.010 A 
ATOM      9  C   UNL     1      -0.454  -4.550   7.286  0.00  0.00    +0.001 A 
ATOM     10  C   UNL     1      -0.026  -5.032   8.510  0.00  0.00    +0.000 A 
ATOM     11  C   UNL     1       0.896  -6.061   8.572  0.00  0.00    +0.001 A 
ATOM     12  C   UNL     1       1.392  -6.618   7.411  0.00  0.00    +0.010 A 
ENDBRANCH   5   7
BRANCH   4  13
ATOM     13  C   UNL     1       0.925  -9.173   5.386  0.00  0.00    -0.015 A 
ATOM     14  C   UNL     1      -0.449  -9.256   5.617  0.00  0.00    +0.008 A 
ATOM     15  C   UNL     1      -0.958 -10.298   6.364  0.00  0.00    +0.001 A 
ATOM     16  C   UNL     1      -0.110 -11.260   6.884  0.00  0.00    +0.000 A 
ATOM     17  C   UNL     1       1.252 -11.183   6.659  0.00  0.00    +0.001 A 
ATOM     18  C   UNL     1       1.774 -10.149   5.909  0.00  0.00    +0.008 A 
ENDBRANCH   4  13
BRANCH   3  19
ATOM     19  C   UNL     1       2.347  -9.368   2.474  0.00  0.00    +0.244 C 
ATOM     20  O   UNL     1       3.375 -10.002   2.613  0.00  0.00    -0.270 OA
ATOM     21  N   UNL     1       1.412  -9.782   1.596  0.00  0.00    -0.325 N 
ATOM     22  H   UNL     1       0.592  -9.277   1.485  0.00  0.00    +0.145 HD
ATOM     23  H   UNL     1       1.560 -10.587   1.074  0.00  0.00    +0.145 HD
ENDBRANCH   3  19
BRANCH   1  24
ATOM     24  C   UNL     1       2.310  -4.580   3.884  0.00  0.00    +0.084 C 
ATOM     25  C   UNL     1       3.787  -4.282   3.618  0.00  0.00    +0.031 C 
BRANCH  24  26
ATOM     26  C   UNL     1       1.456  -3.954   2.779  0.00  0.00    +0.025 C 
BRANCH  26  27
ATOM     27  C   UNL     1       1.566  -2.430   2.851  0.00  0.00    +0.002 C 
BRANCH  27  28
ATOM     28  C   UNL     1       0.712  -1.804   1.746  0.00  0.00    +0.000 C 
BRANCH  28  29
ATOM     29  C   UNL     1       0.822  -0.280   1.818  0.00  0.00    -0.000 C 
BRANCH  29  31
ATOM     30  C   UNL     1       0.078   1.870   0.785  0.00  0.00    +0.004 C 
ATOM     31  C   UNL     1      -0.032   0.345   0.713  0.00  0.00    -0.003 C 
ENDBRANCH  29  31
ENDBRANCH  28  29
ENDBRANCH  27  28
ENDBRANCH  26  27
ENDBRANCH  24  26
ENDBRANCH   1  24
TORSDOF 9
