REMARK  Name = ZINC21793906
REMARK  4 active torsions:
REMARK  status: ('A' for Active; 'I' for Inactive)
REMARK    1  A    between atoms: N_10  and  S_11
REMARK    2  A    between atoms: S_11  and  C_14
REMARK    3  A    between atoms: C_17  and  C_20
REMARK    4  A    between atoms: C_20  and  N_21
REMARK                            x       y       z     vdW  Elec       q    Type
REMARK                         _______ _______ _______ _____ _____    ______ ____
ROOT
ATOM      1  S   UNL     1      -2.837   3.032   4.972  0.00  0.00    +0.075 S 
ATOM      2  O   UNL     1      -2.697   4.446   4.992  0.00  0.00    -0.150 OA
ATOM      3  O   UNL     1      -4.106   2.393   4.992  0.00  0.00    -0.150 OA
ENDROOT
BRANCH   1  13
ATOM      4  C   UNL     1       1.306   4.550   7.707  0.00  0.00    +0.000 A 
ATOM      5  C   UNL     1       0.768   4.862   6.472  0.00  0.00    +0.002 A 
ATOM      6  C   UNL     1      -0.325   4.163   6.001  0.00  0.00    +0.025 A 
ATOM      7  C   UNL     1      -0.884   3.147   6.768  0.00  0.00    +0.054 A 
ATOM      8  C   UNL     1      -0.343   2.833   8.005  0.00  0.00    -0.025 A 
ATOM      9  C   UNL     1       0.753   3.540   8.470  0.00  0.00    +0.005 A 
ATOM     10  C   UNL     1      -0.918   1.736   8.860  0.00  0.00    +0.038 C 
ATOM     11  C   UNL     1      -2.359   1.434   8.447  0.00  0.00    +0.025 C 
ATOM     12  C   UNL     1      -2.404   1.206   6.934  0.00  0.00    +0.132 C 
ATOM     13  N   UNL     1      -1.995   2.453   6.274  0.00  0.00    -0.203 N 
ENDBRANCH   1  13
BRANCH   1  14
ATOM     14  C   UNL     1      -2.011   2.465   3.523  0.00  0.00    +0.109 A 
ATOM     15  C   UNL     1      -2.364   1.255   2.954  0.00  0.00    +0.029 A 
ATOM     16  C   UNL     1      -1.716   0.811   1.817  0.00  0.00    +0.003 A 
ATOM     17  C   UNL     1      -0.715   1.576   1.248  0.00  0.00    -0.065 A 
ATOM     18  C   UNL     1      -0.358   2.783   1.819  0.00  0.00    +0.003 A 
ATOM     19  C   UNL     1      -1.009   3.229   2.954  0.00  0.00    +0.029 A 
BRANCH  17  20
ATOM     20  C   UNL     1      -0.009   1.091   0.008  0.00  0.00    -0.051 C 
BRANCH  20  21
ATOM     21  N   UNL     1      -0.720   1.578  -1.182  0.00  0.00    +0.381 N 
ATOM     22  H   UNL     1      -0.204   1.224  -2.087  0.00  0.00    -0.090 HD
ATOM     23  H   UNL     1      -0.736   2.678  -1.175  0.00  0.00    -0.090 HD
ATOM     24  H   UNL     1      -1.751   1.196  -1.175  0.00  0.00    -0.090 HD
ENDBRANCH  20  21
ENDBRANCH  17  20
ENDBRANCH   1  14
TORSDOF 4
