REMARK  Name = ZINC08273702
REMARK  7 active torsions:
REMARK  status: ('A' for Active; 'I' for Inactive)
REMARK    1  A    between atoms: C_1  and  C_2
REMARK    2  A    between atoms: C_2  and  C_3
REMARK    3  A    between atoms: C_3  and  C_30
REMARK    4  A    between atoms: N_6  and  C_10
REMARK    5  A    between atoms: C_10  and  C_11
REMARK    6  A    between atoms: C_22  and  C_24
REMARK    7  A    between atoms: C_30  and  C_31
REMARK                            x       y       z     vdW  Elec       q    Type
REMARK                         _______ _______ _______ _____ _____    ______ ____
ROOT
ATOM      1  C   UNL     1      -0.872   6.295   2.152  0.00  0.00    +0.238 C 
ATOM      2  O   UNL     1      -1.758   6.774   2.828  0.00  0.00    -0.273 OA
ATOM      3  N   UNL     1      -1.145   5.821   0.920  0.00  0.00    -0.256 N 
ATOM      4  C   UNL     1      -2.466   5.760   0.438  0.00  0.00    +0.079 A 
ATOM      5  C   UNL     1      -3.531   5.917   1.310  0.00  0.00    +0.027 A 
ATOM      6  C   UNL     1      -4.827   5.859   0.832  0.00  0.00    +0.002 A 
ATOM      7  C   UNL     1      -5.059   5.646  -0.515  0.00  0.00    +0.004 A 
ATOM      8  C   UNL     1      -4.000   5.488  -1.389  0.00  0.00    +0.047 A 
ATOM      9  C   UNL     1      -2.697   5.543  -0.917  0.00  0.00    +0.142 A 
ATOM     10  O   UNL     1      -1.662   5.383  -1.783  0.00  0.00    -0.488 OA
ATOM     11  C   UNL     1      -0.378   5.868  -1.383  0.00  0.00    +0.256 C 
ATOM     12  C   UNL     1      -0.071   5.350   0.030  0.00  0.00    +0.149 C 
ENDROOT
BRANCH  12  13
ATOM     13  C   UNL     1      -0.035   3.843   0.025  0.00  0.00    -0.023 A 
ATOM     14  C   UNL     1       1.178   3.181   0.006  0.00  0.00    +0.005 A 
ATOM     15  C   UNL     1       1.211   1.799   0.002  0.00  0.00    +0.000 A 
ATOM     16  C   UNL     1       0.031   1.079   0.018  0.00  0.00    +0.000 A 
ATOM     17  C   UNL     1      -1.182   1.741   0.031  0.00  0.00    +0.000 A 
ATOM     18  C   UNL     1      -1.215   3.123   0.040  0.00  0.00    +0.005 A 
ENDBRANCH  12  13
BRANCH   1  19
ATOM     19  C   UNL     1       0.534   6.228   2.691  0.00  0.00    +0.214 C 
BRANCH  19  23
ATOM     20  C   UNL     1       0.462   6.771   6.364  0.00  0.00    +0.112 C 
ATOM     21  C   UNL     1       0.371   5.874   5.146  0.00  0.00    +0.247 C 
ATOM     22  O   UNL     1       0.181   4.676   5.131  0.00  0.00    -0.273 OA
ATOM     23  N   UNL     1       0.546   6.684   4.083  0.00  0.00    -0.215 N 
ATOM     24  C   UNL     1       0.737   7.954   4.457  0.00  0.00    +0.310 C 
ATOM     25  O   UNL     1       0.922   8.867   3.676  0.00  0.00    -0.252 OA
ATOM     26  N   UNL     1       0.700   8.108   5.792  0.00  0.00    -0.285 N 
ATOM     27  H   UNL     1       0.811   8.937   6.284  0.00  0.00    +0.151 HD
BRANCH  20  29
ATOM     28  C   UNL     1      -1.993   7.224   6.249  0.00  0.00    +0.006 C 
ATOM     29  C   UNL     1      -0.851   6.748   7.149  0.00  0.00    +0.032 C 
ENDBRANCH  20  29
BRANCH  20  30
ATOM     30  C   UNL     1       1.632   6.351   7.256  0.00  0.00    +0.032 C 
ATOM     31  C   UNL     1       2.947   6.556   6.502  0.00  0.00    +0.006 C 
ENDBRANCH  20  30
ENDBRANCH  19  23
ENDBRANCH   1  19
TORSDOF 5
