REMARK  Name = ZINC02205695
REMARK  5 active torsions:
REMARK  status: ('A' for Active; 'I' for Inactive)
REMARK    1  A    between atoms: C_1  and  C_2
REMARK    2  A    between atoms: C_5  and  N_24
REMARK    3  A    between atoms: C_11  and  C_12
REMARK    4  A    between atoms: N_14  and  N_15
REMARK    5  A    between atoms: C_16  and  C_17
REMARK                            x       y       z     vdW  Elec       q    Type
REMARK                         _______ _______ _______ _____ _____    ______ ____
ROOT
ATOM      1  C   UNL     1      -1.245   2.227   0.020  0.00  0.00    +0.047 C 
ATOM      2  C   UNL     1      -0.016   1.355   0.009  0.00  0.00    -0.013 A 
ATOM      3  C   UNL     1       1.326   1.804  -0.001  0.00  0.00    +0.005 A 
ATOM      4  C   UNL     1       1.915   3.075  -0.000  0.00  0.00    +0.043 A 
ATOM      5  C   UNL     1       3.275   3.193  -0.013  0.00  0.00    +0.127 A 
ATOM      6  C   UNL     1       4.083   2.063  -0.027  0.00  0.00    +0.035 A 
ATOM      7  C   UNL     1       3.528   0.803  -0.027  0.00  0.00    +0.028 A 
ATOM      8  C   UNL     1       2.143   0.657  -0.015  0.00  0.00    +0.047 A 
ATOM      9  N   UNL     1       1.313  -0.439  -0.013  0.00  0.00    -0.350 N 
ATOM     10  H   UNL     1       1.601  -1.365  -0.021  0.00  0.00    +0.166 HD
ATOM     11  C   UNL     1       0.002  -0.004   0.002  0.00  0.00    +0.107 A 
ENDROOT
BRANCH  11  12
ATOM     12  C   UNL     1      -1.184  -0.872   0.009  0.00  0.00    +0.280 C 
ATOM     13  O   UNL     1      -2.297  -0.382   0.022  0.00  0.00    -0.267 OA
ATOM     14  N   UNL     1      -1.038  -2.212   0.000  0.00  0.00    -0.202 N 
ATOM     15  H   UNL     1      -0.150  -2.603  -0.011  0.00  0.00    +0.178 HD
BRANCH  14  16
ATOM     16  N   UNL     1      -2.168  -3.040   0.006  0.00  0.00    -0.187 NA
ATOM     17  C   UNL     1      -2.028  -4.330  -0.002  0.00  0.00    +0.138 C 
BRANCH  17  18
ATOM     18  C   UNL     1      -3.218  -5.201   0.005  0.00  0.00    -0.005 A 
ATOM     19  C   UNL     1      -4.497  -4.641   0.026  0.00  0.00    +0.010 A 
ATOM     20  C   UNL     1      -5.606  -5.462   0.027  0.00  0.00    +0.016 A 
ATOM     21  C   UNL     1      -5.452  -6.838   0.018  0.00  0.00    +0.018 A 
ATOM     22  C   UNL     1      -4.187  -7.400   0.003  0.00  0.00    +0.016 A 
ATOM     23  C   UNL     1      -3.070  -6.591  -0.004  0.00  0.00    +0.010 A 
ATOM     24 BR   UNL     1      -6.978  -7.955   0.028  0.00  0.00    -0.050 Br
ENDBRANCH  17  18
ENDBRANCH  14  16
ENDBRANCH  11  12
BRANCH   5  25
ATOM     25  N   UNL     1       3.894   4.538  -0.013  0.00  0.00    +0.056 N 
ATOM     26  O   UNL     1       3.191   5.532  -0.002  0.00  0.00    -0.126 OA
ATOM     27  O   UNL     1       5.107   4.650  -0.025  0.00  0.00    -0.126 OA
ENDBRANCH   5  25
TORSDOF 4
