REMARK  Name = ZINC32975909
REMARK  3 active torsions:
REMARK  status: ('A' for Active; 'I' for Inactive)
REMARK    1  A    between atoms: C_1  and  C_2
REMARK    2  A    between atoms: C_5  and  C_8
REMARK    3  A    between atoms: C_15  and  C_20
REMARK                            x       y       z     vdW  Elec       q    Type
REMARK                         _______ _______ _______ _____ _____    ______ ____
ROOT
ATOM      1  C   UNL     1       0.399  -4.111   0.275  0.00  0.00    +0.028 C 
ATOM      2  C   UNL     1       0.445  -4.953   1.335  0.00  0.00    +0.075 C 
ATOM      3  C   UNL     1       0.654  -4.463   2.716  0.00  0.00    +0.255 C 
ATOM      4  O   UNL     1       1.266  -3.428   2.903  0.00  0.00    -0.269 OA
ATOM      5  N   UNL     1       0.176  -5.147   3.759  0.00  0.00    -0.280 N 
ATOM      6  C   UNL     1      -0.619  -6.286   3.710  0.00  0.00    +0.048 A 
ATOM      7  C   UNL     1      -1.369  -6.616   4.832  0.00  0.00    +0.037 A 
ATOM      8  C   UNL     1      -2.183  -7.749   4.827  0.00  0.00    +0.039 A 
ATOM      9  C   UNL     1      -2.249  -8.562   3.692  0.00  0.00    +0.014 A 
ATOM     10  C   UNL     1      -1.506  -8.239   2.578  0.00  0.00    +0.017 A 
ATOM     11  C   UNL     1      -0.695  -7.111   2.583  0.00  0.00    +0.034 A 
ATOM     12  S   UNL     1       0.251  -6.707   1.150  0.00  0.00    -0.082 S 
ATOM     13  H   UNL     1       0.407  -4.814   4.641  0.00  0.00    +0.155 HD
ENDROOT
BRANCH   8  14
ATOM     14  C   UNL     1      -2.976  -8.090   6.023  0.00  0.00    +0.247 C 
ATOM     15  O   UNL     1      -3.650  -7.238   6.570  0.00  0.00    -0.270 OA
ATOM     16  N   UNL     1      -2.953  -9.347   6.511  0.00  0.00    -0.295 N 
ATOM     17  C   UNL     1      -2.232 -10.412   5.800  0.00  0.00    +0.127 C 
ATOM     18  C   UNL     1      -1.226 -11.052   6.765  0.00  0.00    +0.125 C 
ATOM     19  N   UNL     1      -1.922 -11.381   8.017  0.00  0.00    -0.314 N 
ATOM     20  C   UNL     1      -2.642 -10.316   8.728  0.00  0.00    +0.125 C 
ATOM     21  C   UNL     1      -3.643  -9.675   7.766  0.00  0.00    +0.127 C 
ATOM     22  C   UNL     1      -1.898 -12.677   8.520  0.00  0.00    +0.099 A 
ATOM     23  C   UNL     1      -1.100 -13.639   7.909  0.00  0.00    +0.042 A 
ATOM     24  C   UNL     1      -1.086 -14.924   8.420  0.00  0.00    +0.005 A 
ATOM     25  C   UNL     1      -1.874 -15.205   9.528  0.00  0.00    +0.018 A 
ATOM     26  C   UNL     1      -2.642 -14.202  10.084  0.00  0.00    +0.084 A 
ATOM     27  N   UNL     1      -2.631 -12.983   9.579  0.00  0.00    -0.350 N 
ATOM     28  H   UNL     1      -3.177 -12.295   9.992  0.00  0.00    +0.166 HD
ENDBRANCH   8  14
BRANCH   1  33
ATOM     29  C   UNL     1       0.302   1.573   1.123  0.00  0.00    +0.044 C 
ATOM     30  C   UNL     1       0.328   0.083   0.901  0.00  0.00    -0.050 A 
ATOM     31  C   UNL     1      -0.368  -0.753   1.757  0.00  0.00    +0.004 A 
ATOM     32  C   UNL     1      -0.350  -2.118   1.561  0.00  0.00    +0.008 A 
ATOM     33  C   UNL     1       0.374  -2.657   0.492  0.00  0.00    -0.024 A 
ATOM     34  C   UNL     1       1.075  -1.806  -0.369  0.00  0.00    +0.008 A 
ATOM     35  C   UNL     1       1.042  -0.443  -0.162  0.00  0.00    +0.004 A 
ENDBRANCH   1  33
TORSDOF 2
