REMARK  Name = ZINC38676485
REMARK  12 active torsions:
REMARK  status: ('A' for Active; 'I' for Inactive)
REMARK    1  A    between atoms: C_1  and  C_2
REMARK    2  A    between atoms: C_5  and  C_33
REMARK    3  A    between atoms: C_6  and  C_8
REMARK    4  A    between atoms: C_8  and  O_9
REMARK    5  A    between atoms: O_9  and  C_10
REMARK    6  A    between atoms: C_13  and  C_17
REMARK    7  A    between atoms: C_14  and  O_16
REMARK    8  A    between atoms: C_19  and  C_23
REMARK    9  A    between atoms: C_26  and  O_31
REMARK   10  A    between atoms: C_27  and  O_29
REMARK   11  A    between atoms: O_29  and  C_30
REMARK   12  A    between atoms: O_31  and  C_32
REMARK                            x       y       z     vdW  Elec       q    Type
REMARK                         _______ _______ _______ _____ _____    ______ ____
ROOT
ATOM      1  C   UNL     1       0.061  -2.448   4.833  0.00  0.00    +0.124 A 
ATOM      2  C   UNL     1       0.085  -3.825   5.008  0.00  0.00    +0.046 A 
ATOM      3  C   UNL     1       0.098  -4.360   6.281  0.00  0.00    +0.013 A 
ATOM      4  C   UNL     1       0.087  -3.527   7.383  0.00  0.00    +0.022 A 
ATOM      5  C   UNL     1       0.063  -2.150   7.214  0.00  0.00    +0.126 A 
ATOM      6  C   UNL     1       0.055  -1.610   5.937  0.00  0.00    +0.091 A 
ENDROOT
BRANCH   4   7
ATOM      7  C   UNL     1       0.101  -4.115   8.771  0.00  0.00    +0.164 C 
ATOM      8  C   UNL     1       1.511  -4.129   9.335  0.00  0.00    +0.008 C 
ATOM      9  C   UNL     1       1.762  -5.446   9.533  0.00  0.00    +0.139 C 
ATOM     10  N   UNL     1       0.708  -6.185   9.167  0.00  0.00    -0.185 NA
ATOM     11  N   UNL     1      -0.257  -5.543   8.736  0.00  0.00    -0.297 N 
ATOM     12  H   UNL     1      -1.100  -5.912   8.429  0.00  0.00    +0.183 HD
BRANCH   8  13
ATOM     13  C   UNL     1       2.395  -2.985   9.604  0.00  0.00    -0.014 A 
ATOM     14  C   UNL     1       2.052  -2.048  10.584  0.00  0.00    +0.012 A 
ATOM     15  C   UNL     1       2.882  -0.977  10.833  0.00  0.00    +0.050 A 
ATOM     16  C   UNL     1       4.059  -0.825  10.114  0.00  0.00    +0.162 A 
ATOM     17  C   UNL     1       4.409  -1.754   9.135  0.00  0.00    +0.162 A 
ATOM     18  C   UNL     1       3.585  -2.834   8.883  0.00  0.00    +0.057 A 
BRANCH  17  19
ATOM     19  O   UNL     1       5.563  -1.601   8.433  0.00  0.00    -0.491 OA
ATOM     20  C   UNL     1       5.858  -2.591   7.446  0.00  0.00    +0.277 C 
ENDBRANCH  17  19
BRANCH  16  21
ATOM     21  O   UNL     1       4.874   0.234  10.364  0.00  0.00    -0.491 OA
ATOM     22  C   UNL     1       4.456   1.148  11.380  0.00  0.00    +0.277 C 
ENDBRANCH  16  21
ENDBRANCH   8  13
ENDBRANCH   4   7
BRANCH   5  23
ATOM     23  O   UNL     1       0.051  -1.332   8.299  0.00  0.00    -0.506 OA
ATOM     24  H   UNL     1       0.931  -1.079   8.610  0.00  0.00    +0.292 HD
ENDBRANCH   5  23
BRANCH   1  25
ATOM     25  O   UNL     1       0.047  -1.922   3.580  0.00  0.00    -0.487 OA
BRANCH  25  26
ATOM     26  C   UNL     1       0.054  -2.845   2.489  0.00  0.00    +0.264 C 
BRANCH  26  32
ATOM     27  C   UNL     1      -0.018   1.503   0.010  0.00  0.00    +0.044 C 
ATOM     28  C   UNL     1       0.002  -0.004   0.002  0.00  0.00    -0.050 A 
ATOM     29  C   UNL     1       0.006  -0.689  -1.199  0.00  0.00    +0.003 A 
ATOM     30  C   UNL     1       0.025  -2.071  -1.207  0.00  0.00    +0.004 A 
ATOM     31  C   UNL     1       0.040  -2.768  -0.013  0.00  0.00    -0.044 A 
ATOM     32  C   UNL     1       0.037  -2.084   1.188  0.00  0.00    -0.007 A 
ATOM     33  C   UNL     1       0.023  -0.702   1.195  0.00  0.00    +0.010 A 
ATOM     34  C   UNL     1       0.059  -4.275  -0.021  0.00  0.00    +0.044 C 
ENDBRANCH  26  32
ENDBRANCH  25  26
ENDBRANCH   1  25
TORSDOF 8
