REMARK  Name = ZINC04433796
REMARK  9 active torsions:
REMARK  status: ('A' for Active; 'I' for Inactive)
REMARK    1  A    between atoms: C_1  and  C_2
REMARK    2  A    between atoms: C_2  and  C_3
REMARK    3  A    between atoms: C_2  and  O_4
REMARK    4  A    between atoms: O_4  and  C_5
REMARK    5  A    between atoms: C_5  and  C_7
REMARK    6  A    between atoms: C_10  and  C_11
REMARK    7  A    between atoms: C_16  and  N_31
REMARK    8  A    between atoms: C_17  and  C_29
REMARK    9  A    between atoms: C_21  and  C_24
REMARK                            x       y       z     vdW  Elec       q    Type
REMARK                         _______ _______ _______ _____ _____    ______ ____
ROOT
ATOM      1  C   UNL     1      -3.308   4.343   0.617  0.00  0.00    +0.118 C 
ATOM      2  C   UNL     1      -2.506   3.227   0.442  0.00  0.00    +0.080 A 
ATOM      3  C   UNL     1      -1.055   3.207   0.245  0.00  0.00    +0.027 A 
ATOM      4  C   UNL     1      -0.179   4.282   0.324  0.00  0.00    +0.058 C 
ATOM      5  C   UNL     1      -0.722   1.806  -0.057  0.00  0.00    +0.069 A 
ATOM      6  C   UNL     1      -1.890   1.083   0.029  0.00  0.00    +0.149 A 
ATOM      7  N   UNL     1      -2.954   1.916   0.385  0.00  0.00    -0.267 N 
ATOM      8  C   UNL     1      -4.210   1.506   0.652  0.00  0.00    +0.254 C 
ATOM      9  O   UNL     1      -4.552   0.390   0.322  0.00  0.00    -0.271 OA
ATOM     10  C   UNL     1      -5.199   2.402   1.349  0.00  0.00    +0.206 C 
ATOM     11  S   UNL     1      -5.058   4.092   0.698  0.00  0.00    -0.095 S 
ENDROOT
BRANCH   4  12
ATOM     12  C   UNL     1       1.210   4.061   0.304  0.00  0.00    +0.128 A 
ATOM     13  C   UNL     1       2.168   4.928  -0.195  0.00  0.00    +0.049 A 
ATOM     14  C   UNL     1       3.408   4.303  -0.005  0.00  0.00    +0.042 A 
ATOM     15  C   UNL     1       3.169   3.106   0.577  0.00  0.00    +0.195 A 
ATOM     16  O   UNL     1       1.848   2.963   0.762  0.00  0.00    -0.464 OA
ENDBRANCH   4  12
BRANCH  10  17
ATOM     17  C   UNL     1      -4.912   2.410   2.829  0.00  0.00    +0.127 A 
ATOM     18  C   UNL     1      -5.761   2.019   3.797  0.00  0.00    +0.046 A 
ATOM     19  C   UNL     1      -5.086   2.192   5.027  0.00  0.00    +0.041 A 
ATOM     20  C   UNL     1      -3.865   2.678   4.737  0.00  0.00    +0.195 A 
ATOM     21  O   UNL     1      -3.764   2.802   3.404  0.00  0.00    -0.466 OA
ENDBRANCH  10  17
BRANCH   5  22
ATOM     22  N   UNL     1       0.535   1.307  -0.365  0.00  0.00    -0.355 N 
ATOM     23  H   UNL     1       0.665   0.235  -0.574  0.00  0.00    +0.142 HD
ATOM     24  H   UNL     1       1.402   1.983  -0.401  0.00  0.00    +0.142 HD
ENDBRANCH   5  22
BRANCH   1  25
ATOM     25  C   UNL     1      -2.750   5.634   0.729  0.00  0.00    +0.348 C 
ATOM     26  O   UNL     1      -2.474   6.085   1.826  0.00  0.00    -0.244 OA
BRANCH  25  27
ATOM     27  O   UNL     1      -2.521   6.369  -0.382  0.00  0.00    -0.458 OA
BRANCH  27  29
ATOM     28  C   UNL     1      -1.104   8.033  -1.413  0.00  0.00    +0.052 C 
ATOM     29  C   UNL     1      -1.953   7.667  -0.195  0.00  0.00    +0.171 C 
ATOM     30  C   UNL     1      -3.075   8.694  -0.027  0.00  0.00    +0.052 C 
ENDBRANCH  27  29
ENDBRANCH  25  27
ENDBRANCH   1  25
BRANCH   6  31
ATOM     31  C   UNL     1      -1.999  -0.325  -0.213  0.00  0.00    +0.120 C 
ATOM     32  N   UNL     1      -2.086  -1.441  -0.405  0.00  0.00    -0.189 NA
ENDBRANCH   6  31
TORSDOF 7
