REMARK  Name = ZINC58762147
REMARK  9 active torsions:
REMARK  status: ('A' for Active; 'I' for Inactive)
REMARK    1  A    between atoms: C_1  and  C_2
REMARK    2  A    between atoms: C_2  and  C_4
REMARK    3  A    between atoms: C_2  and  N_12
REMARK    4  A    between atoms: C_13  and  C_15
REMARK    5  A    between atoms: C_15  and  O_16
REMARK    6  A    between atoms: O_16  and  C_17
REMARK    7  A    between atoms: C_17  and  C_19
REMARK    8  A    between atoms: C_22  and  S_24
REMARK    9  A    between atoms: S_24  and  N_27
REMARK                            x       y       z     vdW  Elec       q    Type
REMARK                         _______ _______ _______ _____ _____    ______ ____
ROOT
ATOM      1  C   UNL     1      -3.465  -1.164  -1.134  0.00  0.00    +0.328 C 
ENDROOT
BRANCH   1   3
ATOM      2  N   UNL     1      -1.372  -0.511   0.012  0.00  0.00    -0.306 N 
ATOM      3  C   UNL     1      -2.051  -0.643  -1.145  0.00  0.00    +0.251 C 
ATOM      4  O   UNL     1      -1.524  -0.341  -2.194  0.00  0.00    -0.272 OA
ATOM      5  H   UNL     1      -1.794  -0.752   0.852  0.00  0.00    +0.149 HD
BRANCH   2   7
ATOM      6  C   UNL     1      -0.019   1.526   0.010  0.00  0.00    +0.033 C 
ATOM      7  C   UNL     1       0.002  -0.004   0.002  0.00  0.00    +0.100 C 
BRANCH   7   8
ATOM      8  C   UNL     1       0.731  -0.503   1.223  0.00  0.00    -0.026 A 
ATOM      9  C   UNL     1       0.080  -0.558   2.442  0.00  0.00    +0.007 A 
ATOM     10  C   UNL     1       0.748  -1.016   3.562  0.00  0.00    +0.022 A 
ATOM     11  C   UNL     1       2.067  -1.419   3.465  0.00  0.00    +0.059 A 
ATOM     12  C   UNL     1       2.719  -1.364   2.244  0.00  0.00    +0.060 A 
ATOM     13  C   UNL     1       2.048  -0.911   1.123  0.00  0.00    +0.027 A 
ATOM     14 CL   UNL     1       4.375  -1.869   2.120  0.00  0.00    -0.082 Cl
ATOM     15 CL   UNL     1       2.906  -1.993   4.872  0.00  0.00    -0.082 Cl
ENDBRANCH   7   8
ENDBRANCH   2   7
ENDBRANCH   1   3
BRANCH   1  16
ATOM     16  O   UNL     1      -3.965  -1.212  -2.472  0.00  0.00    -0.450 OA
BRANCH  16  17
ATOM     17  C   UNL     1      -5.227  -1.659  -2.638  0.00  0.00    +0.375 C 
ATOM     18  O   UNL     1      -5.883  -2.000  -1.673  0.00  0.00    -0.241 OA
BRANCH  17  19
ATOM     19  C   UNL     1      -5.806  -1.735  -3.981  0.00  0.00    +0.214 A 
ATOM     20  C   UNL     1      -7.066  -2.162  -4.290  0.00  0.00    +0.059 A 
ATOM     21  C   UNL     1      -7.194  -2.068  -5.684  0.00  0.00    +0.072 A 
ATOM     22  C   UNL     1      -6.022  -1.595  -6.160  0.00  0.00    +0.258 A 
ATOM     23  O   UNL     1      -5.189  -1.390  -5.131  0.00  0.00    -0.430 OA
BRANCH  22  24
ATOM     24  S   UNL     1      -5.651  -1.290  -7.856  0.00  0.00    +0.089 S 
ATOM     25  O   UNL     1      -4.237  -1.353  -7.980  0.00  0.00    -0.150 OA
ATOM     26  O   UNL     1      -6.520  -2.119  -8.616  0.00  0.00    -0.150 OA
BRANCH  24  27
ATOM     27  N   UNL     1      -6.086   0.275  -8.179  0.00  0.00    -0.201 NA
ATOM     28  H   UNL     1      -6.467   0.827  -7.478  0.00  0.00    +0.144 HD
ATOM     29  H   UNL     1      -5.960   0.639  -9.069  0.00  0.00    +0.144 HD
ENDBRANCH  24  27
ENDBRANCH  22  24
ENDBRANCH  17  19
ENDBRANCH  16  17
ENDBRANCH   1  16
TORSDOF 8
