REMARK  Name = ZINC19638559
REMARK  7 active torsions:
REMARK  status: ('A' for Active; 'I' for Inactive)
REMARK    1  A    between atoms: C_1  and  C_2
REMARK    2  A    between atoms: C_3  and  C_28
REMARK    3  A    between atoms: C_4  and  C_21
REMARK    4  A    between atoms: C_10  and  C_15
REMARK    5  A    between atoms: C_24  and  O_27
REMARK    6  A    between atoms: C_28  and  O_30
REMARK    7  A    between atoms: O_30  and  C_31
REMARK                            x       y       z     vdW  Elec       q    Type
REMARK                         _______ _______ _______ _____ _____    ______ ____
ROOT
ATOM      1  C   UNL     1      -1.315   5.057   2.528  0.00  0.00    +0.061 C 
ATOM      2  C   UNL     1      -1.222   4.264   1.249  0.00  0.00    +0.016 C 
ATOM      3  C   UNL     1      -1.428   2.936   1.271  0.00  0.00    +0.065 C 
ATOM      4  C   UNL     1      -1.333   2.113   0.020  0.00  0.00    +0.092 C 
ATOM      5  C   UNL     1      -1.424   2.983  -1.209  0.00  0.00    +0.024 C 
ATOM      6  C   UNL     1      -1.220   4.315  -1.127  0.00  0.00    +0.016 C 
ATOM      7  N   UNL     1      -0.927   4.900   0.076  0.00  0.00    -0.321 N 
ATOM      8  C   UNL     1      -1.312   5.192  -2.351  0.00  0.00    +0.059 C 
ATOM      9  C   UNL     1      -0.896   4.394  -3.588  0.00  0.00    +0.032 C 
ATOM     10  C   UNL     1      -1.810   3.170  -3.708  0.00  0.00    +0.088 C 
ATOM     11  C   UNL     1      -1.724   2.369  -2.437  0.00  0.00    +0.162 C 
ATOM     12  O   UNL     1      -1.916   1.170  -2.474  0.00  0.00    -0.292 OA
ATOM     13  H   UNL     1      -0.452   5.892   0.092  0.00  0.00    +0.152 HD
ENDROOT
BRANCH   9  14
ATOM     14  C   UNL     1      -1.038   5.254  -4.817  0.00  0.00    -0.044 A 
ATOM     15  C   UNL     1      -2.269   5.786  -5.150  0.00  0.00    +0.004 A 
ATOM     16  C   UNL     1      -2.399   6.579  -6.275  0.00  0.00    +0.000 A 
ATOM     17  C   UNL     1      -1.298   6.832  -7.072  0.00  0.00    +0.000 A 
ATOM     18  C   UNL     1      -0.068   6.296  -6.742  0.00  0.00    +0.000 A 
ATOM     19  C   UNL     1       0.062   5.507  -5.615  0.00  0.00    +0.004 A 
ENDBRANCH   9  14
BRANCH   4  20
ATOM     20  C   UNL     1      -0.017   1.378   0.010  0.00  0.00    -0.035 A 
ATOM     21  C   UNL     1       1.170   2.088   0.002  0.00  0.00    +0.008 A 
ATOM     22  C   UNL     1       2.377   1.417  -0.013  0.00  0.00    +0.046 A 
ATOM     23  C   UNL     1       2.399   0.030  -0.021  0.00  0.00    +0.117 A 
ATOM     24  C   UNL     1       1.207  -0.680  -0.014  0.00  0.00    +0.046 A 
ATOM     25  C   UNL     1       0.002  -0.004   0.002  0.00  0.00    +0.008 A 
BRANCH  23  26
ATOM     26  O   UNL     1       3.586  -0.632  -0.037  0.00  0.00    -0.507 OA
ATOM     27  H   UNL     1       3.601  -1.732  -0.043  0.00  0.00    +0.292 HD
ENDBRANCH  23  26
ENDBRANCH   4  20
BRANCH   3  28
ATOM     28  C   UNL     1      -1.740   2.302   2.496  0.00  0.00    +0.338 C 
ATOM     29  O   UNL     1      -1.820   2.958   3.518  0.00  0.00    -0.245 OA
BRANCH  28  30
ATOM     30  O   UNL     1      -1.949   0.969   2.532  0.00  0.00    -0.458 OA
BRANCH  30  31
ATOM     31  C   UNL     1      -2.260   0.396   3.804  0.00  0.00    +0.177 C 
ATOM     32  C   UNL     1      -0.970  -0.096   4.492  0.00  0.00    +0.044 C 
ATOM     33  C   UNL     1      -1.396  -1.401   5.210  0.00  0.00    +0.004 C 
ATOM     34  C   UNL     1      -2.382  -2.040   4.201  0.00  0.00    +0.004 C 
ATOM     35  C   UNL     1      -3.158  -0.840   3.619  0.00  0.00    +0.044 C 
ENDBRANCH  30  31
ENDBRANCH  28  30
ENDBRANCH   3  28
TORSDOF 6
