REMARK  Name = ZINC37238780
REMARK  7 active torsions:
REMARK  status: ('A' for Active; 'I' for Inactive)
REMARK    1  A    between atoms: C_1  and  C_2
REMARK    2  A    between atoms: C_17  and  C_35
REMARK    3  A    between atoms: C_22  and  C_23
REMARK    4  A    between atoms: C_22  and  O_34
REMARK    5  A    between atoms: C_23  and  N_24
REMARK    6  A    between atoms: C_25  and  C_26
REMARK    7  A    between atoms: C_31  and  O_32
REMARK                            x       y       z     vdW  Elec       q    Type
REMARK                         _______ _______ _______ _____ _____    ______ ____
ROOT
ATOM      1  C   UNL     1       0.803   0.320   0.236  0.00  0.00    +0.012 C 
ATOM      2  C   UNL     1       0.437  -1.166   0.116  0.00  0.00    -0.026 C 
ATOM      3  C   UNL     1       0.959  -1.722  -1.202  0.00  0.00    +0.007 C 
ATOM      4  C   UNL     1       2.487  -1.657  -1.246  0.00  0.00    +0.001 C 
ATOM      5  C   UNL     1       3.072  -2.450  -0.078  0.00  0.00    +0.000 C 
ATOM      6  C   UNL     1       2.572  -1.871   1.244  0.00  0.00    +0.004 C 
ATOM      7  C   UNL     1       1.045  -1.923   1.298  0.00  0.00    -0.005 C 
ATOM      8  C   UNL     1       0.595  -3.383   1.325  0.00  0.00    +0.004 C 
ATOM      9  C   UNL     1      -0.935  -3.471   1.364  0.00  0.00    +0.004 C 
ATOM     10  C   UNL     1      -1.467  -2.769   0.113  0.00  0.00    -0.004 C 
ATOM     11  C   UNL     1      -1.094  -1.292   0.192  0.00  0.00    -0.001 C 
ATOM     12  C   UNL     1      -1.795  -0.456  -0.856  0.00  0.00    +0.005 C 
ATOM     13  C   UNL     1      -3.320  -0.648  -0.886  0.00  0.00    +0.010 C 
ATOM     14  C   UNL     1      -3.768  -1.715   0.072  0.00  0.00    +0.001 C 
ATOM     15  C   UNL     1      -2.926  -2.992  -0.125  0.00  0.00    +0.001 C 
ATOM     16  C   UNL     1      -3.647  -3.998   0.782  0.00  0.00    +0.007 C 
ATOM     17  C   UNL     1      -5.147  -3.655   0.573  0.00  0.00    +0.037 C 
ATOM     18  C   UNL     1      -5.193  -2.267  -0.119  0.00  0.00    +0.089 C 
ATOM     19  C   UNL     1      -3.719  -1.204   1.518  0.00  0.00    +0.014 C 
ENDROOT
BRANCH  18  20
ATOM     20  O   UNL     1      -6.127  -1.418   0.549  0.00  0.00    -0.386 OA
ATOM     21  H   UNL     1      -7.047  -1.706   0.471  0.00  0.00    +0.210 HD
ENDBRANCH  18  20
BRANCH  18  22
ATOM     22  C   UNL     1      -5.561  -2.420  -1.589  0.00  0.00    +0.147 C 
BRANCH  22  23
ATOM     23  N   UNL     1      -6.923  -2.947  -1.699  0.00  0.00    -0.387 N 
ATOM     24  C   UNL     1      -7.857  -2.223  -2.227  0.00  0.00    +0.090 C 
ATOM     25  H   UNL     1      -7.125  -3.839  -1.377  0.00  0.00    +0.159 HD
BRANCH  24  26
ATOM     26  C   UNL     1      -9.255  -2.690  -2.202  0.00  0.00    +0.033 A 
ATOM     27  C   UNL     1     -10.247  -1.972  -2.874  0.00  0.00    +0.028 A 
ATOM     28  C   UNL     1     -11.553  -2.414  -2.847  0.00  0.00    +0.019 A 
ATOM     29  C   UNL     1     -11.885  -3.568  -2.156  0.00  0.00    +0.019 A 
ATOM     30  C   UNL     1     -10.914  -4.287  -1.487  0.00  0.00    +0.047 A 
ATOM     31  C   UNL     1      -9.595  -3.860  -1.509  0.00  0.00    +0.125 A 
ATOM     32 BR   UNL     1     -12.896  -1.442  -3.756  0.00  0.00    -0.050 Br
BRANCH  31  33
ATOM     33  O   UNL     1      -8.638  -4.568  -0.858  0.00  0.00    -0.506 OA
ATOM     34  H   UNL     1      -8.507  -4.298   0.062  0.00  0.00    +0.292 HD
ENDBRANCH  31  33
ENDBRANCH  24  26
ENDBRANCH  22  23
ENDBRANCH  18  22
TORSDOF 5
