REMARK  Name = ZINC64613454
REMARK  5 active torsions:
REMARK  status: ('A' for Active; 'I' for Inactive)
REMARK    1  A    between atoms: C_1  and  C_2
REMARK    2  A    between atoms: C_5  and  C_9
REMARK    3  A    between atoms: C_7  and  C_8
REMARK    4  A    between atoms: C_11  and  C_15
REMARK    5  A    between atoms: C_18  and  C_21
REMARK                            x       y       z     vdW  Elec       q    Type
REMARK                         _______ _______ _______ _____ _____    ______ ____
ROOT
ATOM      1  C   UNL     1       0.061  -4.256  -0.021  0.00  0.00    +0.091 C 
ATOM      2  C   UNL     1       0.071  -5.018  -1.132  0.00  0.00    +0.037 C 
ATOM      3  C   UNL     1       0.090  -6.439  -0.597  0.00  0.00    +0.215 C 
ATOM      4  N   UNL     1       0.088  -6.249   0.863  0.00  0.00    -0.174 NA
ATOM      5  N   UNL     1       0.077  -5.037   1.090  0.00  0.00    -0.154 NA
ENDROOT
BRANCH   1  10
ATOM      6  C   UNL     1      -0.018   1.503   0.010  0.00  0.00    +0.044 C 
ATOM      7  C   UNL     1       0.002  -0.004   0.002  0.00  0.00    -0.047 A 
ATOM      8  C   UNL     1       0.006  -0.687  -1.201  0.00  0.00    +0.004 A 
ATOM      9  C   UNL     1       0.025  -2.066  -1.215  0.00  0.00    +0.010 A 
ATOM     10  C   UNL     1       0.041  -2.772  -0.013  0.00  0.00    +0.002 A 
ATOM     11  C   UNL     1       0.037  -2.080   1.196  0.00  0.00    +0.013 A 
ATOM     12  C   UNL     1       0.023  -0.699   1.197  0.00  0.00    -0.047 A 
ATOM     13  C   UNL     1       0.025   0.051   2.504  0.00  0.00    +0.044 C 
ENDBRANCH   1  10
BRANCH   3  14
ATOM     14  C   UNL     1      -1.157  -7.203  -1.048  0.00  0.00    +0.322 C 
ATOM     15  N   UNL     1      -1.171  -8.553  -0.463  0.00  0.00    -0.287 N 
ATOM     16  C   UNL     1      -1.146  -9.446  -1.518  0.00  0.00    +0.168 C 
ATOM     17  N   UNL     1      -1.119  -8.828  -2.654  0.00  0.00    -0.067 NA
ATOM     18  O   UNL     1      -1.124  -7.423  -2.467  0.00  0.00    -0.367 OA
ATOM     19  H   UNL     1      -1.194  -8.774   0.481  0.00  0.00    +0.151 HD
BRANCH  16  20
ATOM     20  C   UNL     1      -1.151 -10.919  -1.368  0.00  0.00    +0.018 A 
ATOM     21  C   UNL     1      -1.187 -11.492  -0.097  0.00  0.00    +0.013 A 
ATOM     22  C   UNL     1      -1.191 -12.865   0.038  0.00  0.00    +0.021 A 
ATOM     23  C   UNL     1      -1.159 -13.674  -1.086  0.00  0.00    +0.041 A 
ATOM     24  C   UNL     1      -1.121 -13.110  -2.350  0.00  0.00    +0.021 A 
ATOM     25  C   UNL     1      -1.124 -11.738  -2.496  0.00  0.00    +0.013 A 
ATOM     26 CL   UNL     1      -1.164 -15.401  -0.909  0.00  0.00    -0.084 Cl
ENDBRANCH  16  20
ENDBRANCH   3  14
TORSDOF 3
