REMARK  Name = ZINC05008976
REMARK  10 active torsions:
REMARK  status: ('A' for Active; 'I' for Inactive)
REMARK    1  A    between atoms: C_1  and  C_2
REMARK    2  A    between atoms: C_7  and  C_8
REMARK    3  A    between atoms: C_12  and  N_31
REMARK    4  A    between atoms: C_16  and  N_17
REMARK    5  A    between atoms: N_17  and  C_18
REMARK    6  A    between atoms: C_21  and  N_26
REMARK    7  A    between atoms: C_23  and  O_24
REMARK    8  A    between atoms: O_24  and  C_25
REMARK    9  A    between atoms: N_26  and  S_27
REMARK   10  A    between atoms: S_27  and  C_30
REMARK                            x       y       z     vdW  Elec       q    Type
REMARK                         _______ _______ _______ _____ _____    ______ ____
ROOT
ATOM      1  C   UNL     1      -4.766  -2.112   2.126  0.00  0.00    +0.044 C 
ATOM      2  C   UNL     1      -3.482  -2.656   1.554  0.00  0.00    -0.046 A 
ATOM      3  C   UNL     1      -3.512  -3.363   0.352  0.00  0.00    +0.004 A 
ATOM      4  C   UNL     1      -2.370  -3.867  -0.191  0.00  0.00    +0.012 A 
ATOM      5  C   UNL     1      -1.143  -3.674   0.467  0.00  0.00    +0.020 A 
ATOM      6  C   UNL     1      -1.108  -2.954   1.691  0.00  0.00    +0.052 A 
ATOM      7  C   UNL     1      -2.314  -2.445   2.216  0.00  0.00    -0.024 A 
ATOM      8  C   UNL     1      -2.307  -1.674   3.510  0.00  0.00    +0.046 C 
ATOM      9  N   UNL     1       0.042  -2.759   2.333  0.00  0.00    -0.354 N 
ATOM     10  C   UNL     1       1.199  -3.224   1.863  0.00  0.00    +0.051 A 
ATOM     11  C   UNL     1       2.398  -2.999   2.570  0.00  0.00    +0.059 A 
ATOM     12  C   UNL     1       3.572  -3.478   2.080  0.00  0.00    +0.128 A 
ATOM     13  C   UNL     1       3.615  -4.193   0.883  0.00  0.00    +0.033 A 
ATOM     14  C   UNL     1       2.480  -4.431   0.171  0.00  0.00    +0.014 A 
ATOM     15  C   UNL     1       1.247  -3.952   0.646  0.00  0.00    +0.020 A 
ATOM     16  C   UNL     1       0.056  -4.184  -0.070  0.00  0.00    +0.050 A 
ATOM     17  H   UNL     1       0.038  -2.264   3.167  0.00  0.00    +0.166 HD
ENDROOT
BRANCH  12  18
ATOM     18  N   UNL     1       4.826  -3.237   2.829  0.00  0.00    +0.056 N 
ATOM     19  O   UNL     1       4.800  -2.618   3.867  0.00  0.00    -0.126 OA
ATOM     20  O   UNL     1       5.875  -3.659   2.403  0.00  0.00    -0.126 OA
ENDBRANCH  12  18
BRANCH  16  21
ATOM     21  N   UNL     1       0.062  -4.887  -1.255  0.00  0.00    -0.311 N 
ATOM     22  H   UNL     1      -0.069  -5.848  -1.250  0.00  0.00    +0.152 HD
BRANCH  21  23
ATOM     23  C   UNL     1       0.258  -4.213  -2.469  0.00  0.00    +0.074 A 
ATOM     24  C   UNL     1       0.557  -2.858  -2.470  0.00  0.00    +0.029 A 
ATOM     25  C   UNL     1       0.751  -2.193  -3.665  0.00  0.00    +0.029 A 
ATOM     26  C   UNL     1       0.646  -2.879  -4.868  0.00  0.00    +0.077 A 
ATOM     27  C   UNL     1       0.346  -4.235  -4.872  0.00  0.00    +0.074 A 
ATOM     28  C   UNL     1       0.159  -4.904  -3.674  0.00  0.00    +0.143 A 
BRANCH  28  29
ATOM     29  O   UNL     1      -0.129  -6.233  -3.675  0.00  0.00    -0.493 OA
ATOM     30  C   UNL     1      -0.215  -6.878  -4.948  0.00  0.00    +0.277 C 
ENDBRANCH  28  29
BRANCH  26  31
ATOM     31  N   UNL     1       0.842  -2.203  -6.077  0.00  0.00    -0.103 NA
BRANCH  31  32
ATOM     32  S   UNL     1       1.199  -0.586  -6.074  0.00  0.00    +0.059 S 
ATOM     33  O   UNL     1       0.050   0.038  -5.517  0.00  0.00    -0.154 OA
ATOM     34  O   UNL     1       2.459  -0.494  -5.424  0.00  0.00    -0.154 OA
ATOM     35  C   UNL     1       1.364  -0.141  -7.824  0.00  0.00    +0.220 C 
ENDBRANCH  31  32
ENDBRANCH  26  31
ENDBRANCH  21  23
ENDBRANCH  16  21
TORSDOF 6
