REMARK  Name = ZINC65375331
REMARK  3 active torsions:
REMARK  status: ('A' for Active; 'I' for Inactive)
REMARK    1  A    between atoms: C_1  and  N_2
REMARK    2  A    between atoms: C_12  and  C_18
REMARK    3  A    between atoms: C_14  and  O_17
REMARK                            x       y       z     vdW  Elec       q    Type
REMARK                         _______ _______ _______ _____ _____    ______ ____
ROOT
ATOM      1  C   UNL     1       1.870  -4.772  -3.318  0.00  0.00    +0.127 C 
ATOM      2  N   UNL     1       1.234  -4.094  -2.186  0.00  0.00    -0.332 N 
ATOM      3  C   UNL     1       1.211  -2.710  -2.131  0.00  0.00    +0.127 A 
ATOM      4  C   UNL     1       0.613  -2.053  -1.054  0.00  0.00    +0.012 A 
ATOM      5  C   UNL     1       0.612  -0.673  -1.037  0.00  0.00    +0.025 A 
ATOM      6  N   UNL     1       1.178  -0.015  -2.041  0.00  0.00    -0.331 N 
ATOM      7  C   UNL     1       1.738  -0.664  -3.051  0.00  0.00    +0.197 A 
ATOM      8  N   UNL     1       1.763  -1.987  -3.100  0.00  0.00    -0.201 NA
ATOM      9  N   UNL     1       2.317   0.060  -4.079  0.00  0.00    -0.299 N 
ATOM     10  C   UNL     1       3.051  -0.621  -5.154  0.00  0.00    +0.108 C 
ATOM     11  C   UNL     1       2.474  -0.178  -6.502  0.00  0.00    +0.030 C 
ATOM     12  C   UNL     1       2.507   1.349  -6.589  0.00  0.00    +0.051 C 
ATOM     13  C   UNL     1       1.643   1.944  -5.475  0.00  0.00    +0.139 C 
ATOM     14  C   UNL     1       2.205   1.525  -4.118  0.00  0.00    +0.139 C 
ATOM     15  C   UNL     1      -0.082  -0.177   0.211  0.00  0.00    +0.054 C 
ATOM     16  C   UNL     1      -0.884  -1.388   0.736  0.00  0.00    +0.011 C 
ATOM     17  C   UNL     1      -0.080  -2.583   0.180  0.00  0.00    +0.041 C 
ATOM     18  H   UNL     1       0.829  -4.614  -1.474  0.00  0.00    +0.147 HD
ATOM     19  H   UNL     1       1.180   0.955  -2.036  0.00  0.00    +0.168 HD
ENDROOT
BRANCH  12  20
ATOM     20  C   UNL     1       1.972   1.788  -7.928  0.00  0.00    -0.038 A 
ATOM     21  C   UNL     1       0.678   1.464  -8.293  0.00  0.00    +0.008 A 
ATOM     22  C   UNL     1       0.182   1.864  -9.520  0.00  0.00    +0.050 A 
ATOM     23  C   UNL     1       0.982   2.591 -10.387  0.00  0.00    +0.166 A 
ATOM     24  C   UNL     1       2.284   2.917 -10.019  0.00  0.00    +0.166 A 
ATOM     25  C   UNL     1       2.773   2.518  -8.786  0.00  0.00    +0.053 A 
ATOM     26  O   UNL     1       2.859   3.628 -11.033  0.00  0.00    -0.453 OA
ATOM     27  C   UNL     1       2.036   3.382 -12.189  0.00  0.00    +0.466 C 
ATOM     28  O   UNL     1       0.740   3.097 -11.631  0.00  0.00    -0.453 OA
ENDBRANCH  12  20
BRANCH  13  29
ATOM     29  O   UNL     1       1.649   3.370  -5.576  0.00  0.00    -0.390 OA
ATOM     30  H   UNL     1       1.120   3.814  -4.900  0.00  0.00    +0.210 HD
ENDBRANCH  13  29
TORSDOF 2
