REMARK  Name = ZINC13010105
REMARK  11 active torsions:
REMARK  status: ('A' for Active; 'I' for Inactive)
REMARK    1  A    between atoms: C_1  and  C_2
REMARK    2  A    between atoms: C_4  and  O_34
REMARK    3  A    between atoms: C_5  and  C_33
REMARK    4  A    between atoms: C_7  and  S_8
REMARK    5  A    between atoms: S_8  and  N_11
REMARK    6  A    between atoms: N_11  and  C_12
REMARK    7  A    between atoms: C_15  and  N_18
REMARK    8  A    between atoms: C_26  and  C_32
REMARK    9  A    between atoms: C_27  and  C_31
REMARK   10  A    between atoms: C_28  and  C_30
REMARK   11  A    between atoms: O_34  and  C_35
REMARK                            x       y       z     vdW  Elec       q    Type
REMARK                         _______ _______ _______ _____ _____    ______ ____
ROOT
ATOM      1  C   UNL     1       2.483  -0.369  -2.032  0.00  0.00    +0.048 A 
ATOM      2  C   UNL     1       3.287   0.411  -1.211  0.00  0.00    +0.026 A 
ATOM      3  C   UNL     1       4.641   0.510  -1.463  0.00  0.00    +0.025 A 
ATOM      4  C   UNL     1       5.197  -0.162  -2.543  0.00  0.00    +0.033 A 
ATOM      5  C   UNL     1       4.393  -0.938  -3.368  0.00  0.00    +0.025 A 
ATOM      6  C   UNL     1       3.039  -1.041  -3.113  0.00  0.00    +0.026 A 
ENDROOT
BRANCH   4   7
ATOM      7  N   UNL     1       6.569  -0.057  -2.802  0.00  0.00    -0.298 N 
ATOM      8  C   UNL     1       7.233   1.143  -2.563  0.00  0.00    +0.146 A 
ATOM      9  C   UNL     1       8.575   1.284  -2.920  0.00  0.00    +0.049 A 
ATOM     10  C   UNL     1       9.191   2.496  -2.662  0.00  0.00    +0.053 A 
ATOM     11  C   UNL     1       8.433   3.502  -2.062  0.00  0.00    +0.176 A 
ATOM     12  N   UNL     1       7.165   3.278  -1.758  0.00  0.00    -0.128 NA
ATOM     13  N   UNL     1       6.591   2.156  -2.001  0.00  0.00    -0.132 NA
ATOM     14  N   UNL     1       9.012   4.745  -1.783  0.00  0.00    -0.217 N 
ATOM     15  C   UNL     1       8.354   5.927  -1.667  0.00  0.00    +0.047 A 
ATOM     16  C   UNL     1       9.271   6.881  -1.390  0.00  0.00    -0.007 A 
ATOM     17  C   UNL     1      10.529   6.271  -1.343  0.00  0.00    +0.064 A 
ATOM     18  N   UNL     1      10.376   4.992  -1.578  0.00  0.00    -0.170 NA
ATOM     19  C   UNL     1      11.838   6.966  -1.069  0.00  0.00    +0.068 C 
ATOM     20  C   UNL     1       8.989   8.346  -1.176  0.00  0.00    +0.047 C 
ATOM     21  C   UNL     1       6.869   6.136  -1.817  0.00  0.00    +0.066 C 
ATOM     22  H   UNL     1       7.058  -0.821  -3.147  0.00  0.00    +0.154 HD
ENDBRANCH   4   7
BRANCH   1  23
ATOM     23  N   UNL     1       1.111  -0.474  -1.774  0.00  0.00    -0.216 N 
ATOM     24  H   UNL     1       0.472  -0.355  -2.494  0.00  0.00    +0.174 HD
BRANCH  23  25
ATOM     25  S   UNL     1       0.580  -0.800  -0.240  0.00  0.00    +0.073 S 
ATOM     26  O   UNL     1      -0.840  -0.813  -0.296  0.00  0.00    -0.150 OA
ATOM     27  O   UNL     1       1.300   0.062   0.631  0.00  0.00    -0.150 OA
BRANCH  25  34
ATOM     28  C   UNL     1      -0.296  -3.251  -1.777  0.00  0.00    +0.046 C 
ATOM     29  C   UNL     1       0.630  -3.502  -0.616  0.00  0.00    -0.020 A 
ATOM     30  C   UNL     1       1.024  -4.792  -0.314  0.00  0.00    +0.051 A 
ATOM     31  C   UNL     1       1.876  -5.023   0.756  0.00  0.00    +0.123 A 
ATOM     32  C   UNL     1       2.331  -3.958   1.520  0.00  0.00    -0.007 A 
ATOM     33  C   UNL     1       1.939  -2.670   1.211  0.00  0.00    +0.036 A 
ATOM     34  C   UNL     1       1.085  -2.443   0.148  0.00  0.00    +0.112 A 
ATOM     35  C   UNL     1       3.257  -4.206   2.683  0.00  0.00    +0.047 C 
BRANCH  31  36
ATOM     36  O   UNL     1       2.265  -6.290   1.055  0.00  0.00    -0.495 OA
ATOM     37  C   UNL     1       1.757  -7.338   0.226  0.00  0.00    +0.277 C 
ENDBRANCH  31  36
ENDBRANCH  25  34
ENDBRANCH  23  25
ENDBRANCH   1  23
TORSDOF 5
