REMARK  Name = ZINC02249993
REMARK  1 active torsions:
REMARK  status: ('A' for Active; 'I' for Inactive)
REMARK    1  A    between atoms: C_15  and  C_17
REMARK                            x       y       z     vdW  Elec       q    Type
REMARK                         _______ _______ _______ _____ _____    ______ ____
ROOT
ATOM      1  C   UNL     1       0.061  -2.786  -0.011  0.00  0.00    +0.001 A 
ATOM      2  C   UNL     1      -1.150  -2.107   0.004  0.00  0.00    +0.004 A 
ATOM      3  C   UNL     1      -1.186  -0.729   0.010  0.00  0.00    +0.047 A 
ATOM      4  C   UNL     1       0.002  -0.004   0.002  0.00  0.00    +0.139 A 
ATOM      5  C   UNL     1       1.223  -0.701  -0.013  0.00  0.00    +0.064 A 
ATOM      6  C   UNL     1       1.241  -2.094  -0.020  0.00  0.00    +0.015 A 
ATOM      7  C   UNL     1       2.472   0.086  -0.022  0.00  0.00    +0.199 A 
ATOM      8  O   UNL     1       3.566  -0.451  -0.035  0.00  0.00    -0.287 OA
ATOM      9  C   UNL     1       2.331   1.544  -0.013  0.00  0.00    +0.072 A 
ATOM     10  C   UNL     1       1.095   2.103   0.003  0.00  0.00    +0.199 A 
ATOM     11  O   UNL     1      -0.016   1.341   0.009  0.00  0.00    -0.450 OA
ATOM     12  C   UNL     1       1.250   3.578   0.008  0.00  0.00    +0.289 C 
ATOM     13  O   UNL     1       0.332   4.373   0.021  0.00  0.00    -0.266 OA
ATOM     14  N   UNL     1       2.553   3.909  -0.003  0.00  0.00    -0.232 N 
ATOM     15  C   UNL     1       3.335   2.667  -0.017  0.00  0.00    +0.151 C 
ATOM     16  C   UNL     1       3.068   5.198  -0.000  0.00  0.00    +0.168 A 
ATOM     17  N   UNL     1       2.422   6.349   0.012  0.00  0.00    -0.233 NA
ATOM     18  C   UNL     1       3.071   7.496   0.013  0.00  0.00    +0.120 A 
ATOM     19  C   UNL     1       4.427   7.472   0.001  0.00  0.00    +0.068 A 
ATOM     20  S   UNL     1       4.727   5.710  -0.005  0.00  0.00    -0.060 S 
ENDROOT
BRANCH  15  21
ATOM     21  C   UNL     1       4.207   2.588   1.210  0.00  0.00    -0.021 A 
ATOM     22  C   UNL     1       3.743   3.072   2.420  0.00  0.00    +0.006 A 
ATOM     23  C   UNL     1       4.540   2.995   3.546  0.00  0.00    +0.001 A 
ATOM     24  C   UNL     1       5.805   2.445   3.463  0.00  0.00    +0.015 A 
ATOM     25  C   UNL     1       6.271   1.966   2.252  0.00  0.00    +0.018 A 
ATOM     26  C   UNL     1       5.471   2.038   1.125  0.00  0.00    +0.021 A 
ATOM     27 BR   UNL     1       8.002   1.213   2.136  0.00  0.00    -0.050 Br
ENDBRANCH  15  21
TORSDOF 1
