REMARK  Name = ZINC65985218
REMARK  11 active torsions:
REMARK  status: ('A' for Active; 'I' for Inactive)
REMARK    1  A    between atoms: C_1  and  C_2
REMARK    2  A    between atoms: C_2  and  C_3
REMARK    3  A    between atoms: C_3  and  C_4
REMARK    4  A    between atoms: C_3  and  N_5
REMARK    5  A    between atoms: C_6  and  C_8
REMARK    6  A    between atoms: C_8  and  C_9
REMARK    7  A    between atoms: C_8  and  N_10
REMARK    8  A    between atoms: N_13  and  C_14
REMARK    9  A    between atoms: C_15  and  C_23
REMARK   10  A    between atoms: C_19  and  O_20
REMARK   11  A    between atoms: O_20  and  C_21
REMARK                            x       y       z     vdW  Elec       q    Type
REMARK                         _______ _______ _______ _____ _____    ______ ____
ROOT
ATOM      1  N   UNL     1       4.168   1.290   4.546  0.00  0.00    -0.288 N 
ATOM      2  C   UNL     1       5.262   2.002   4.881  0.00  0.00    +0.305 C 
ATOM      3  O   UNL     1       5.188   3.210   4.998  0.00  0.00    -0.252 OA
ATOM      4  N   UNL     1       6.438   1.376   5.085  0.00  0.00    -0.266 N 
ATOM      5  H   UNL     1       4.227   0.326   4.453  0.00  0.00    +0.151 HD
ATOM      6  H   UNL     1       6.481   0.407   5.063  0.00  0.00    +0.156 HD
ENDROOT
BRANCH   4   7
ATOM      7  C   UNL     1       7.598   2.124   5.329  0.00  0.00    +0.080 A 
ATOM      8  C   UNL     1       8.013   2.358   6.631  0.00  0.00    -0.025 A 
ATOM      9  C   UNL     1       9.157   3.096   6.870  0.00  0.00    +0.020 A 
ATOM     10  C   UNL     1       9.890   3.604   5.812  0.00  0.00    +0.022 A 
ATOM     11  C   UNL     1       9.481   3.375   4.510  0.00  0.00    +0.062 A 
ATOM     12  C   UNL     1       8.339   2.630   4.264  0.00  0.00    +0.143 A 
ATOM     13 BR   UNL     1      11.453   4.613   6.146  0.00  0.00    -0.050 Br
ATOM     14  C   UNL     1       7.217   1.808   7.787  0.00  0.00    +0.046 C 
BRANCH  12  15
ATOM     15  O   UNL     1       7.940   2.398   2.985  0.00  0.00    -0.493 OA
ATOM     16  C   UNL     1       8.749   2.948   1.943  0.00  0.00    +0.277 C 
ENDBRANCH  12  15
ENDBRANCH   4   7
BRANCH   1  17
ATOM     17  C   UNL     1       2.890   1.971   4.324  0.00  0.00    +0.157 C 
ATOM     18  C   UNL     1       2.824   2.473   2.881  0.00  0.00    +0.038 C 
BRANCH  17  20
ATOM     19  N   UNL     1       0.482   1.416   4.429  0.00  0.00    -0.311 N 
ATOM     20  C   UNL     1       1.758   1.008   4.574  0.00  0.00    +0.233 C 
ATOM     21  O   UNL     1       1.995  -0.135   4.904  0.00  0.00    -0.274 OA
ATOM     22  H   UNL     1       0.292   2.330   4.165  0.00  0.00    +0.149 HD
BRANCH  19  23
ATOM     23  C   UNL     1      -0.619   0.480   4.671  0.00  0.00    +0.070 C 
ATOM     24  C   UNL     1      -0.889  -0.329   3.401  0.00  0.00    +0.028 C 
BRANCH  23  26
ATOM     25  C   UNL     1      -1.649   1.972   6.391  0.00  0.00    +0.005 C 
ATOM     26  C   UNL     1      -1.877   1.261   5.055  0.00  0.00    +0.018 C 
ENDBRANCH  23  26
ENDBRANCH  19  23
ENDBRANCH  17  20
ENDBRANCH   1  17
TORSDOF 6
