REMARK  Name = ZINC38660372
REMARK  15 active torsions:
REMARK  status: ('A' for Active; 'I' for Inactive)
REMARK    1  A    between atoms: C_1  and  C_2
REMARK    2  A    between atoms: C_2  and  C_3
REMARK    3  A    between atoms: C_2  and  C_4
REMARK    4  A    between atoms: C_4  and  C_5
REMARK    5  A    between atoms: C_5  and  O_6
REMARK    6  A    between atoms: O_6  and  C_7
REMARK    7  A    between atoms: C_10  and  C_15
REMARK    8  A    between atoms: C_12  and  O_13
REMARK    9  A    between atoms: O_13  and  C_14
REMARK   10  A    between atoms: C_20  and  O_29
REMARK   11  A    between atoms: C_24  and  N_28
REMARK   12  A    between atoms: C_25  and  C_26
REMARK   13  A    between atoms: O_29  and  C_30
REMARK   14  A    between atoms: C_30  and  C_32
REMARK   15  A    between atoms: C_33  and  C_34
REMARK                            x       y       z     vdW  Elec       q    Type
REMARK                         _______ _______ _______ _____ _____    ______ ____
ROOT
ATOM      1  C   UNL     1      -6.645   0.449  -5.762  0.00  0.00    +0.098 C 
ATOM      2  C   UNL     1      -6.009  -0.143  -6.992  0.00  0.00    +0.008 A 
ATOM      3  C   UNL     1      -6.028  -1.514  -7.175  0.00  0.00    +0.012 A 
ATOM      4  C   UNL     1      -5.450  -2.074  -8.297  0.00  0.00    +0.047 A 
ATOM      5  C   UNL     1      -4.848  -1.260  -9.247  0.00  0.00    +0.135 A 
ATOM      6  C   UNL     1      -4.827   0.113  -9.066  0.00  0.00    +0.093 A 
ATOM      7  C   UNL     1      -5.409   0.675  -7.937  0.00  0.00    +0.138 A 
ATOM      8  O   UNL     1      -5.380   2.021  -7.774  0.00  0.00    -0.441 OA
ATOM      9  C   UNL     1      -6.241   2.612  -6.930  0.00  0.00    +0.199 C 
ATOM     10  C   UNL     1      -6.872   1.922  -5.955  0.00  0.00    +0.098 C 
ENDROOT
BRANCH   1  14
ATOM     11  C   UNL     1      -4.063  -0.156  -2.406  0.00  0.00    +0.162 A 
ATOM     12  C   UNL     1      -3.625   0.575  -3.499  0.00  0.00    +0.050 A 
ATOM     13  C   UNL     1      -4.462   0.769  -4.582  0.00  0.00    +0.008 A 
ATOM     14  C   UNL     1      -5.737   0.235  -4.579  0.00  0.00    -0.031 A 
ATOM     15  C   UNL     1      -6.181  -0.495  -3.491  0.00  0.00    +0.054 A 
ATOM     16  C   UNL     1      -5.345  -0.698  -2.405  0.00  0.00    +0.162 A 
BRANCH  16  17
ATOM     17  O   UNL     1      -5.778  -1.421  -1.338  0.00  0.00    -0.491 OA
ATOM     18  C   UNL     1      -7.104  -1.947  -1.406  0.00  0.00    +0.277 C 
ENDBRANCH  16  17
BRANCH  11  19
ATOM     19  O   UNL     1      -3.241  -0.347  -1.340  0.00  0.00    -0.488 OA
BRANCH  19  20
ATOM     20  C   UNL     1      -1.940   0.239  -1.411  0.00  0.00    +0.229 C 
BRANCH  20  21
ATOM     21  C   UNL     1      -1.166  -0.081  -0.131  0.00  0.00    +0.044 C 
BRANCH  21  23
ATOM     22  C   UNL     1       0.100   2.071  -0.231  0.00  0.00    +0.007 C 
ATOM     23  C   UNL     1       0.228   0.546  -0.206  0.00  0.00    -0.014 C 
ATOM     24  C   UNL     1       1.044   0.123   1.016  0.00  0.00    +0.007 C 
ENDBRANCH  21  23
ENDBRANCH  20  21
ENDBRANCH  19  20
ENDBRANCH  11  19
ENDBRANCH   1  14
BRANCH   9  25
ATOM     25  N   UNL     1      -6.485   3.956  -7.061  0.00  0.00    -0.328 N 
ATOM     26  H   UNL     1      -6.039   4.465  -7.756  0.00  0.00    +0.145 HD
ATOM     27  H   UNL     1      -7.105   4.398  -6.459  0.00  0.00    +0.145 HD
ENDBRANCH   9  25
BRANCH  10  28
ATOM     28  C   UNL     1      -7.778   2.612  -5.087  0.00  0.00    +0.101 C 
ATOM     29  N   UNL     1      -8.497   3.159  -4.398  0.00  0.00    -0.191 NA
ENDBRANCH  10  28
BRANCH   5  30
ATOM     30  O   UNL     1      -4.278  -1.810 -10.351  0.00  0.00    -0.423 OA
BRANCH  30  31
ATOM     31  C   UNL     1      -5.091  -2.365 -11.274  0.00  0.00    +0.337 C 
ATOM     32  O   UNL     1      -6.298  -2.271 -11.156  0.00  0.00    -0.245 OA
BRANCH  31  33
ATOM     33  C   UNL     1      -4.522  -3.079 -12.416  0.00  0.00    +0.092 C 
ATOM     34  C   UNL     1      -5.335  -3.633 -13.339  0.00  0.00    +0.015 C 
BRANCH  34  35
ATOM     35  C   UNL     1      -4.762  -4.351 -14.488  0.00  0.00    -0.025 A 
ATOM     36  C   UNL     1      -3.375  -4.467 -14.624  0.00  0.00    +0.008 A 
ATOM     37  C   UNL     1      -2.846  -5.141 -15.704  0.00  0.00    +0.001 A 
ATOM     38  C   UNL     1      -3.683  -5.704 -16.652  0.00  0.00    +0.000 A 
ATOM     39  C   UNL     1      -5.057  -5.594 -16.524  0.00  0.00    +0.001 A 
ATOM     40  C   UNL     1      -5.602  -4.928 -15.447  0.00  0.00    +0.008 A 
ENDBRANCH  34  35
ENDBRANCH  31  33
ENDBRANCH  30  31
ENDBRANCH   5  30
TORSDOF 12
