REMARK  Name = ZINC39226000
REMARK  4 active torsions:
REMARK  status: ('A' for Active; 'I' for Inactive)
REMARK    1  A    between atoms: C_1  and  O_2
REMARK    2  A    between atoms: O_2  and  C_3
REMARK    3  A    between atoms: C_19  and  C_21
REMARK    4  A    between atoms: C_21  and  C_22
REMARK                            x       y       z     vdW  Elec       q    Type
REMARK                         _______ _______ _______ _____ _____    ______ ____
ROOT
ATOM      1  C   UNL     1       0.606  -0.608  -1.056  0.00  0.00    +0.121 A 
ATOM      2  C   UNL     1       1.174   0.164  -2.064  0.00  0.00    +0.049 A 
ATOM      3  C   UNL     1       1.788  -0.434  -3.146  0.00  0.00    +0.050 A 
ATOM      4  C   UNL     1       1.846  -1.818  -3.238  0.00  0.00    +0.132 A 
ATOM      5  C   UNL     1       1.278  -2.598  -2.220  0.00  0.00    +0.063 A 
ATOM      6  C   UNL     1       0.660  -1.988  -1.126  0.00  0.00    +0.060 A 
ATOM      7  C   UNL     1       1.354  -4.067  -2.317  0.00  0.00    +0.171 C 
ATOM      8  O   UNL     1       1.076  -4.783  -1.378  0.00  0.00    -0.292 OA
ATOM      9  C   UNL     1       1.797  -4.636  -3.653  0.00  0.00    +0.127 C 
ATOM     10  C   UNL     1       2.926  -3.736  -4.175  0.00  0.00    +0.120 C 
ATOM     11  O   UNL     1       2.445  -2.399  -4.305  0.00  0.00    -0.484 OA
ATOM     12  C   UNL     1       3.391  -4.251  -5.539  0.00  0.00    +0.067 C 
ATOM     13  C   UNL     1       4.503  -3.342  -6.072  0.00  0.00    +0.111 C 
ATOM     14  N   UNL     1       5.568  -3.256  -5.064  0.00  0.00    -0.301 N 
ATOM     15  C   UNL     1       5.214  -2.855  -3.695  0.00  0.00    +0.111 C 
ATOM     16  C   UNL     1       4.094  -3.770  -3.188  0.00  0.00    +0.067 C 
ATOM     17  C   UNL     1       6.845  -3.539  -5.388  0.00  0.00    +0.216 C 
ATOM     18  O   UNL     1       7.125  -3.869  -6.521  0.00  0.00    -0.276 OA
ENDROOT
BRANCH   1  20
ATOM     19  C   UNL     1      -0.017   1.425   0.010  0.00  0.00    +0.277 C 
ATOM     20  O   UNL     1       0.002  -0.004   0.002  0.00  0.00    -0.495 OA
ENDBRANCH   1  20
BRANCH  17  21
ATOM     21  C   UNL     1       7.926  -3.446  -4.342  0.00  0.00    +0.099 C 
BRANCH  21  22
ATOM     22  C   UNL     1       9.273  -3.816  -4.966  0.00  0.00    +0.001 C 
ATOM     23  C   UNL     1       9.707  -2.740  -5.987  0.00  0.00    +0.007 C 
ATOM     24  C   UNL     1      11.050  -2.182  -5.426  0.00  0.00    -0.010 C 
ATOM     25  C   UNL     1      12.074  -3.338  -5.641  0.00  0.00    +0.004 C 
ATOM     26  C   UNL     1      11.651  -4.429  -4.631  0.00  0.00    +0.004 C 
ATOM     27  C   UNL     1      10.394  -3.810  -3.882  0.00  0.00    -0.007 C 
ATOM     28  C   UNL     1      10.785  -2.286  -3.882  0.00  0.00    +0.007 C 
ENDBRANCH  21  22
ENDBRANCH  17  21
TORSDOF 3
