REMARK  Name = ZINC09949840
REMARK  7 active torsions:
REMARK  status: ('A' for Active; 'I' for Inactive)
REMARK    1  A    between atoms: C_1  and  C_2
REMARK    2  A    between atoms: C_2  and  C_26
REMARK    3  A    between atoms: N_5  and  C_9
REMARK    4  A    between atoms: C_9  and  C_10
REMARK    5  A    between atoms: N_12  and  C_13
REMARK    6  A    between atoms: C_13  and  C_15
REMARK    7  A    between atoms: C_13  and  C_21
REMARK                            x       y       z     vdW  Elec       q    Type
REMARK                         _______ _______ _______ _____ _____    ______ ____
ROOT
ATOM      1  C   UNL     1       1.491   3.307   0.005  0.00  0.00    +0.213 C 
ENDROOT
BRANCH   1   6
ATOM      2  C   UNL     1       1.761  -1.221   1.235  0.00  0.00    +0.047 C 
ATOM      3  C   UNL     1       1.419  -0.406  -0.014  0.00  0.00    +0.136 C 
ATOM      4  C   UNL     1       2.164   0.914  -0.014  0.00  0.00    +0.251 C 
ATOM      5  O   UNL     1       3.365   1.077  -0.025  0.00  0.00    -0.272 OA
ATOM      6  N   UNL     1       1.213   1.869   0.001  0.00  0.00    -0.215 N 
ATOM      7  C   UNL     1      -0.016   1.341   0.009  0.00  0.00    +0.310 C 
ATOM      8  O   UNL     1      -1.036   2.003   0.018  0.00  0.00    -0.252 OA
ATOM      9  N   UNL     1       0.002  -0.004   0.002  0.00  0.00    -0.281 N 
ATOM     10  H   UNL     1      -0.768  -0.594   0.006  0.00  0.00    +0.152 HD
BRANCH   3  11
ATOM     11  C   UNL     1       1.734  -1.192  -1.260  0.00  0.00    +0.003 A 
ATOM     12  C   UNL     1       0.735  -1.464  -2.176  0.00  0.00    +0.007 A 
ATOM     13  C   UNL     1       1.022  -2.186  -3.320  0.00  0.00    +0.000 A 
ATOM     14  C   UNL     1       2.310  -2.635  -3.548  0.00  0.00    +0.001 A 
ATOM     15  C   UNL     1       3.310  -2.363  -2.634  0.00  0.00    +0.020 A 
ATOM     16  C   UNL     1       3.023  -1.637  -1.491  0.00  0.00    +0.047 A 
ATOM     17 CL   UNL     1       4.280  -1.289  -0.345  0.00  0.00    -0.083 Cl
ENDBRANCH   3  11
ENDBRANCH   1   6
BRANCH   1  18
ATOM     18  C   UNL     1       1.600   3.794   1.427  0.00  0.00    +0.232 C 
ATOM     19  O   UNL     1       1.460   3.016   2.346  0.00  0.00    -0.274 OA
ATOM     20  N   UNL     1       1.854   5.094   1.677  0.00  0.00    -0.303 N 
ATOM     21  H   UNL     1       1.967   5.716   0.941  0.00  0.00    +0.150 HD
BRANCH  20  22
ATOM     22  C   UNL     1       1.960   5.566   3.059  0.00  0.00    +0.140 C 
BRANCH  22  23
ATOM     23  C   UNL     1       2.812   6.809   3.101  0.00  0.00    -0.022 A 
ATOM     24  C   UNL     1       2.693   7.763   2.108  0.00  0.00    +0.006 A 
ATOM     25  C   UNL     1       3.471   8.905   2.149  0.00  0.00    +0.000 A 
ATOM     26  C   UNL     1       4.376   9.087   3.178  0.00  0.00    +0.000 A 
ATOM     27  C   UNL     1       4.500   8.131   4.168  0.00  0.00    +0.000 A 
ATOM     28  C   UNL     1       3.718   6.991   4.130  0.00  0.00    +0.006 A 
ENDBRANCH  22  23
BRANCH  22  29
ATOM     29  C   UNL     1       0.585   5.883   3.589  0.00  0.00    +0.014 A 
ATOM     30  C   UNL     1       0.068   5.641   4.818  0.00  0.00    +0.013 A 
ATOM     31  C   UNL     1      -1.234   6.024   5.085  0.00  0.00    +0.008 A 
ATOM     32  C   UNL     1      -1.954   6.628   4.109  0.00  0.00    +0.045 A 
ATOM     33  S   UNL     1      -0.782   6.678   2.762  0.00  0.00    -0.099 S 
ENDBRANCH  22  29
ENDBRANCH  20  22
ENDBRANCH   1  18
TORSDOF 6
