REMARK  Name = ZINC40048208
REMARK  14 active torsions:
REMARK  status: ('A' for Active; 'I' for Inactive)
REMARK    1  A    between atoms: C_1  and  C_2
REMARK    2  A    between atoms: C_2  and  C_3
REMARK    3  A    between atoms: C_3  and  O_4
REMARK    4  A    between atoms: O_4  and  C_5
REMARK    5  A    between atoms: C_8  and  C_11
REMARK    6  A    between atoms: C_11  and  C_13
REMARK    7  A    between atoms: N_17  and  C_30
REMARK    8  A    between atoms: C_18  and  C_20
REMARK    9  A    between atoms: C_22  and  O_28
REMARK   10  A    between atoms: C_23  and  O_27
REMARK   11  A    between atoms: O_28  and  C_29
REMARK   12  A    between atoms: C_30  and  C_31
REMARK   13  A    between atoms: C_31  and  C_32
REMARK   14  A    between atoms: C_32  and  O_33
REMARK                            x       y       z     vdW  Elec       q    Type
REMARK                         _______ _______ _______ _____ _____    ______ ____
ROOT
ATOM      1  C   UNL     1       3.288  -6.052   5.570  0.00  0.00    +0.076 C 
ATOM      2  C   UNL     1       3.763  -6.938   6.476  0.00  0.00    +0.249 C 
ATOM      3  C   UNL     1       3.528  -8.311   5.982  0.00  0.00    +0.288 C 
ATOM      4  O   UNL     1       3.842  -9.326   6.570  0.00  0.00    -0.266 OA
ATOM      5  N   UNL     1       2.915  -8.270   4.785  0.00  0.00    -0.283 N 
ATOM      6  C   UNL     1       2.709  -6.860   4.433  0.00  0.00    +0.145 C 
ATOM      7  O   UNL     1       4.359  -6.617   7.648  0.00  0.00    -0.282 OA
ENDROOT
BRANCH   6   8
ATOM      8  C   UNL     1       1.237  -6.569   4.287  0.00  0.00    -0.018 A 
ATOM      9  C   UNL     1       0.777  -5.879   3.180  0.00  0.00    +0.055 A 
ATOM     10  C   UNL     1      -0.576  -5.611   3.044  0.00  0.00    +0.163 A 
ATOM     11  C   UNL     1      -1.468  -6.036   4.023  0.00  0.00    +0.173 A 
ATOM     12  C   UNL     1      -1.001  -6.727   5.130  0.00  0.00    +0.063 A 
ATOM     13  C   UNL     1       0.350  -6.996   5.257  0.00  0.00    +0.025 A 
ATOM     14 BR   UNL     1      -2.210  -7.308   6.463  0.00  0.00    -0.046 Br
BRANCH  11  15
ATOM     15  O   UNL     1      -2.797  -5.774   3.894  0.00  0.00    -0.503 OA
ATOM     16  H   UNL     1      -3.290  -6.462   3.426  0.00  0.00    +0.292 HD
ENDBRANCH  11  15
BRANCH  10  17
ATOM     17  O   UNL     1      -1.030  -4.932   1.956  0.00  0.00    -0.491 OA
ATOM     18  C   UNL     1      -0.046  -4.421   1.054  0.00  0.00    +0.277 C 
ENDBRANCH  10  17
ENDBRANCH   6   8
BRANCH   1  19
ATOM     19  C   UNL     1       3.323  -4.590   5.675  0.00  0.00    +0.195 C 
ATOM     20  O   UNL     1       2.727  -4.030   6.577  0.00  0.00    -0.287 OA
BRANCH  19  24
ATOM     21  C   UNL     1       5.503  -2.308   2.833  0.00  0.00    +0.121 A 
ATOM     22  C   UNL     1       4.758  -1.664   3.815  0.00  0.00    +0.046 A 
ATOM     23  C   UNL     1       4.050  -2.400   4.738  0.00  0.00    +0.015 A 
ATOM     24  C   UNL     1       4.080  -3.796   4.687  0.00  0.00    +0.022 A 
ATOM     25  C   UNL     1       4.830  -4.440   3.698  0.00  0.00    +0.015 A 
ATOM     26  C   UNL     1       5.532  -3.697   2.776  0.00  0.00    +0.046 A 
BRANCH  21  27
ATOM     27  O   UNL     1       6.200  -1.579   1.925  0.00  0.00    -0.492 OA
BRANCH  27  28
ATOM     28  C   UNL     1       6.127  -0.156   2.042  0.00  0.00    +0.229 C 
BRANCH  28  30
ATOM     29  C   UNL     1       6.891   2.013   1.065  0.00  0.00    +0.007 C 
ATOM     30  C   UNL     1       6.969   0.490   0.940  0.00  0.00    +0.038 C 
ENDBRANCH  28  30
ENDBRANCH  27  28
ENDBRANCH  21  27
ENDBRANCH  19  24
ENDBRANCH   1  19
BRANCH   5  31
ATOM     31  C   UNL     1       2.518  -9.427   3.980  0.00  0.00    +0.111 C 
BRANCH  31  32
ATOM     32  C   UNL     1       1.095  -9.846   4.356  0.00  0.00    +0.047 C 
BRANCH  32  33
ATOM     33  C   UNL     1       0.680 -11.055   3.515  0.00  0.00    +0.157 C 
BRANCH  33  34
ATOM     34  O   UNL     1      -0.649 -11.446   3.866  0.00  0.00    -0.395 OA
ATOM     35  H   UNL     1      -0.978 -12.209   3.371  0.00  0.00    +0.209 HD
ENDBRANCH  33  34
ENDBRANCH  32  33
ENDBRANCH  31  32
ENDBRANCH   5  31
TORSDOF 12
