REMARK  Name = ZINC21529190
REMARK  12 active torsions:
REMARK  status: ('A' for Active; 'I' for Inactive)
REMARK    1  A    between atoms: C_1  and  C_2
REMARK    2  A    between atoms: C_5  and  C_8
REMARK    3  A    between atoms: C_8  and  N_9
REMARK    4  A    between atoms: C_10  and  C_12
REMARK    5  A    between atoms: C_12  and  C_33
REMARK    6  A    between atoms: N_14  and  S_29
REMARK    7  A    between atoms: N_18  and  C_19
REMARK    8  A    between atoms: C_19  and  C_20
REMARK    9  A    between atoms: C_23  and  N_26
REMARK   10  A    between atoms: N_26  and  C_27
REMARK   11  A    between atoms: N_26  and  C_28
REMARK   12  A    between atoms: S_29  and  C_32
REMARK                            x       y       z     vdW  Elec       q    Type
REMARK                         _______ _______ _______ _____ _____    ______ ____
ROOT
ATOM      1  C   UNL     1       2.693   0.491   2.483  0.00  0.00    +0.125 C 
ATOM      2  C   UNL     1       2.068  -0.374   1.381  0.00  0.00    +0.144 C 
ATOM      3  N   UNL     1       0.618  -0.117   1.369  0.00  0.00    -0.170 NA
ATOM      4  C   UNL     1      -0.136  -0.450   2.586  0.00  0.00    +0.205 C 
ATOM      5  C   UNL     1       0.649   0.009   3.785  0.00  0.00    +0.232 C 
ATOM      6  O   UNL     1       0.094   0.037   4.864  0.00  0.00    -0.274 OA
ATOM      7  N   UNL     1       1.926   0.386   3.717  0.00  0.00    -0.281 N 
ATOM      8  C   UNL     1       2.717   1.951   2.028  0.00  0.00    +0.043 C 
ENDROOT
BRANCH   1  10
ATOM      9  N   UNL     1       4.424  -1.273   2.580  0.00  0.00    -0.309 N 
ATOM     10  C   UNL     1       4.104   0.027   2.736  0.00  0.00    +0.238 C 
ATOM     11  O   UNL     1       4.952   0.823   3.079  0.00  0.00    -0.273 OA
ATOM     12  H   UNL     1       3.672  -1.984   2.208  0.00  0.00    +0.149 HD
BRANCH   9  13
ATOM     13  C   UNL     1       5.774  -1.739   2.907  0.00  0.00    +0.139 C 
BRANCH  13  18
ATOM     14  C   UNL     1       6.316  -7.289   1.390  0.00  0.00    +0.044 C 
ATOM     15  C   UNL     1       6.175  -5.842   1.786  0.00  0.00    -0.050 A 
ATOM     16  C   UNL     1       6.586  -4.846   0.920  0.00  0.00    +0.003 A 
ATOM     17  C   UNL     1       6.457  -3.518   1.283  0.00  0.00    +0.005 A 
ATOM     18  C   UNL     1       5.915  -3.187   2.511  0.00  0.00    -0.030 A 
ATOM     19  C   UNL     1       5.508  -4.183   3.378  0.00  0.00    +0.005 A 
ATOM     20  C   UNL     1       5.633  -5.511   3.014  0.00  0.00    +0.003 A 
ENDBRANCH  13  18
ENDBRANCH   9  13
ENDBRANCH   1  10
BRANCH   3  21
ATOM     21  S   UNL     1      -0.133   0.515   0.035  0.00  0.00    +0.029 S 
ATOM     22  O   UNL     1      -1.476   0.057   0.124  0.00  0.00    -0.158 OA
ATOM     23  O   UNL     1       0.690   0.137  -1.059  0.00  0.00    -0.158 OA
ATOM     24  C   UNL     1      -0.070   2.313   0.273  0.00  0.00    +0.215 C 
ENDBRANCH   3  21
BRANCH   7  25
ATOM     25  C   UNL     1       2.606   0.719   4.972  0.00  0.00    +0.144 C 
BRANCH  25  26
ATOM     26  C   UNL     1       3.092  -0.547   5.630  0.00  0.00    -0.030 A 
ATOM     27  C   UNL     1       2.225  -1.302   6.398  0.00  0.00    +0.007 A 
ATOM     28  C   UNL     1       2.665  -2.466   6.998  0.00  0.00    +0.023 A 
ATOM     29  C   UNL     1       3.984  -2.870   6.839  0.00  0.00    +0.029 A 
ATOM     30  C   UNL     1       4.855  -2.106   6.072  0.00  0.00    +0.023 A 
ATOM     31  C   UNL     1       4.406  -0.947   5.470  0.00  0.00    +0.007 A 
BRANCH  29  32
ATOM     32  N   UNL     1       4.435  -4.043   7.449  0.00  0.00    -0.336 N 
ATOM     33  C   UNL     1       5.848  -4.418   7.362  0.00  0.00    +0.129 C 
ATOM     34  C   UNL     1       3.494  -4.899   8.175  0.00  0.00    +0.129 C 
ENDBRANCH  29  32
ENDBRANCH  25  26
ENDBRANCH   7  25
TORSDOF 7
