REMARK  Name = ZINC60167010
REMARK  9 active torsions:
REMARK  status: ('A' for Active; 'I' for Inactive)
REMARK    1  A    between atoms: C_1  and  C_2
REMARK    2  A    between atoms: C_2  and  C_4
REMARK    3  A    between atoms: C_2  and  N_11
REMARK    4  A    between atoms: N_6  and  C_7
REMARK    5  A    between atoms: C_7  and  C_8
REMARK    6  A    between atoms: C_7  and  C_9
REMARK    7  A    between atoms: C_7  and  C_10
REMARK    8  A    between atoms: C_12  and  C_14
REMARK    9  A    between atoms: C_18  and  N_19
REMARK                            x       y       z     vdW  Elec       q    Type
REMARK                         _______ _______ _______ _____ _____    ______ ____
ROOT
ATOM      1  N   UNL     1       0.688  -0.476  -1.203  0.00  0.00    -0.300 N 
ATOM      2  C   UNL     1       0.006  -0.608  -2.358  0.00  0.00    +0.247 C 
ATOM      3  O   UNL     1      -1.179  -0.335  -2.400  0.00  0.00    -0.270 OA
ATOM      4  H   UNL     1       1.632  -0.695  -1.170  0.00  0.00    +0.150 HD
ENDROOT
BRANCH   2   5
ATOM      5  C   UNL     1       0.693  -1.081  -3.566  0.00  0.00    +0.071 A 
ATOM      6  C   UNL     1       0.761  -2.494  -3.892  0.00  0.00    -0.023 A 
ATOM      7  C   UNL     1       1.428  -2.766  -5.035  0.00  0.00    -0.004 A 
ATOM      8  S   UNL     1       1.939  -1.185  -5.642  0.00  0.00    -0.075 S 
ATOM      9  C   UNL     1       1.298  -0.198  -4.444  0.00  0.00    +0.097 A 
ATOM     10  C   UNL     1       1.671  -4.116  -5.636  0.00  0.00    +0.043 C 
ATOM     11  C   UNL     1       1.376  -5.179  -4.567  0.00  0.00    +0.005 C 
ATOM     12  C   UNL     1       0.028  -4.863  -3.913  0.00  0.00    +0.005 C 
ATOM     13  C   UNL     1       0.150  -3.605  -3.050  0.00  0.00    +0.037 C 
BRANCH   9  14
ATOM     14  N   UNL     1       1.362   1.188  -4.354  0.00  0.00    -0.317 N 
ATOM     15  C   UNL     1       0.829   1.948  -3.350  0.00  0.00    +0.092 A 
ATOM     16  C   UNL     1       1.096   3.242  -3.614  0.00  0.00    +0.019 A 
ATOM     17  C   UNL     1       1.820   3.288  -4.823  0.00  0.00    +0.019 A 
ATOM     18  C   UNL     1       1.973   2.019  -5.251  0.00  0.00    +0.092 A 
ENDBRANCH   9  14
ENDBRANCH   2   5
BRANCH   1  20
ATOM     19  C   UNL     1      -0.019   1.526   0.010  0.00  0.00    +0.038 C 
ATOM     20  C   UNL     1       0.002  -0.004   0.002  0.00  0.00    +0.156 C 
BRANCH  20  21
ATOM     21  C   UNL     1       0.731  -0.503   1.223  0.00  0.00    +0.233 C 
ATOM     22  O   UNL     1       1.725  -1.187   1.099  0.00  0.00    -0.274 OA
ATOM     23  N   UNL     1       0.278  -0.191   2.453  0.00  0.00    -0.309 N 
ATOM     24  H   UNL     1      -0.517   0.356   2.553  0.00  0.00    +0.149 HD
BRANCH  23  25
ATOM     25  C   UNL     1       0.986  -0.676   3.640  0.00  0.00    +0.026 C 
ATOM     26  C   UNL     1       2.422  -0.146   3.629  0.00  0.00    +0.031 C 
ATOM     27  C   UNL     1       0.270  -0.182   4.899  0.00  0.00    +0.031 C 
ATOM     28  C   UNL     1       1.007  -2.206   3.631  0.00  0.00    +0.031 C 
ENDBRANCH  23  25
ENDBRANCH  20  21
ENDBRANCH   1  20
TORSDOF 5
