REMARK  Name = ZINC20201754
REMARK  6 active torsions:
REMARK  status: ('A' for Active; 'I' for Inactive)
REMARK    1  A    between atoms: C_4  and  C_7
REMARK    2  A    between atoms: C_7  and  C_9
REMARK    3  A    between atoms: C_7  and  S_19
REMARK    4  A    between atoms: N_11  and  C_12
REMARK    5  A    between atoms: C_12  and  C_13
REMARK    6  A    between atoms: S_19  and  C_20
REMARK                            x       y       z     vdW  Elec       q    Type
REMARK                         _______ _______ _______ _____ _____    ______ ____
ROOT
ATOM      1  C   UNL     1       3.711  -0.707  -0.038  0.00  0.00    +0.167 C 
ENDROOT
BRANCH   1   5
ATOM      2  C   UNL     1      -0.017   1.378   0.010  0.00  0.00    +0.000 A 
ATOM      3  C   UNL     1       1.171   2.086   0.002  0.00  0.00    +0.000 A 
ATOM      4  C   UNL     1       2.377   1.411  -0.013  0.00  0.00    +0.005 A 
ATOM      5  C   UNL     1       2.396   0.029  -0.020  0.00  0.00    -0.025 A 
ATOM      6  C   UNL     1       1.208  -0.679  -0.012  0.00  0.00    +0.005 A 
ATOM      7  C   UNL     1       0.002  -0.004   0.002  0.00  0.00    +0.000 A 
ENDBRANCH   1   5
BRANCH   1   8
ATOM      8  C   UNL     1       3.816  -1.579   1.188  0.00  0.00    +0.231 C 
ATOM      9  O   UNL     1       3.579  -2.765   1.109  0.00  0.00    -0.274 OA
ATOM     10  N   UNL     1       4.172  -1.039   2.370  0.00  0.00    -0.308 N 
ATOM     11  H   UNL     1       4.361  -0.089   2.433  0.00  0.00    +0.149 HD
BRANCH  10  12
ATOM     12  C   UNL     1       4.273  -1.886   3.561  0.00  0.00    +0.169 C 
BRANCH  12  13
ATOM     13  C   UNL     1       4.685  -1.045   4.742  0.00  0.00    +0.121 A 
ATOM     14  N   UNL     1       3.945  -0.398   5.619  0.00  0.00    -0.143 NA
ATOM     15  N   UNL     1       4.450   0.270   6.563  0.00  0.00    -0.126 NA
ATOM     16  C   UNL     1       5.763   0.361   6.729  0.00  0.00    +0.179 A 
ATOM     17  S   UNL     1       6.318  -0.647   5.358  0.00  0.00    -0.034 S 
ATOM     18  N   UNL     1       6.495   1.039   7.693  0.00  0.00    -0.336 N 
ATOM     19  H   UNL     1       6.038   1.545   8.383  0.00  0.00    +0.144 HD
ATOM     20  H   UNL     1       7.464   1.006   7.677  0.00  0.00    +0.144 HD
ENDBRANCH  12  13
ENDBRANCH  10  12
ENDBRANCH   1   8
BRANCH   1  21
ATOM     21  S   UNL     1       3.806  -1.741  -1.525  0.00  0.00    -0.108 S 
BRANCH  21  22
ATOM     22  C   UNL     1       3.820  -0.581  -2.851  0.00  0.00    +0.009 A 
ATOM     23  C   UNL     1       3.768   0.782  -2.584  0.00  0.00    +0.015 A 
ATOM     24  C   UNL     1       3.779   1.689  -3.626  0.00  0.00    +0.001 A 
ATOM     25  C   UNL     1       3.841   1.242  -4.933  0.00  0.00    +0.000 A 
ATOM     26  C   UNL     1       3.892  -0.114  -5.202  0.00  0.00    +0.001 A 
ATOM     27  C   UNL     1       3.887  -1.026  -4.165  0.00  0.00    +0.015 A 
ENDBRANCH  21  22
ENDBRANCH   1  21
TORSDOF 6
