REMARK  Name = ZINC59678249
REMARK  5 active torsions:
REMARK  status: ('A' for Active; 'I' for Inactive)
REMARK    1  A    between atoms: C_4  and  N_7
REMARK    2  A    between atoms: N_7  and  C_8
REMARK    3  A    between atoms: C_11  and  N_14
REMARK    4  A    between atoms: C_15  and  C_16
REMARK    5  A    between atoms: C_19  and  N_21
REMARK                            x       y       z     vdW  Elec       q    Type
REMARK                         _______ _______ _______ _____ _____    ______ ____
ROOT
ATOM      1  C   UNL     1       3.684  -2.043   0.033  0.00  0.00    +0.031 A 
ATOM      2  C   UNL     1       2.521  -2.805   0.026  0.00  0.00    +0.025 A 
ATOM      3  C   UNL     1       2.594  -4.178   0.109  0.00  0.00    +0.029 A 
ATOM      4  C   UNL     1       3.840  -4.806   0.199  0.00  0.00    +0.064 A 
ATOM      5  C   UNL     1       5.007  -4.037   0.205  0.00  0.00    +0.029 A 
ATOM      6  C   UNL     1       4.926  -2.664   0.117  0.00  0.00    +0.025 A 
ENDROOT
BRANCH   1   7
ATOM      7  N   UNL     1       3.606  -0.651  -0.051  0.00  0.00    -0.314 N 
ATOM      8  H   UNL     1       4.305  -0.152  -0.503  0.00  0.00    +0.152 HD
BRANCH   7  12
ATOM      9  C   UNL     1       0.376   1.359   1.640  0.00  0.00    +0.000 A 
ATOM     10  C   UNL     1       0.750   0.121   2.129  0.00  0.00    +0.002 A 
ATOM     11  C   UNL     1       1.821  -0.549   1.570  0.00  0.00    +0.023 A 
ATOM     12  C   UNL     1       2.522   0.024   0.516  0.00  0.00    +0.031 A 
ATOM     13  C   UNL     1       2.143   1.268   0.028  0.00  0.00    +0.023 A 
ATOM     14  C   UNL     1       1.072   1.932   0.592  0.00  0.00    +0.002 A 
ENDBRANCH   7  12
ENDBRANCH   1   7
BRANCH   4  15
ATOM     15  N   UNL     1       3.916  -6.169   0.281  0.00  0.00    -0.252 NA
ATOM     16  C   UNL     1       4.788  -6.821  -0.449  0.00  0.00    +0.157 C 
BRANCH  16  17
ATOM     17  C   UNL     1       4.867  -8.228  -0.364  0.00  0.00    +0.149 A 
ATOM     18  C   UNL     1       5.738  -9.037  -1.067  0.00  0.00    +0.068 A 
ATOM     19  C   UNL     1       5.470 -10.353  -0.675  0.00  0.00    +0.079 A 
ATOM     20  C   UNL     1       4.461 -10.303   0.240  0.00  0.00    +0.204 A 
ATOM     21  O   UNL     1       4.107  -9.021   0.425  0.00  0.00    -0.439 OA
ATOM     22 BR   UNL     1       6.345 -11.910  -1.298  0.00  0.00    -0.045 Br
BRANCH  20  23
ATOM     23  N   UNL     1       3.897 -11.393   0.877  0.00  0.00    -0.296 N 
ATOM     24  C   UNL     1       4.362 -11.819   2.206  0.00  0.00    +0.136 C 
ATOM     25  C   UNL     1       3.141 -11.974   3.119  0.00  0.00    +0.179 C 
ATOM     26  O   UNL     1       2.182 -12.821   2.482  0.00  0.00    -0.377 OA
ATOM     27  C   UNL     1       1.667 -12.301   1.254  0.00  0.00    +0.179 C 
ATOM     28  C   UNL     1       2.809 -12.159   0.247  0.00  0.00    +0.136 C 
ENDBRANCH  20  23
ENDBRANCH  16  17
ENDBRANCH   4  15
TORSDOF 5
