REMARK  Name = ZINC21871896
REMARK  9 active torsions:
REMARK  status: ('A' for Active; 'I' for Inactive)
REMARK    1  A    between atoms: C_1  and  C_2
REMARK    2  A    between atoms: C_5  and  N_9
REMARK    3  A    between atoms: C_6  and  C_8
REMARK    4  A    between atoms: C_15  and  C_17
REMARK    5  A    between atoms: C_17  and  C_18
REMARK    6  A    between atoms: C_18  and  C_20
REMARK    7  A    between atoms: C_18  and  S_21
REMARK    8  A    between atoms: S_21  and  C_24
REMARK    9  A    between atoms: C_33  and  C_35
REMARK                            x       y       z     vdW  Elec       q    Type
REMARK                         _______ _______ _______ _____ _____    ______ ____
ROOT
ATOM      1  C   UNL     1      -0.019   1.526   0.010  0.00  0.00    +0.122 C 
ENDROOT
BRANCH   1   8
ATOM      2  N   UNL     1       2.074   5.936   1.007  0.00  0.00    -0.327 N 
ATOM      3  C   UNL     1       3.132   4.925   1.131  0.00  0.00    +0.124 C 
ATOM      4  C   UNL     1       2.995   3.906  -0.006  0.00  0.00    +0.126 C 
ATOM      5  N   UNL     1       1.623   3.376   0.005  0.00  0.00    -0.298 N 
ATOM      6  C   UNL     1       0.507   4.333   0.014  0.00  0.00    +0.126 C 
ATOM      7  C   UNL     1       0.742   5.335   1.156  0.00  0.00    +0.124 C 
ATOM      8  C   UNL     1       1.395   2.047  -0.000  0.00  0.00    +0.217 C 
ATOM      9  O   UNL     1       2.328   1.272  -0.013  0.00  0.00    -0.276 OA
BRANCH   2  14
ATOM     10  C   UNL     1       2.838  10.140   4.736  0.00  0.00    +0.044 C 
ATOM     11  C   UNL     1       2.634   9.023   3.745  0.00  0.00    -0.050 A 
ATOM     12  C   UNL     1       2.461   7.726   4.193  0.00  0.00    +0.005 A 
ATOM     13  C   UNL     1       2.275   6.700   3.288  0.00  0.00    +0.023 A 
ATOM     14  C   UNL     1       2.261   6.972   1.925  0.00  0.00    +0.033 A 
ATOM     15  C   UNL     1       2.441   8.275   1.479  0.00  0.00    -0.029 A 
ATOM     16  C   UNL     1       2.622   9.297   2.390  0.00  0.00    +0.008 A 
ATOM     17  C   UNL     1       2.433   8.573   0.002  0.00  0.00    +0.045 C 
ENDBRANCH   2  14
ENDBRANCH   1   8
BRANCH   1  18
ATOM     18  C   UNL     1       0.002  -0.004   0.002  0.00  0.00    +0.142 C 
ATOM     19  C   UNL     1      -1.427  -0.534   0.139  0.00  0.00    +0.032 C 
BRANCH  18  20
ATOM     20  S   UNL     1       0.718  -0.591  -1.558  0.00  0.00    -0.000 S 
ATOM     21  O   UNL     1      -0.092  -0.182  -2.652  0.00  0.00    -0.169 OA
ATOM     22  O   UNL     1       2.120  -0.361  -1.570  0.00  0.00    -0.169 OA
BRANCH  20  23
ATOM     23  C   UNL     1       0.549  -2.344  -1.503  0.00  0.00    +0.089 A 
ATOM     24  C   UNL     1      -0.589  -2.947  -2.006  0.00  0.00    +0.029 A 
ATOM     25  C   UNL     1      -0.724  -4.318  -1.964  0.00  0.00    +0.025 A 
ATOM     26  C   UNL     1       0.287  -5.108  -1.413  0.00  0.00    +0.040 A 
ATOM     27  C   UNL     1       1.423  -4.495  -0.913  0.00  0.00    -0.023 A 
ATOM     28  C   UNL     1       1.557  -3.120  -0.962  0.00  0.00    +0.032 A 
ATOM     29  C   UNL     1       2.352  -5.562  -0.380  0.00  0.00    +0.056 C 
ATOM     30  C   UNL     1       1.609  -6.884  -0.635  0.00  0.00    +0.118 C 
ATOM     31  N   UNL     1       0.348  -6.498  -1.274  0.00  0.00    -0.271 N 
ATOM     32  C   UNL     1      -0.612  -7.358  -1.671  0.00  0.00    +0.217 C 
ATOM     33  O   UNL     1      -1.623  -6.939  -2.193  0.00  0.00    -0.276 OA
ATOM     34  C   UNL     1      -0.428  -8.839  -1.466  0.00  0.00    +0.109 C 
ENDBRANCH  20  23
ENDBRANCH  18  20
ENDBRANCH   1  18
TORSDOF 5
