REMARK  Name = ZINC03186568
REMARK  4 active torsions:
REMARK  status: ('A' for Active; 'I' for Inactive)
REMARK    1  A    between atoms: C_3  and  C_17
REMARK    2  A    between atoms: C_5  and  O_7
REMARK    3  A    between atoms: O_7  and  C_8
REMARK    4  A    between atoms: C_8  and  C_10
REMARK                            x       y       z     vdW  Elec       q    Type
REMARK                         _______ _______ _______ _____ _____    ______ ____
ROOT
ATOM      1  C   UNL     1       6.114  -0.892  -0.031  0.00  0.00    +0.004 A 
ATOM      2  C   UNL     1       7.282  -0.154   0.035  0.00  0.00    +0.007 A 
ATOM      3  C   UNL     1       7.229   1.226   0.081  0.00  0.00    -0.006 A 
ATOM      4  C   UNL     1       6.008   1.873   0.057  0.00  0.00    +0.053 A 
ATOM      5  C   UNL     1       4.835   1.136  -0.004  0.00  0.00    +0.132 A 
ATOM      6  C   UNL     1       4.891  -0.250  -0.050  0.00  0.00    +0.046 A 
ENDROOT
BRANCH   3   7
ATOM      7  C   UNL     1       8.504   2.027   0.153  0.00  0.00    +0.190 C 
ATOM      8  N   UNL     1       9.530   1.238   0.858  0.00  0.00    -0.316 N 
ATOM      9  C   UNL     1       9.502   1.275   2.229  0.00  0.00    +0.080 A 
ATOM     10  C   UNL     1       8.923   2.328   2.952  0.00  0.00    +0.068 A 
ATOM     11  C   UNL     1       8.985   2.212   4.401  0.00  0.00    -0.023 A 
ATOM     12  C   UNL     1       9.590   1.099   4.872  0.00  0.00    -0.005 A 
ATOM     13  S   UNL     1      10.082   0.197   3.426  0.00  0.00    -0.078 S 
ATOM     14  C   UNL     1       9.796   0.720   6.306  0.00  0.00    +0.043 C 
ATOM     15  C   UNL     1       9.551   1.962   7.176  0.00  0.00    +0.005 C 
ATOM     16  C   UNL     1       8.241   2.620   6.734  0.00  0.00    +0.005 C 
ATOM     17  C   UNL     1       8.417   3.256   5.355  0.00  0.00    +0.037 C 
ATOM     18  C   UNL     1       8.310   3.434   2.180  0.00  0.00    +0.248 C 
ATOM     19  O   UNL     1       7.888   4.434   2.732  0.00  0.00    -0.270 OA
ATOM     20  N   UNL     1       8.239   3.287   0.841  0.00  0.00    -0.289 N 
ATOM     21  H   UNL     1      10.193   0.718   0.377  0.00  0.00    +0.149 HD
ATOM     22  H   UNL     1       8.000   4.060   0.306  0.00  0.00    +0.151 HD
ENDBRANCH   3   7
BRANCH   5  23
ATOM     23  O   UNL     1       3.633   1.769  -0.023  0.00  0.00    -0.422 OA
BRANCH  23  24
ATOM     24  C   UNL     1       2.927   1.776   1.124  0.00  0.00    +0.344 C 
ATOM     25  O   UNL     1       3.329   1.157   2.089  0.00  0.00    -0.245 OA
BRANCH  24  26
ATOM     26  C   UNL     1       1.663   2.537   1.209  0.00  0.00    +0.060 A 
ATOM     27  C   UNL     1       0.929   2.546   2.397  0.00  0.00    +0.015 A 
ATOM     28  C   UNL     1      -0.253   3.254   2.468  0.00  0.00    +0.002 A 
ATOM     29  C   UNL     1      -0.706   3.962   1.370  0.00  0.00    +0.015 A 
ATOM     30  C   UNL     1       0.017   3.958   0.189  0.00  0.00    +0.019 A 
ATOM     31  C   UNL     1       1.198   3.250   0.103  0.00  0.00    +0.030 A 
ATOM     32 BR   UNL     1      -0.616   4.925  -1.308  0.00  0.00    -0.050 Br
ENDBRANCH  24  26
ENDBRANCH  23  24
ENDBRANCH   5  23
TORSDOF 4
