REMARK  Name = ZINC32737613
REMARK  12 active torsions:
REMARK  status: ('A' for Active; 'I' for Inactive)
REMARK    1  A    between atoms: C_1  and  C_2
REMARK    2  A    between atoms: N_8  and  C_9
REMARK    3  A    between atoms: C_9  and  C_11
REMARK    4  A    between atoms: C_9  and  C_12
REMARK    5  A    between atoms: C_12  and  N_13
REMARK    6  A    between atoms: C_14  and  C_16
REMARK    7  A    between atoms: C_19  and  S_21
REMARK    8  A    between atoms: S_21  and  N_24
REMARK    9  A    between atoms: N_24  and  C_25
REMARK   10  A    between atoms: C_25  and  C_26
REMARK   11  A    between atoms: C_25  and  C_27
REMARK   12  A    between atoms: C_25  and  C_28
REMARK                            x       y       z     vdW  Elec       q    Type
REMARK                         _______ _______ _______ _____ _____    ______ ____
ROOT
ATOM      1  N   UNL     1      -1.235   2.106   1.051  0.00  0.00    -0.310 N 
ATOM      2  C   UNL     1      -1.127   3.325   0.486  0.00  0.00    +0.279 C 
ATOM      3  O   UNL     1      -0.491   4.200   1.043  0.00  0.00    -0.267 OA
ATOM      4  H   UNL     1      -1.683   1.389   0.576  0.00  0.00    +0.149 HD
ENDROOT
BRANCH   2   5
ATOM      5  C   UNL     1      -1.778   3.597  -0.800  0.00  0.00    +0.192 A 
ATOM      6  C   UNL     1      -1.670   4.748  -1.526  0.00  0.00    +0.057 A 
ATOM      7  C   UNL     1      -2.451   4.574  -2.679  0.00  0.00    +0.072 A 
ATOM      8  C   UNL     1      -2.995   3.339  -2.607  0.00  0.00    +0.258 A 
ATOM      9  O   UNL     1      -2.583   2.752  -1.476  0.00  0.00    -0.432 OA
BRANCH   8  10
ATOM     10  S   UNL     1      -4.066   2.618  -3.806  0.00  0.00    +0.092 S 
ATOM     11  O   UNL     1      -4.704   1.518  -3.171  0.00  0.00    -0.150 OA
ATOM     12  O   UNL     1      -4.795   3.686  -4.394  0.00  0.00    -0.150 OA
BRANCH  10  13
ATOM     13  N   UNL     1      -3.108   1.985  -5.000  0.00  0.00    -0.182 NA
ATOM     14  H   UNL     1      -3.126   2.369  -5.890  0.00  0.00    +0.149 HD
BRANCH  13  15
ATOM     15  C   UNL     1      -2.235   0.845  -4.711  0.00  0.00    +0.032 C 
ATOM     16  C   UNL     1      -3.090  -0.392  -4.422  0.00  0.00    +0.029 C 
ATOM     17  C   UNL     1      -1.336   0.572  -5.918  0.00  0.00    +0.029 C 
ATOM     18  C   UNL     1      -1.369   1.162  -3.491  0.00  0.00    +0.029 C 
ENDBRANCH  13  15
ENDBRANCH  10  13
ENDBRANCH   8  10
ENDBRANCH   2   5
BRANCH   1  19
ATOM     19  C   UNL     1      -0.676   1.865   2.384  0.00  0.00    +0.089 C 
BRANCH  19  20
ATOM     20  C   UNL     1      -1.026   0.445   2.834  0.00  0.00    -0.054 C 
ATOM     21  C   UNL     1      -0.331   0.145   4.163  0.00  0.00    -0.012 C 
BRANCH  20  28
ATOM     22  C   UNL     1      -2.447  -1.950   2.472  0.00  0.00    -0.013 C 
ATOM     23  C   UNL     1      -0.937  -1.875   2.237  0.00  0.00    -0.071 C 
ATOM     24  C   UNL     1      -0.542  -2.872   1.145  0.00  0.00    -0.016 C 
ATOM     25  C   UNL     1       0.970  -2.793   0.913  0.00  0.00    -0.003 C 
ATOM     26  C   UNL     1       1.347  -1.354   0.550  0.00  0.00    -0.019 C 
ATOM     27  C   UNL     1       0.882  -0.414   1.664  0.00  0.00    -0.078 C 
ATOM     28  N   UNL     1      -0.575  -0.516   1.818  0.00  0.00    +0.384 N 
ATOM     29  H   UNL     1      -1.021  -0.306   0.938  0.00  0.00    -0.081 HD
ENDBRANCH  20  28
ENDBRANCH  19  20
ENDBRANCH   1  19
TORSDOF 7
