REMARK  Name = ZINC11070006
REMARK  7 active torsions:
REMARK  status: ('A' for Active; 'I' for Inactive)
REMARK    1  A    between atoms: C_1  and  C_2
REMARK    2  A    between atoms: C_2  and  C_4
REMARK    3  A    between atoms: C_2  and  S_15
REMARK    4  A    between atoms: N_6  and  C_7
REMARK    5  A    between atoms: C_12  and  C_13
REMARK    6  A    between atoms: S_15  and  C_16
REMARK    7  A    between atoms: N_29  and  C_30
REMARK                            x       y       z     vdW  Elec       q    Type
REMARK                         _______ _______ _______ _____ _____    ______ ____
ROOT
ATOM      1  C   UNL     1      -1.242  -2.354   0.665  0.00  0.00    +0.174 A 
ATOM      2  N   UNL     1      -0.055  -2.789   0.295  0.00  0.00    -0.216 NA
ATOM      3  C   UNL     1       0.234  -4.085   0.323  0.00  0.00    +0.117 A 
ATOM      4  C   UNL     1      -0.702  -5.050   0.732  0.00  0.00    +0.076 A 
ATOM      5  C   UNL     1      -0.241  -6.439   0.704  0.00  0.00    -0.023 A 
ATOM      6  C   UNL     1       1.025  -6.656   0.292  0.00  0.00    -0.004 A 
ATOM      7  S   UNL     1       1.670  -5.047  -0.078  0.00  0.00    -0.073 S 
ATOM      8  C   UNL     1       1.729  -7.974   0.175  0.00  0.00    +0.043 C 
ATOM      9  C   UNL     1       0.918  -9.026   0.945  0.00  0.00    +0.005 C 
ATOM     10  C   UNL     1      -0.555  -8.899   0.547  0.00  0.00    +0.005 C 
ATOM     11  C   UNL     1      -1.137  -7.604   1.116  0.00  0.00    +0.037 C 
ATOM     12  C   UNL     1      -1.984  -4.550   1.124  0.00  0.00    +0.263 A 
ATOM     13  O   UNL     1      -2.859  -5.313   1.494  0.00  0.00    -0.267 OA
ATOM     14  N   UNL     1      -2.210  -3.224   1.077  0.00  0.00    -0.284 N 
ENDROOT
BRANCH  14  15
ATOM     15  C   UNL     1      -3.521  -2.704   1.476  0.00  0.00    +0.093 C 
ATOM     16  C   UNL     1      -3.837  -3.125   2.926  0.00  0.00    +0.025 C 
ATOM     17  C   UNL     1      -5.359  -3.415   2.914  0.00  0.00    +0.002 C 
ATOM     18  C   UNL     1      -5.569  -4.085   1.533  0.00  0.00    +0.002 C 
ATOM     19  C   UNL     1      -4.621  -3.314   0.591  0.00  0.00    +0.025 C 
ENDBRANCH  14  15
BRANCH   1  20
ATOM     20  S   UNL     1      -1.588  -0.627   0.621  0.00  0.00    -0.075 S 
BRANCH  20  22
ATOM     21  C   UNL     1       0.244  -0.514  -1.402  0.00  0.00    +0.029 C 
ATOM     22  C   UNL     1       0.001  -0.004   0.020  0.00  0.00    +0.137 C 
BRANCH  22  23
ATOM     23  C   UNL     1      -0.019   1.503   0.016  0.00  0.00    +0.230 C 
ATOM     24  O   UNL     1      -1.077   2.096   0.021  0.00  0.00    -0.274 OA
ATOM     25  N   UNL     1       1.139   2.192   0.003  0.00  0.00    -0.284 N 
ATOM     26  H   UNL     1       1.985   1.721   0.061  0.00  0.00    +0.155 HD
BRANCH  25  27
ATOM     27  C   UNL     1       1.122   3.583  -0.095  0.00  0.00    +0.051 A 
ATOM     28  C   UNL     1       0.107   4.312   0.509  0.00  0.00    +0.024 A 
ATOM     29  C   UNL     1       0.093   5.689   0.415  0.00  0.00    +0.002 A 
ATOM     30  C   UNL     1       1.085   6.353  -0.289  0.00  0.00    +0.001 A 
ATOM     31  C   UNL     1       2.098   5.646  -0.899  0.00  0.00    +0.021 A 
ATOM     32  C   UNL     1       2.127   4.252  -0.809  0.00  0.00    +0.073 A 
BRANCH  32  33
ATOM     33  C   UNL     1       3.177   3.511  -1.441  0.00  0.00    +0.101 C 
ATOM     34  N   UNL     1       4.009   2.923  -1.943  0.00  0.00    -0.191 NA
ENDBRANCH  32  33
ENDBRANCH  25  27
ENDBRANCH  22  23
ENDBRANCH  20  22
ENDBRANCH   1  20
TORSDOF 6
