REMARK  Name = ZINC33935776
REMARK  9 active torsions:
REMARK  status: ('A' for Active; 'I' for Inactive)
REMARK    1  A    between atoms: C_1  and  C_2
REMARK    2  A    between atoms: C_4  and  C_18
REMARK    3  A    between atoms: C_5  and  C_17
REMARK    4  A    between atoms: N_6  and  C_7
REMARK    5  A    between atoms: C_9  and  O_15
REMARK    6  A    between atoms: C_12  and  O_13
REMARK    7  A    between atoms: O_13  and  C_14
REMARK    8  A    between atoms: O_15  and  C_16
REMARK    9  A    between atoms: C_28  and  C_30
REMARK                            x       y       z     vdW  Elec       q    Type
REMARK                         _______ _______ _______ _____ _____    ______ ____
ROOT
ATOM      1  C   UNL     1       0.908   1.559  -0.546  0.00  0.00    +0.064 C 
ATOM      2  C   UNL     1       0.651   0.083  -0.384  0.00  0.00    +0.022 A 
ATOM      3  C   UNL     1       0.488  -0.794  -1.389  0.00  0.00    +0.031 A 
ATOM      4  C   UNL     1       0.265  -2.106  -0.765  0.00  0.00    -0.003 A 
ATOM      5  C   UNL     1       0.316  -1.888   0.602  0.00  0.00    +0.028 A 
ATOM      6  N   UNL     1       0.552  -0.578   0.809  0.00  0.00    -0.314 N 
ATOM      7  C   UNL     1       0.144  -2.936   1.672  0.00  0.00    +0.064 C 
ENDROOT
BRANCH   4   8
ATOM      8  C   UNL     1       0.042  -3.340  -1.427  0.00  0.00    +0.026 C 
ATOM      9  C   UNL     1      -0.649  -3.368  -2.621  0.00  0.00    +0.081 C 
ATOM     10  C   UNL     1      -0.759  -4.611  -3.434  0.00  0.00    +0.153 C 
ATOM     11  N   UNL     1      -0.812  -5.808  -2.912  0.00  0.00    -0.283 NA
ATOM     12  N   UNL     1      -0.800  -4.369  -4.824  0.00  0.00    -0.152 N 
ATOM     13  C   UNL     1      -1.226  -3.126  -5.241  0.00  0.00    +0.181 C 
ATOM     14  N   UNL     1      -1.514  -2.089  -4.495  0.00  0.00    -0.152 NA
ATOM     15  C   UNL     1      -1.326  -2.165  -3.159  0.00  0.00    +0.273 C 
ATOM     16  O   UNL     1      -1.698  -1.269  -2.418  0.00  0.00    -0.268 OA
ATOM     17  S   UNL     1      -1.250  -3.314  -7.004  0.00  0.00    -0.029 S 
ATOM     18  C   UNL     1      -0.603  -4.979  -7.071  0.00  0.00    +0.202 C 
ATOM     19  N   UNL     1      -0.463  -5.271  -5.810  0.00  0.00    -0.160 NA
ATOM     20  H   UNL     1      -0.883  -6.585  -3.488  0.00  0.00    +0.188 HD
BRANCH  18  21
ATOM     21  C   UNL     1      -0.298  -5.827  -8.278  0.00  0.00    +0.442 C 
ATOM     22  F   UNL     1       0.194  -7.069  -7.863  0.00  0.00    -0.164 F 
ATOM     23  F   UNL     1      -1.466  -6.014  -9.024  0.00  0.00    -0.164 F 
ATOM     24  F   UNL     1       0.662  -5.186  -9.069  0.00  0.00    -0.164 F 
ENDBRANCH  18  21
ENDBRANCH   4   8
BRANCH   6  25
ATOM     25  C   UNL     1       0.676   0.024   2.070  0.00  0.00    +0.092 A 
ATOM     26  C   UNL     1      -0.446   0.524   2.714  0.00  0.00    +0.075 A 
ATOM     27  C   UNL     1      -0.320   1.119   3.960  0.00  0.00    +0.122 A 
ATOM     28  C   UNL     1       0.926   1.214   4.562  0.00  0.00    +0.049 A 
ATOM     29  C   UNL     1       2.045   0.717   3.922  0.00  0.00    +0.051 A 
ATOM     30  C   UNL     1       1.925   0.116   2.679  0.00  0.00    +0.144 A 
BRANCH  30  31
ATOM     31  O   UNL     1       3.026  -0.378   2.053  0.00  0.00    -0.493 OA
ATOM     32  C   UNL     1       4.275  -0.250   2.737  0.00  0.00    +0.277 C 
ENDBRANCH  30  31
BRANCH  27  33
ATOM     33  O   UNL     1      -1.419   1.609   4.592  0.00  0.00    -0.495 OA
ATOM     34  C   UNL     1      -1.217   2.209   5.873  0.00  0.00    +0.277 C 
ENDBRANCH  27  33
ENDBRANCH   6  25
TORSDOF 5
