REMARK  Name = ZINC04236892
REMARK  10 active torsions:
REMARK  status: ('A' for Active; 'I' for Inactive)
REMARK    1  A    between atoms: C_1  and  C_2
REMARK    2  A    between atoms: N_4  and  C_5
REMARK    3  A    between atoms: C_11  and  C_13
REMARK    4  A    between atoms: C_13  and  C_14
REMARK    5  A    between atoms: C_16  and  O_43
REMARK    6  A    between atoms: C_22  and  C_42
REMARK    7  A    between atoms: C_27  and  C_41
REMARK    8  A    between atoms: C_30  and  C_33
REMARK    9  A    between atoms: C_33  and  O_34
REMARK   10  A    between atoms: O_34  and  C_35
REMARK                            x       y       z     vdW  Elec       q    Type
REMARK                         _______ _______ _______ _____ _____    ______ ____
ROOT
ATOM      1  C   UNL     1       7.161   1.950  -0.332  0.00  0.00    +0.032 C 
ATOM      2  C   UNL     1       7.138   0.431  -0.239  0.00  0.00    +0.119 C 
ATOM      3  C   UNL     1       8.393  -0.218  -0.802  0.00  0.00    +0.032 C 
ATOM      4  C   UNL     1       9.662   0.407  -0.220  0.00  0.00    +0.007 C 
ATOM      5  C   UNL     1       9.634   1.909  -0.494  0.00  0.00    +0.006 C 
ATOM      6  C   UNL     1       8.459   2.548   0.232  0.00  0.00    -0.023 C 
ATOM      7  C   UNL     1       8.449   4.060  -0.015  0.00  0.00    +0.010 C 
ATOM      8  C   UNL     1       9.787   4.670   0.407  0.00  0.00    +0.033 C 
ATOM      9  C   UNL     1      10.901   4.079  -0.452  0.00  0.00    +0.130 C 
ATOM     10  C   UNL     1      10.978   2.563  -0.254  0.00  0.00    +0.021 C 
ATOM     11  C   UNL     1      11.572   2.243   1.115  0.00  0.00    +0.172 C 
ATOM     12  O   UNL     1      12.847   2.905   1.208  0.00  0.00    -0.347 OA
ATOM     13  C   UNL     1      12.716   4.329   1.128  0.00  0.00    +0.288 C 
ATOM     14  O   UNL     1      12.149   4.686  -0.130  0.00  0.00    -0.344 OA
ATOM     15  C   UNL     1      11.965   2.032  -1.321  0.00  0.00    +0.016 C 
ATOM     16  C   UNL     1       8.489   2.296   1.739  0.00  0.00    +0.012 C 
ENDROOT
BRANCH   2  17
ATOM     17  O   UNL     1       6.909  -0.005   1.101  0.00  0.00    -0.391 OA
ATOM     18  H   UNL     1       6.887  -0.966   1.203  0.00  0.00    +0.210 HD
ENDBRANCH   2  17
BRANCH   1  19
ATOM     19  C   UNL     1       5.965   2.511   0.447  0.00  0.00    +0.102 C 
BRANCH  19  25
ATOM     20  C   UNL     1       1.228   3.231   0.253  0.00  0.00    +0.092 C 
ATOM     21  C   UNL     1       1.788   3.486   1.677  0.00  0.00    +0.043 C 
ATOM     22  C   UNL     1       3.308   3.290   1.492  0.00  0.00    +0.109 C 
ATOM     23  N   UNL     1       3.497   2.462   0.291  0.00  0.00    -0.300 N 
ATOM     24  C   UNL     1       2.174   2.116  -0.258  0.00  0.00    +0.130 C 
ATOM     25  C   UNL     1       4.685   2.083  -0.222  0.00  0.00    +0.216 C 
ATOM     26  O   UNL     1       4.722   1.397  -1.221  0.00  0.00    -0.276 OA
BRANCH  20  30
ATOM     27  C   UNL     1      -2.596   3.162   0.407  0.00  0.00    +0.109 C 
ATOM     28  C   UNL     1      -1.171   3.647   0.354  0.00  0.00    +0.210 C 
ATOM     29  O   UNL     1      -0.935   4.837   0.352  0.00  0.00    -0.276 OA
ATOM     30  N   UNL     1      -0.158   2.760   0.310  0.00  0.00    -0.311 N 
ATOM     31  H   UNL     1      -0.346   1.808   0.312  0.00  0.00    +0.149 HD
ENDBRANCH  20  30
ENDBRANCH  19  25
ENDBRANCH   1  19
BRANCH  13  32
ATOM     32  C   UNL     1      14.098   4.971   1.270  0.00  0.00    +0.290 C 
BRANCH  32  33
ATOM     33  O   UNL     1      14.948   4.509   0.219  0.00  0.00    -0.487 OA
BRANCH  33  34
ATOM     34  C   UNL     1      16.220   4.986   0.200  0.00  0.00    +0.121 A 
ATOM     35  C   UNL     1      16.640   5.885   1.169  0.00  0.00    +0.045 A 
ATOM     36  C   UNL     1      17.936   6.364   1.151  0.00  0.00    +0.004 A 
ATOM     37  C   UNL     1      18.810   5.957   0.160  0.00  0.00    +0.000 A 
ATOM     38  C   UNL     1      18.393   5.066  -0.811  0.00  0.00    +0.004 A 
ATOM     39  C   UNL     1      17.100   4.579  -0.793  0.00  0.00    +0.045 A 
ENDBRANCH  33  34
ENDBRANCH  32  33
ENDBRANCH  13  32
TORSDOF 7
