REMARK  Name = ZINC38704695
REMARK  11 active torsions:
REMARK  status: ('A' for Active; 'I' for Inactive)
REMARK    1  A    between atoms: C_1  and  C_2
REMARK    2  A    between atoms: C_2  and  C_3
REMARK    3  A    between atoms: C_3  and  C_4
REMARK    4  A    between atoms: C_4  and  C_5
REMARK    5  A    between atoms: C_5  and  N_6
REMARK    6  A    between atoms: C_7  and  C_26
REMARK    7  A    between atoms: C_10  and  C_17
REMARK    8  A    between atoms: C_18  and  C_25
REMARK    9  A    between atoms: C_20  and  C_24
REMARK   10  A    between atoms: C_22  and  O_23
REMARK   11  A    between atoms: C_29  and  C_32
REMARK                            x       y       z     vdW  Elec       q    Type
REMARK                         _______ _______ _______ _____ _____    ______ ____
ROOT
ATOM      1  N   UNL     1      -2.389  -3.961  -0.256  0.00  0.00    -0.285 N 
ATOM      2  C   UNL     1      -2.351  -5.054  -1.236  0.00  0.00    +0.141 C 
ATOM      3  C   UNL     1      -2.507  -6.325  -0.448  0.00  0.00    +0.035 A 
ATOM      4  C   UNL     1      -2.586  -7.722  -0.466  0.00  0.00    +0.102 A 
ATOM      5  N   UNL     1      -2.739  -8.124   0.780  0.00  0.00    -0.173 NA
ATOM      6  N   UNL     1      -2.764  -7.121   1.583  0.00  0.00    -0.272 N 
ATOM      7  H   UNL     1      -2.866  -7.180   2.546  0.00  0.00    +0.189 HD
ATOM      8  C   UNL     1      -2.623  -5.959   0.879  0.00  0.00    +0.126 A 
ATOM      9  C   UNL     1      -2.542  -4.497   0.968  0.00  0.00    +0.265 C 
ATOM     10  O   UNL     1      -2.606  -3.859   2.002  0.00  0.00    -0.268 OA
ENDROOT
BRANCH   4  11
ATOM     11  C   UNL     1      -2.513  -8.591  -1.667  0.00  0.00    +0.047 A 
ATOM     12  C   UNL     1      -1.630  -9.667  -1.699  0.00  0.00    -0.037 A 
ATOM     13  C   UNL     1      -1.566 -10.472  -2.818  0.00  0.00    +0.007 A 
ATOM     14  C   UNL     1      -2.377 -10.214  -3.910  0.00  0.00    -0.047 A 
ATOM     15  C   UNL     1      -3.256  -9.149  -3.888  0.00  0.00    +0.049 A 
ATOM     16  C   UNL     1      -3.335  -8.336  -2.768  0.00  0.00    +0.127 A 
ATOM     17  C   UNL     1      -2.299 -11.098  -5.127  0.00  0.00    +0.044 C 
ATOM     18  C   UNL     1      -0.745  -9.951  -0.513  0.00  0.00    +0.044 C 
BRANCH  16  19
ATOM     19  O   UNL     1      -4.203  -7.291  -2.744  0.00  0.00    -0.506 OA
ATOM     20  H   UNL     1      -3.861  -6.486  -3.155  0.00  0.00    +0.292 HD
ENDBRANCH  16  19
ENDBRANCH   4  11
BRANCH   2  21
ATOM     21  C   UNL     1      -1.032  -5.052  -1.965  0.00  0.00    -0.022 A 
ATOM     22  C   UNL     1       0.151  -4.988  -1.252  0.00  0.00    +0.006 A 
ATOM     23  C   UNL     1       1.361  -4.986  -1.921  0.00  0.00    +0.004 A 
ATOM     24  C   UNL     1       1.388  -5.048  -3.301  0.00  0.00    -0.050 A 
ATOM     25  C   UNL     1       0.205  -5.113  -4.014  0.00  0.00    +0.004 A 
ATOM     26  C   UNL     1      -1.004  -5.119  -3.345  0.00  0.00    +0.006 A 
ATOM     27  C   UNL     1       2.708  -5.045  -4.030  0.00  0.00    +0.044 C 
ENDBRANCH   2  21
BRANCH   1  28
ATOM     28  C   UNL     1      -2.274  -2.532  -0.559  0.00  0.00    +0.109 C 
BRANCH  28  29
ATOM     29  C   UNL     1      -0.801  -2.120  -0.523  0.00  0.00    +0.019 C 
BRANCH  29  30
ATOM     30  C   UNL     1      -0.680  -0.628  -0.839  0.00  0.00    +0.001 C 
BRANCH  30  32
ATOM     31  C   UNL     1       0.913   1.276  -1.119  0.00  0.00    +0.004 C 
ATOM     32  C   UNL     1       0.793  -0.216  -0.803  0.00  0.00    -0.003 C 
ENDBRANCH  30  32
ENDBRANCH  29  30
ENDBRANCH  28  29
ENDBRANCH   1  28
TORSDOF 7
