REMARK  Name = ZINC20578813
REMARK  5 active torsions:
REMARK  status: ('A' for Active; 'I' for Inactive)
REMARK    1  A    between atoms: C_1  and  O_2
REMARK    2  A    between atoms: O_2  and  C_3
REMARK    3  A    between atoms: C_6  and  N_9
REMARK    4  A    between atoms: C_11  and  C_16
REMARK    5  A    between atoms: C_22  and  C_24
REMARK                            x       y       z     vdW  Elec       q    Type
REMARK                         _______ _______ _______ _____ _____    ______ ____
ROOT
ATOM      1  C   UNL     1       7.339   2.821   5.142  0.00  0.00    +0.109 A 
ATOM      2  N   UNL     1       6.195   2.169   5.074  0.00  0.00    -0.144 NA
ATOM      3  N   UNL     1       5.558   2.099   3.986  0.00  0.00    -0.126 NA
ATOM      4  C   UNL     1       6.003   2.669   2.879  0.00  0.00    +0.188 A 
ATOM      5  S   UNL     1       7.488   3.373   3.447  0.00  0.00    -0.035 S 
ATOM      6  N   UNL     1       5.439   2.695   1.607  0.00  0.00    -0.263 N 
ATOM      7  C   UNL     1       4.267   2.071   1.377  0.00  0.00    +0.231 C 
ATOM      8  O   UNL     1       3.702   1.489   2.279  0.00  0.00    -0.274 OA
ATOM      9  H   UNL     1       5.951   3.223   0.789  0.00  0.00    +0.157 HD
ENDROOT
BRANCH   7  10
ATOM     10  C   UNL     1       3.657   2.099  -0.001  0.00  0.00    +0.142 C 
ATOM     11  C   UNL     1       2.361   1.335   0.016  0.00  0.00    +0.011 A 
ATOM     12  C   UNL     1       2.389  -0.049   0.010  0.00  0.00    +0.008 A 
ATOM     13  C   UNL     1       1.210  -0.769   0.025  0.00  0.00    +0.001 A 
ATOM     14  C   UNL     1      -0.004  -0.108   0.046  0.00  0.00    +0.004 A 
ATOM     15  C   UNL     1      -0.039   1.271   0.052  0.00  0.00    +0.046 A 
ATOM     16  C   UNL     1       1.146   1.999   0.038  0.00  0.00    +0.133 A 
ATOM     17  O   UNL     1       1.090   3.352   0.045  0.00  0.00    -0.455 OA
ATOM     18  C   UNL     1       2.155   4.080  -0.368  0.00  0.00    +0.133 A 
ATOM     19  C   UNL     1       3.424   3.527  -0.412  0.00  0.00    +0.011 A 
ATOM     20  C   UNL     1       4.495   4.293  -0.838  0.00  0.00    +0.008 A 
ATOM     21  C   UNL     1       4.303   5.607  -1.219  0.00  0.00    +0.001 A 
ATOM     22  C   UNL     1       3.038   6.162  -1.176  0.00  0.00    +0.004 A 
ATOM     23  C   UNL     1       1.965   5.403  -0.752  0.00  0.00    +0.046 A 
ENDBRANCH   7  10
BRANCH   1  26
ATOM     24  N   UNL     1       8.076   3.109   8.704  0.00  0.00    -0.271 N 
ATOM     25  C   UNL     1       7.519   3.711   7.487  0.00  0.00    +0.124 C 
ATOM     26  C   UNL     1       8.262   3.034   6.314  0.00  0.00    +0.073 C 
ATOM     27  C   UNL     1       8.680   1.684   6.942  0.00  0.00    +0.108 C 
ATOM     28  C   UNL     1       8.728   1.966   8.428  0.00  0.00    +0.220 C 
ATOM     29  O   UNL     1       9.276   1.263   9.251  0.00  0.00    -0.275 OA
BRANCH  24  33
ATOM     30  C   UNL     1       7.687   4.734  12.524  0.00  0.00    +0.120 A 
ATOM     31  C   UNL     1       7.228   5.438  11.421  0.00  0.00    +0.047 A 
ATOM     32  C   UNL     1       7.356   4.901  10.155  0.00  0.00    +0.027 A 
ATOM     33  C   UNL     1       7.946   3.655   9.987  0.00  0.00    +0.036 A 
ATOM     34  C   UNL     1       8.400   2.948  11.092  0.00  0.00    +0.027 A 
ATOM     35  C   UNL     1       8.276   3.489  12.357  0.00  0.00    +0.047 A 
BRANCH  30  37
ATOM     36  C   UNL     1       8.054   4.483  14.860  0.00  0.00    +0.277 C 
ATOM     37  O   UNL     1       7.560   5.263  13.770  0.00  0.00    -0.495 OA
ENDBRANCH  30  37
ENDBRANCH  24  33
ENDBRANCH   1  26
TORSDOF 4
