REMARK  Name = ZINC03234418
REMARK  10 active torsions:
REMARK  status: ('A' for Active; 'I' for Inactive)
REMARK    1  A    between atoms: C_1  and  C_2
REMARK    2  A    between atoms: C_4  and  C_29
REMARK    3  A    between atoms: C_6  and  S_8
REMARK    4  A    between atoms: S_8  and  C_9
REMARK    5  A    between atoms: C_9  and  C_10
REMARK    6  A    between atoms: C_13  and  C_16
REMARK    7  A    between atoms: N_18  and  N_19
REMARK    8  A    between atoms: C_20  and  C_21
REMARK    9  A    between atoms: C_25  and  O_28
REMARK   10  A    between atoms: C_26  and  O_27
REMARK                            x       y       z     vdW  Elec       q    Type
REMARK                         _______ _______ _______ _____ _____    ______ ____
ROOT
ATOM      1  C   UNL     1       0.056  -2.148   5.299  0.00  0.00    -0.037 A 
ATOM      2  C   UNL     1      -1.137  -2.447   5.933  0.00  0.00    +0.005 A 
ATOM      3  C   UNL     1      -1.131  -3.002   7.196  0.00  0.00    +0.013 A 
ATOM      4  C   UNL     1       0.083  -3.263   7.834  0.00  0.00    +0.038 A 
ATOM      5  C   UNL     1       1.283  -2.960   7.189  0.00  0.00    +0.013 A 
ATOM      6  C   UNL     1       1.262  -2.409   5.924  0.00  0.00    +0.005 A 
ENDROOT
BRANCH   4   7
ATOM      7  C   UNL     1       0.097  -3.857   9.187  0.00  0.00    +0.263 C 
ATOM      8  O   UNL     1      -0.950  -4.120   9.747  0.00  0.00    -0.268 OA
ATOM      9  N   UNL     1       1.270  -4.108   9.801  0.00  0.00    -0.203 N 
ATOM     10  H   UNL     1       2.106  -3.898   9.354  0.00  0.00    +0.178 HD
BRANCH   9  11
ATOM     11  N   UNL     1       1.284  -4.671  11.083  0.00  0.00    -0.187 NA
ATOM     12  C   UNL     1       2.414  -4.912  11.674  0.00  0.00    +0.142 C 
BRANCH  12  13
ATOM     13  C   UNL     1       2.429  -5.505  13.024  0.00  0.00    +0.040 A 
ATOM     14  C   UNL     1       3.644  -5.761  13.665  0.00  0.00    +0.013 A 
ATOM     15  C   UNL     1       3.653  -6.315  14.928  0.00  0.00    +0.004 A 
ATOM     16  C   UNL     1       2.463  -6.620  15.566  0.00  0.00    +0.049 A 
ATOM     17  C   UNL     1       1.251  -6.372  14.941  0.00  0.00    +0.159 A 
ATOM     18  C   UNL     1       1.226  -5.809  13.671  0.00  0.00    +0.167 A 
BRANCH  18  19
ATOM     19  O   UNL     1       0.038  -5.559  13.059  0.00  0.00    -0.503 OA
ATOM     20  H   UNL     1      -0.292  -6.295  12.526  0.00  0.00    +0.292 HD
ENDBRANCH  18  19
BRANCH  17  21
ATOM     21  O   UNL     1       0.086  -6.675  15.574  0.00  0.00    -0.503 OA
ATOM     22  H   UNL     1      -0.269  -5.954  16.112  0.00  0.00    +0.292 HD
ENDBRANCH  17  21
ENDBRANCH  12  13
ENDBRANCH   9  11
ENDBRANCH   4   7
BRANCH   1  23
ATOM     23  C   UNL     1       0.041  -1.542   3.919  0.00  0.00    +0.112 C 
BRANCH  23  24
ATOM     24  S   UNL     1       0.053  -2.864   2.678  0.00  0.00    -0.081 S 
BRANCH  24  30
ATOM     25  C   UNL     1      -0.018   1.503   0.010  0.00  0.00    +0.066 C 
ATOM     26  C   UNL     1       0.002  -0.004   0.002  0.00  0.00    +0.043 A 
ATOM     27  C   UNL     1       0.006  -0.699  -1.198  0.00  0.00    +0.046 A 
ATOM     28  C   UNL     1       0.025  -2.084  -1.161  0.00  0.00    +0.043 A 
ATOM     29  N   UNL     1       0.039  -2.699   0.010  0.00  0.00    -0.227 NA
ATOM     30  C   UNL     1       0.035  -2.005   1.140  0.00  0.00    +0.189 A 
ATOM     31  N   UNL     1       0.022  -0.679   1.139  0.00  0.00    -0.227 NA
ATOM     32  C   UNL     1       0.029  -2.881  -2.440  0.00  0.00    +0.066 C 
ENDBRANCH  24  30
ENDBRANCH  23  24
ENDBRANCH   1  23
TORSDOF 8
