REMARK  Name = ZINC65517252
REMARK  8 active torsions:
REMARK  status: ('A' for Active; 'I' for Inactive)
REMARK    1  A    between atoms: C_1  and  N_2
REMARK    2  A    between atoms: N_2  and  C_3
REMARK    3  A    between atoms: C_3  and  C_4
REMARK    4  A    between atoms: C_7  and  O_10
REMARK    5  A    between atoms: N_13  and  C_14
REMARK    6  A    between atoms: C_14  and  C_15
REMARK    7  A    between atoms: N_20  and  C_21
REMARK    8  A    between atoms: C_21  and  C_22
REMARK                            x       y       z     vdW  Elec       q    Type
REMARK                         _______ _______ _______ _____ _____    ______ ____
ROOT
ATOM      1  C   UNL     1       4.040  -2.531  -3.867  0.00  0.00    +0.134 C 
ATOM      2  N   UNL     1       3.121  -2.907  -2.790  0.00  0.00    -0.284 N 
ATOM      3  C   UNL     1       1.899  -2.342  -2.719  0.00  0.00    +0.302 C 
ATOM      4  O   UNL     1       1.136  -2.654  -1.826  0.00  0.00    -0.253 OA
ATOM      5  N   UNL     1       1.524  -1.431  -3.639  0.00  0.00    -0.301 N 
ATOM      6  H   UNL     1       2.133  -1.182  -4.352  0.00  0.00    +0.150 HD
ENDROOT
BRANCH   2   7
ATOM      7  C   UNL     1       3.529  -3.897  -1.791  0.00  0.00    +0.144 C 
BRANCH   7   8
ATOM      8  C   UNL     1       4.197  -3.198  -0.635  0.00  0.00    -0.030 A 
ATOM      9  C   UNL     1       5.563  -2.986  -0.653  0.00  0.00    +0.009 A 
ATOM     10  C   UNL     1       6.177  -2.346   0.406  0.00  0.00    +0.046 A 
ATOM     11  C   UNL     1       5.423  -1.916   1.488  0.00  0.00    +0.117 A 
ATOM     12  C   UNL     1       4.052  -2.130   1.503  0.00  0.00    +0.046 A 
ATOM     13  C   UNL     1       3.441  -2.766   0.440  0.00  0.00    +0.009 A 
BRANCH  11  14
ATOM     14  O   UNL     1       6.025  -1.286   2.531  0.00  0.00    -0.507 OA
ATOM     15  H   UNL     1       6.073  -0.325   2.435  0.00  0.00    +0.292 HD
ENDBRANCH  11  14
ENDBRANCH   7   8
ENDBRANCH   2   7
BRANCH   5  16
ATOM     16  C   UNL     1       0.196  -0.817  -3.562  0.00  0.00    +0.090 C 
BRANCH  16  17
ATOM     17  C   UNL     1       0.071   0.265  -4.637  0.00  0.00    -0.051 C 
ATOM     18  C   UNL     1       0.128  -0.384  -6.021  0.00  0.00    -0.014 C 
ATOM     19  C   UNL     1       0.002   0.702  -7.094  0.00  0.00    -0.003 C 
ATOM     20  C   UNL     1       1.113   1.736  -6.892  0.00  0.00    -0.019 C 
ATOM     21  C   UNL     1       1.021   2.306  -5.475  0.00  0.00    -0.078 C 
ATOM     22  N   UNL     1       1.174   1.223  -4.496  0.00  0.00    +0.385 N 
ATOM     23  H   UNL     1       2.051   0.750  -4.654  0.00  0.00    -0.081 HD
BRANCH  22  24
ATOM     24  C   UNL     1       1.162   1.786  -3.139  0.00  0.00    -0.043 C 
BRANCH  24  25
ATOM     25  C   UNL     1       2.374   2.662  -2.948  0.00  0.00    -0.064 A 
ATOM     26  C   UNL     1       3.551   2.118  -2.469  0.00  0.00    +0.002 A 
ATOM     27  C   UNL     1       4.662   2.921  -2.294  0.00  0.00    +0.000 A 
ATOM     28  C   UNL     1       4.596   4.268  -2.598  0.00  0.00    +0.000 A 
ATOM     29  C   UNL     1       3.419   4.812  -3.078  0.00  0.00    +0.000 A 
ATOM     30  C   UNL     1       2.309   4.007  -3.257  0.00  0.00    +0.002 A 
ENDBRANCH  24  25
ENDBRANCH  22  24
ENDBRANCH  16  17
ENDBRANCH   5  16
TORSDOF 7
