REMARK  Name = ZINC43466933
REMARK  5 active torsions:
REMARK  status: ('A' for Active; 'I' for Inactive)
REMARK    1  A    between atoms: C_3  and  C_6
REMARK    2  A    between atoms: C_6  and  C_8
REMARK    3  A    between atoms: C_6  and  N_23
REMARK    4  A    between atoms: C_8  and  N_9
REMARK    5  A    between atoms: N_12  and  C_13
REMARK                            x       y       z     vdW  Elec       q    Type
REMARK                         _______ _______ _______ _____ _____    ______ ____
ROOT
ATOM      1  N   UNL     1       5.594   0.291   1.331  0.00  0.00    -0.301 N 
ATOM      2  C   UNL     1       6.282   0.092   2.472  0.00  0.00    +0.300 C 
ATOM      3  O   UNL     1       5.708   0.136   3.543  0.00  0.00    -0.253 OA
ATOM      4  N   UNL     1       7.606  -0.156   2.427  0.00  0.00    -0.294 N 
ATOM      5  H   UNL     1       6.051   0.256   0.476  0.00  0.00    +0.150 HD
ATOM      6  H   UNL     1       8.064  -0.191   1.572  0.00  0.00    +0.151 HD
ENDROOT
BRANCH   4   7
ATOM      7  C   UNL     1       8.354  -0.372   3.668  0.00  0.00    +0.037 C 
ATOM      8  C   UNL     1       7.777  -1.581   4.407  0.00  0.00    +0.029 C 
ATOM      9  C   UNL     1       8.558  -1.807   5.703  0.00  0.00    -0.008 C 
ATOM     10  C   UNL     1      10.029  -2.065   5.373  0.00  0.00    +0.007 C 
ATOM     11  C   UNL     1      10.606  -0.856   4.634  0.00  0.00    -0.008 C 
ATOM     12  C   UNL     1       9.825  -0.630   3.338  0.00  0.00    +0.029 C 
ATOM     13  C   UNL     1      10.493   0.385   5.521  0.00  0.00    +0.007 C 
ATOM     14  C   UNL     1       9.021   0.643   5.851  0.00  0.00    -0.008 C 
ATOM     15  C   UNL     1       8.444  -0.566   6.590  0.00  0.00    +0.007 C 
ATOM     16  C   UNL     1       8.240   0.869   4.555  0.00  0.00    +0.029 C 
ENDBRANCH   4   7
BRANCH   1  17
ATOM     17  C   UNL     1       4.154   0.560   1.380  0.00  0.00    +0.098 C 
BRANCH  17  18
ATOM     18  C   UNL     1       3.646   0.875  -0.028  0.00  0.00    +0.016 C 
BRANCH  18  19
ATOM     19  N   UNL     1       2.184   1.017  -0.000  0.00  0.00    +0.387 N 
ATOM     20  C   UNL     1       1.673   1.319  -1.361  0.00  0.00    -0.078 C 
ATOM     21  C   UNL     1       0.187   0.885  -1.287  0.00  0.00    -0.020 C 
ATOM     22  C   UNL     1       0.242  -0.383  -0.404  0.00  0.00    -0.020 C 
ATOM     23  C   UNL     1       1.554  -0.263   0.392  0.00  0.00    -0.078 C 
ATOM     24  H   UNL     1       1.917   1.748   0.643  0.00  0.00    -0.081 HD
ENDBRANCH  18  19
BRANCH  18  27
ATOM     25  C   UNL     1       5.561   3.642  -1.529  0.00  0.00    +0.041 A 
ATOM     26  C   UNL     1       5.316   2.262  -1.346  0.00  0.00    +0.043 A 
ATOM     27  C   UNL     1       4.267   2.160  -0.511  0.00  0.00    +0.093 A 
ATOM     28  O   UNL     1       3.866   3.399  -0.180  0.00  0.00    -0.469 OA
ATOM     29  C   UNL     1       4.647   4.301  -0.795  0.00  0.00    +0.195 A 
ENDBRANCH  18  27
ENDBRANCH  17  18
ENDBRANCH   1  17
TORSDOF 5
