REMARK  Name = ZINC58143548
REMARK  4 active torsions:
REMARK  status: ('A' for Active; 'I' for Inactive)
REMARK    1  A    between atoms: C_2  and  N_9
REMARK    2  A    between atoms: C_10  and  C_12
REMARK    3  A    between atoms: C_18  and  C_20
REMARK    4  A    between atoms: C_23  and  N_26
REMARK                            x       y       z     vdW  Elec       q    Type
REMARK                         _______ _______ _______ _____ _____    ______ ____
ROOT
ATOM      1  C   UNL     1       2.488   5.218   0.413  0.00  0.00    +0.162 C 
ATOM      2  C   UNL     1       1.820   5.435   1.787  0.00  0.00    +0.033 C 
ATOM      3  C   UNL     1       3.013   5.842   2.692  0.00  0.00    +0.021 C 
ATOM      4  C   UNL     1       3.882   6.666   1.710  0.00  0.00    +0.108 C 
ATOM      5  N   UNL     1       3.749   5.974   0.412  0.00  0.00    -0.290 N 
ATOM      6  C   UNL     1       4.634   6.024  -0.603  0.00  0.00    +0.219 C 
ATOM      7  O   UNL     1       5.686   6.612  -0.462  0.00  0.00    -0.275 OA
ENDROOT
BRANCH   6   8
ATOM      8  C   UNL     1       4.317   5.351  -1.913  0.00  0.00    +0.075 C 
ATOM      9  C   UNL     1       3.152   6.075  -2.591  0.00  0.00    +0.014 C 
ATOM     10  C   UNL     1       2.831   5.391  -3.921  0.00  0.00    +0.023 C 
ATOM     11  C   UNL     1       4.060   5.441  -4.830  0.00  0.00    +0.074 C 
ATOM     12  C   UNL     1       5.225   4.716  -4.153  0.00  0.00    +0.023 C 
ATOM     13  C   UNL     1       5.547   5.400  -2.822  0.00  0.00    +0.014 C 
BRANCH  11  14
ATOM     14  N   UNL     1       3.752   4.785  -6.104  0.00  0.00    -0.297 N 
ATOM     15  C   UNL     1       4.437   5.118  -7.216  0.00  0.00    +0.297 C 
ATOM     16  O   UNL     1       5.311   5.962  -7.162  0.00  0.00    -0.253 OA
ATOM     17  N   UNL     1       4.154   4.516  -8.388  0.00  0.00    -0.313 N 
ATOM     18  H   UNL     1       3.055   4.112  -6.147  0.00  0.00    +0.151 HD
ATOM     19  H   UNL     1       3.457   3.843  -8.431  0.00  0.00    +0.146 HD
ATOM     20  H   UNL     1       4.647   4.755  -9.188  0.00  0.00    +0.146 HD
ENDBRANCH  11  14
ENDBRANCH   6   8
BRANCH   1  22
ATOM     21  N   UNL     1       1.752   2.868   0.178  0.00  0.00    -0.284 N 
ATOM     22  C   UNL     1       2.769   3.752   0.206  0.00  0.00    +0.238 C 
ATOM     23  O   UNL     1       3.911   3.368   0.064  0.00  0.00    -0.273 OA
ATOM     24  H   UNL     1       0.836   3.182   0.220  0.00  0.00    +0.155 HD
BRANCH  21  26
ATOM     25  C   UNL     1       3.155   0.970   0.688  0.00  0.00    +0.043 A 
ATOM     26  C   UNL     1       2.019   1.497   0.089  0.00  0.00    +0.036 A 
ATOM     27  C   UNL     1       1.148   0.662  -0.598  0.00  0.00    +0.043 A 
ATOM     28  C   UNL     1       1.414  -0.692  -0.684  0.00  0.00    +0.044 A 
ATOM     29  C   UNL     1       2.546  -1.215  -0.086  0.00  0.00    +0.040 A 
ATOM     30  C   UNL     1       3.417  -0.385   0.599  0.00  0.00    +0.044 A 
ATOM     31 CL   UNL     1       4.837  -1.046   1.347  0.00  0.00    -0.083 Cl
ATOM     32 CL   UNL     1       0.325  -1.736  -1.543  0.00  0.00    -0.083 Cl
ENDBRANCH  21  26
ENDBRANCH   1  22
TORSDOF 4
