REMARK  Name = ZINC21856102
REMARK  6 active torsions:
REMARK  status: ('A' for Active; 'I' for Inactive)
REMARK    1  A    between atoms: C_1  and  C_2
REMARK    2  A    between atoms: C_2  and  C_27
REMARK    3  A    between atoms: C_7  and  O_25
REMARK    4  A    between atoms: N_15  and  C_16
REMARK    5  A    between atoms: O_25  and  C_26
REMARK    6  A    between atoms: N_29  and  C_30
REMARK                            x       y       z     vdW  Elec       q    Type
REMARK                         _______ _______ _______ _____ _____    ______ ____
ROOT
ATOM      1  C   UNL     1       3.904   4.434   1.169  0.00  0.00    +0.044 C 
ATOM      2  C   UNL     1       3.215   3.072   1.066  0.00  0.00    +0.133 C 
ATOM      3  C   UNL     1       1.886   3.245   0.331  0.00  0.00    +0.158 C 
ATOM      4  N   UNL     1       1.357   1.924  -0.023  0.00  0.00    -0.334 N 
ATOM      5  C   UNL     1       0.063   1.515  -0.180  0.00  0.00    +0.053 A 
ATOM      6  C   UNL     1      -1.166   2.155  -0.052  0.00  0.00    +0.072 A 
ATOM      7  C   UNL     1      -2.334   1.455  -0.286  0.00  0.00    +0.122 A 
ATOM      8  C   UNL     1      -2.294   0.112  -0.660  0.00  0.00    +0.046 A 
ATOM      9  C   UNL     1      -1.101  -0.532  -0.794  0.00  0.00    +0.013 A 
ATOM     10  C   UNL     1       0.097   0.154  -0.554  0.00  0.00    +0.001 A 
ATOM     11  C   UNL     1       1.461  -0.233  -0.602  0.00  0.00    +0.041 A 
ATOM     12  C   UNL     1       2.201   0.841  -0.273  0.00  0.00    +0.106 A 
ATOM     13  C   UNL     1       3.663   0.995  -0.172  0.00  0.00    +0.268 C 
ATOM     14  O   UNL     1       4.427   0.136  -0.571  0.00  0.00    -0.268 OA
ATOM     15  N   UNL     1       4.111   2.143   0.389  0.00  0.00    -0.250 N 
ENDROOT
BRANCH  15  16
ATOM     16  C   UNL     1       5.476   2.446   0.318  0.00  0.00    +0.041 A 
ATOM     17  C   UNL     1       5.923   3.440  -0.543  0.00  0.00    +0.027 A 
ATOM     18  C   UNL     1       7.269   3.740  -0.614  0.00  0.00    +0.051 A 
ATOM     19  C   UNL     1       8.178   3.051   0.174  0.00  0.00    +0.166 A 
ATOM     20  C   UNL     1       7.733   2.054   1.038  0.00  0.00    +0.168 A 
ATOM     21  C   UNL     1       6.383   1.756   1.112  0.00  0.00    +0.073 A 
ATOM     22  O   UNL     1       8.811   1.533   1.694  0.00  0.00    -0.453 OA
ATOM     23  C   UNL     1       9.960   1.936   0.927  0.00  0.00    +0.466 C 
ATOM     24  O   UNL     1       9.535   3.155   0.289  0.00  0.00    -0.453 OA
ENDBRANCH  15  16
BRANCH   2  25
ATOM     25  C   UNL     1       2.939   2.559   2.456  0.00  0.00    +0.239 C 
ATOM     26  O   UNL     1       1.867   2.773   2.980  0.00  0.00    -0.273 OA
ATOM     27  N   UNL     1       3.885   1.863   3.117  0.00  0.00    -0.311 N 
ATOM     28  H   UNL     1       4.858   1.669   2.642  0.00  0.00    +0.149 HD
BRANCH  27  29
ATOM     29  C   UNL     1       3.617   1.364   4.468  0.00  0.00    +0.073 C 
ATOM     30  C   UNL     1       3.923   2.463   5.487  0.00  0.00    +0.022 C 
ATOM     31  C   UNL     1       3.643   1.943   6.899  0.00  0.00    +0.002 C 
ATOM     32  C   UNL     1       4.529   0.727   7.178  0.00  0.00    +0.000 C 
ATOM     33  C   UNL     1       4.224  -0.372   6.159  0.00  0.00    +0.002 C 
ATOM     34  C   UNL     1       4.503   0.148   4.748  0.00  0.00    +0.022 C 
ENDBRANCH  27  29
ENDBRANCH   2  25
BRANCH   7  35
ATOM     35  O   UNL     1      -3.532   2.082  -0.154  0.00  0.00    -0.495 OA
ATOM     36  C   UNL     1      -4.703   1.305  -0.414  0.00  0.00    +0.277 C 
ENDBRANCH   7  35
TORSDOF 4
