REMARK  Name = ZINC39455064
REMARK  13 active torsions:
REMARK  status: ('A' for Active; 'I' for Inactive)
REMARK    1  A    between atoms: C_1  and  O_2
REMARK    2  A    between atoms: O_2  and  C_3
REMARK    3  A    between atoms: C_3  and  C_5
REMARK    4  A    between atoms: N_8  and  C_11
REMARK    5  A    between atoms: C_11  and  C_12
REMARK    6  A    between atoms: C_12  and  C_14
REMARK    7  A    between atoms: C_12  and  O_34
REMARK    8  A    between atoms: C_14  and  O_15
REMARK    9  A    between atoms: O_15  and  C_16
REMARK   10  A    between atoms: C_19  and  C_22
REMARK   11  A    between atoms: C_22  and  N_23
REMARK   12  A    between atoms: N_23  and  C_24
REMARK   13  A    between atoms: C_24  and  C_25
REMARK                            x       y       z     vdW  Elec       q    Type
REMARK                         _______ _______ _______ _____ _____    ______ ____
ROOT
ATOM      1  C   UNL     1       1.619  -9.569   5.606  0.00  0.00    +0.121 A 
ATOM      2  C   UNL     1       1.233 -10.516   4.669  0.00  0.00    +0.046 A 
ATOM      3  C   UNL     1       1.403 -11.861   4.937  0.00  0.00    +0.005 A 
ATOM      4  C   UNL     1       1.956 -12.263   6.139  0.00  0.00    -0.064 A 
ATOM      5  C   UNL     1       2.341 -11.321   7.075  0.00  0.00    +0.005 A 
ATOM      6  C   UNL     1       2.180  -9.975   6.808  0.00  0.00    +0.046 A 
ENDROOT
BRANCH   1   7
ATOM      7  O   UNL     1       1.454  -8.246   5.344  0.00  0.00    -0.489 OA
BRANCH   7   8
ATOM      8  C   UNL     1       0.871  -7.901   4.086  0.00  0.00    +0.258 C 
BRANCH   8   9
ATOM      9  C   UNL     1       0.766  -6.379   3.972  0.00  0.00    +0.135 C 
BRANCH   9  10
ATOM     10  O   UNL     1       2.078  -5.812   3.948  0.00  0.00    -0.390 OA
ATOM     11  H   UNL     1       2.625  -6.116   3.211  0.00  0.00    +0.210 HD
ENDBRANCH   9  10
BRANCH   9  12
ATOM     12  C   UNL     1       0.030  -6.014   2.681  0.00  0.00    -0.044 C 
BRANCH  12  16
ATOM     13  C   UNL     1      -1.547  -2.081   2.233  0.00  0.00    +0.094 C 
ATOM     14  C   UNL     1      -0.988  -2.518   3.590  0.00  0.00    -0.004 C 
ATOM     15  C   UNL     1      -0.940  -4.046   3.648  0.00  0.00    -0.078 C 
ATOM     16  N   UNL     1      -0.076  -4.553   2.575  0.00  0.00    +0.381 N 
ATOM     17  C   UNL     1      -0.644  -4.199   1.268  0.00  0.00    -0.078 C 
ATOM     18  C   UNL     1      -0.681  -2.676   1.120  0.00  0.00    -0.004 C 
ATOM     19  H   UNL     1       0.843  -4.144   2.662  0.00  0.00    -0.082 HD
BRANCH  13  20
ATOM     20  C   UNL     1      -1.524  -0.577   2.140  0.00  0.00    +0.310 C 
ATOM     21  O   UNL     1      -0.882  -0.035   1.272  0.00  0.00    -0.251 OA
BRANCH  20  23
ATOM     22  C   UNL     1      -2.151   1.581   2.873  0.00  0.00    +0.280 C 
ATOM     23  O   UNL     1      -2.218   0.161   3.021  0.00  0.00    -0.468 OA
ENDBRANCH  20  23
ENDBRANCH  13  20
ENDBRANCH  12  16
ENDBRANCH   9  12
ENDBRANCH   8   9
ENDBRANCH   7   8
ENDBRANCH   1   7
BRANCH   4  24
ATOM     24  C   UNL     1       2.139 -13.730   6.429  0.00  0.00    -0.047 C 
BRANCH  24  25
ATOM     25  N   UNL     1       3.461 -14.162   5.957  0.00  0.00    +0.383 N 
ATOM     26  H   UNL     1       3.531 -14.004   4.963  0.00  0.00    -0.085 HD
ATOM     27  H   UNL     1       4.177 -13.633   6.433  0.00  0.00    -0.085 HD
BRANCH  25  28
ATOM     28  C   UNL     1       3.640 -15.592   6.240  0.00  0.00    -0.049 C 
BRANCH  28  29
ATOM     29  C   UNL     1       5.017 -16.041   5.749  0.00  0.00    +0.139 C 
ATOM     30  C   UNL     1       5.162 -17.545   5.858  0.00  0.00    -0.023 C 
ATOM     31  C   UNL     1       5.347 -17.960   4.606  0.00  0.00    +0.064 C 
ATOM     32  C   UNL     1       5.505 -19.470   4.582  0.00  0.00    +0.057 C 
ATOM     33  C   UNL     1       5.818 -19.865   6.042  0.00  0.00    +0.011 C 
ATOM     34  C   UNL     1       5.173 -18.700   6.826  0.00  0.00    +0.035 C 
ATOM     35  N   UNL     1       5.333 -16.895   3.759  0.00  0.00    -0.159 NA
ATOM     36  N   UNL     1       5.159 -15.800   4.303  0.00  0.00    -0.181 NA
ENDBRANCH  28  29
ENDBRANCH  25  28
ENDBRANCH  24  25
ENDBRANCH   4  24
TORSDOF 12
