REMARK  Name = ZINC39912296
REMARK  13 active torsions:
REMARK  status: ('A' for Active; 'I' for Inactive)
REMARK    1  A    between atoms: C_1  and  C_2
REMARK    2  A    between atoms: C_2  and  C_3
REMARK    3  A    between atoms: C_3  and  C_4
REMARK    4  A    between atoms: C_4  and  C_5
REMARK    5  A    between atoms: C_5  and  O_6
REMARK    6  A    between atoms: O_6  and  C_7
REMARK    7  A    between atoms: C_10  and  C_13
REMARK    8  A    between atoms: C_16  and  C_31
REMARK    9  A    between atoms: N_23  and  C_24
REMARK   10  A    between atoms: C_24  and  C_25
REMARK   11  A    between atoms: C_33  and  C_39
REMARK   12  A    between atoms: C_35  and  C_38
REMARK   13  A    between atoms: C_36  and  O_37
REMARK                            x       y       z     vdW  Elec       q    Type
REMARK                         _______ _______ _______ _____ _____    ______ ____
ROOT
ATOM      1  C   UNL     1       4.094  -6.527   6.739  0.00  0.00    +0.142 C 
ATOM      2  C   UNL     1       5.426  -7.079   6.313  0.00  0.00    +0.035 A 
ATOM      3  C   UNL     1       6.702  -6.818   5.799  0.00  0.00    +0.102 A 
ATOM      4  N   UNL     1       7.336  -7.970   5.715  0.00  0.00    -0.173 NA
ATOM      5  N   UNL     1       6.589  -8.933   6.123  0.00  0.00    -0.272 N 
ATOM      6  H   UNL     1       6.848  -9.867   6.151  0.00  0.00    +0.189 HD
ATOM      7  C   UNL     1       5.374  -8.445   6.514  0.00  0.00    +0.126 A 
ATOM      8  C   UNL     1       4.054  -8.786   7.055  0.00  0.00    +0.266 C 
ATOM      9  O   UNL     1       3.691  -9.911   7.341  0.00  0.00    -0.268 OA
ATOM     10  N   UNL     1       3.301  -7.678   7.191  0.00  0.00    -0.281 N 
ENDROOT
BRANCH   3  11
ATOM     11  C   UNL     1       7.240  -5.488   5.420  0.00  0.00    +0.044 A 
ATOM     12  C   UNL     1       6.504  -4.335   5.679  0.00  0.00    +0.017 A 
ATOM     13  C   UNL     1       7.009  -3.100   5.324  0.00  0.00    -0.049 A 
ATOM     14  C   UNL     1       8.246  -3.004   4.710  0.00  0.00    +0.010 A 
ATOM     15  C   UNL     1       8.985  -4.142   4.448  0.00  0.00    -0.008 A 
ATOM     16  C   UNL     1       8.492  -5.387   4.805  0.00  0.00    +0.129 A 
ATOM     17  C   UNL     1      10.330  -4.029   3.780  0.00  0.00    +0.047 C 
ATOM     18  C   UNL     1       6.211  -1.853   5.605  0.00  0.00    +0.044 C 
BRANCH  16  19
ATOM     19  O   UNL     1       9.220  -6.506   4.554  0.00  0.00    -0.506 OA
ATOM     20  H   UNL     1       9.047  -6.902   3.688  0.00  0.00    +0.292 HD
ENDBRANCH  16  19
ENDBRANCH   3  11
BRANCH   1  24
ATOM     21  C   UNL     1       2.166  -4.619   3.437  0.00  0.00    +0.121 A 
ATOM     22  C   UNL     1       2.413  -5.984   3.404  0.00  0.00    +0.046 A 
ATOM     23  C   UNL     1       3.036  -6.598   4.472  0.00  0.00    +0.009 A 
ATOM     24  C   UNL     1       3.414  -5.854   5.575  0.00  0.00    -0.022 A 
ATOM     25  C   UNL     1       3.169  -4.494   5.611  0.00  0.00    +0.009 A 
ATOM     26  C   UNL     1       2.551  -3.873   4.542  0.00  0.00    +0.046 A 
BRANCH  21  27
ATOM     27  O   UNL     1       1.553  -4.012   2.387  0.00  0.00    -0.492 OA
BRANCH  27  28
ATOM     28  C   UNL     1       1.185  -4.841   1.283  0.00  0.00    +0.229 C 
BRANCH  28  29
ATOM     29  C   UNL     1       0.513  -3.988   0.206  0.00  0.00    +0.041 C 
BRANCH  29  30
ATOM     30  C   UNL     1       0.118  -4.876  -0.976  0.00  0.00    +0.003 C 
BRANCH  30  32
ATOM     31  C   UNL     1      -0.949  -4.911  -3.235  0.00  0.00    +0.004 C 
ATOM     32  C   UNL     1      -0.554  -4.023  -2.053  0.00  0.00    -0.003 C 
ENDBRANCH  30  32
ENDBRANCH  29  30
ENDBRANCH  28  29
ENDBRANCH  27  28
ENDBRANCH  21  27
ENDBRANCH   1  24
BRANCH  10  33
ATOM     33  C   UNL     1       1.929  -7.628   7.701  0.00  0.00    +0.144 C 
BRANCH  33  34
ATOM     34  C   UNL     1       0.962  -7.786   6.556  0.00  0.00    -0.030 A 
ATOM     35  C   UNL     1       0.509  -6.672   5.874  0.00  0.00    +0.005 A 
ATOM     36  C   UNL     1      -0.378  -6.818   4.824  0.00  0.00    +0.000 A 
ATOM     37  C   UNL     1      -0.812  -8.078   4.455  0.00  0.00    +0.000 A 
ATOM     38  C   UNL     1      -0.359  -9.192   5.136  0.00  0.00    +0.000 A 
ATOM     39  C   UNL     1       0.532  -9.046   6.184  0.00  0.00    +0.005 A 
ENDBRANCH  33  34
ENDBRANCH  10  33
TORSDOF 10
