REMARK  Name = ZINC36636652
REMARK  10 active torsions:
REMARK  status: ('A' for Active; 'I' for Inactive)
REMARK    1  A    between atoms: C_1  and  C_2
REMARK    2  A    between atoms: C_3  and  C_32
REMARK    3  A    between atoms: N_9  and  C_29
REMARK    4  A    between atoms: C_10  and  S_12
REMARK    5  A    between atoms: S_12  and  C_13
REMARK    6  A    between atoms: C_13  and  C_15
REMARK    7  A    between atoms: C_13  and  C_16
REMARK    8  A    between atoms: C_26  and  C_28
REMARK    9  A    between atoms: C_29  and  C_30
REMARK   10  A    between atoms: C_29  and  C_31
REMARK                            x       y       z     vdW  Elec       q    Type
REMARK                         _______ _______ _______ _____ _____    ______ ____
ROOT
ATOM      1  C   UNL     1      -0.040   0.976  -1.093  0.00  0.00    +0.045 C 
ATOM      2  C   UNL     1      -0.098  -0.520  -0.921  0.00  0.00    -0.026 A 
ATOM      3  C   UNL     1      -0.190  -1.322  -1.992  0.00  0.00    -0.008 A 
ATOM      4  S   UNL     1      -0.226  -2.957  -1.282  0.00  0.00    -0.073 S 
ATOM      5  C   UNL     1      -0.115  -2.515   0.433  0.00  0.00    +0.117 A 
ATOM      6  C   UNL     1      -0.047  -1.110   0.406  0.00  0.00    +0.075 A 
ATOM      7  C   UNL     1       0.055  -0.466   1.679  0.00  0.00    +0.263 A 
ATOM      8  O   UNL     1       0.114   0.749   1.754  0.00  0.00    -0.267 OA
ATOM      9  N   UNL     1       0.085  -1.220   2.794  0.00  0.00    -0.285 N 
ATOM     10  C   UNL     1       0.020  -2.582   2.729  0.00  0.00    +0.174 A 
ATOM     11  N   UNL     1      -0.085  -3.200   1.570  0.00  0.00    -0.216 NA
ATOM     12  C   UNL     1      -0.251  -0.934  -3.447  0.00  0.00    +0.052 C 
ENDROOT
BRANCH   9  13
ATOM     13  C   UNL     1       0.191  -0.567   4.101  0.00  0.00    +0.087 C 
ATOM     14  C   UNL     1       1.484   0.249   4.160  0.00  0.00    +0.031 C 
ATOM     15  C   UNL     1      -1.008   0.362   4.304  0.00  0.00    +0.031 C 
ENDBRANCH   9  13
BRANCH  10  16
ATOM     16  S   UNL     1       0.063  -3.526   4.216  0.00  0.00    -0.075 S 
BRANCH  16  17
ATOM     17  C   UNL     1      -0.047  -5.245   3.649  0.00  0.00    +0.137 C 
ATOM     18  C   UNL     1      -1.407  -5.477   2.986  0.00  0.00    +0.029 C 
BRANCH  17  19
ATOM     19  C   UNL     1       0.103  -6.173   4.826  0.00  0.00    +0.233 C 
ATOM     20  O   UNL     1      -0.219  -5.803   5.936  0.00  0.00    -0.274 OA
ATOM     21  N   UNL     1       0.594  -7.415   4.647  0.00  0.00    -0.267 N 
ATOM     22  C   UNL     1       0.643  -8.408   5.630  0.00  0.00    +0.040 A 
ATOM     23  C   UNL     1       0.221  -8.358   6.960  0.00  0.00    +0.024 A 
ATOM     24  C   UNL     1       0.360  -9.460   7.776  0.00  0.00    +0.002 A 
ATOM     25  C   UNL     1       0.919 -10.625   7.283  0.00  0.00    +0.000 A 
ATOM     26  C   UNL     1       1.340 -10.682   5.967  0.00  0.00    +0.005 A 
ATOM     27  C   UNL     1       1.202  -9.580   5.146  0.00  0.00    -0.024 A 
ATOM     28  C   UNL     1       1.571  -9.373   3.694  0.00  0.00    +0.059 C 
ATOM     29  C   UNL     1       1.150  -7.926   3.390  0.00  0.00    +0.083 C 
ATOM     30  C   UNL     1       2.367  -7.097   2.973  0.00  0.00    +0.029 C 
ENDBRANCH  17  19
ENDBRANCH  16  17
ENDBRANCH  10  16
TORSDOF 4
