REMARK  Name = ZINC08870863
REMARK  8 active torsions:
REMARK  status: ('A' for Active; 'I' for Inactive)
REMARK    1  A    between atoms: C_1  and  C_2
REMARK    2  A    between atoms: C_2  and  C_4
REMARK    3  A    between atoms: C_2  and  S_6
REMARK    4  A    between atoms: S_6  and  C_7
REMARK    5  A    between atoms: C_9  and  N_18
REMARK    6  A    between atoms: C_16  and  O_17
REMARK    7  A    between atoms: N_18  and  S_19
REMARK    8  A    between atoms: S_19  and  C_22
REMARK                            x       y       z     vdW  Elec       q    Type
REMARK                         _______ _______ _______ _____ _____    ______ ____
ROOT
ATOM      1  C   UNL     1      -3.649  -0.329   1.306  0.00  0.00    +0.052 A 
ATOM      2  C   UNL     1      -2.324   0.102   1.425  0.00  0.00    +0.043 A 
ATOM      3  C   UNL     1      -2.034   1.370   1.874  0.00  0.00    +0.057 A 
ATOM      4  C   UNL     1      -3.084   2.246   2.223  0.00  0.00    +0.008 A 
ATOM      5  C   UNL     1      -2.822   3.547   2.680  0.00  0.00    +0.010 A 
ATOM      6  C   UNL     1      -3.857   4.371   3.003  0.00  0.00    +0.001 A 
ATOM      7  C   UNL     1      -5.178   3.943   2.883  0.00  0.00    +0.001 A 
ATOM      8  C   UNL     1      -5.471   2.690   2.440  0.00  0.00    +0.012 A 
ATOM      9  C   UNL     1      -4.428   1.812   2.097  0.00  0.00    +0.026 A 
ATOM     10  C   UNL     1      -4.696   0.510   1.635  0.00  0.00    +0.138 A 
ENDROOT
BRANCH  10  11
ATOM     11  O   UNL     1      -5.982   0.080   1.514  0.00  0.00    -0.505 OA
ATOM     12  H   UNL     1      -6.331  -0.344   2.310  0.00  0.00    +0.292 HD
ENDBRANCH  10  11
BRANCH   3  13
ATOM     13  N   UNL     1      -0.707   1.787   1.988  0.00  0.00    -0.216 N 
ATOM     14  H   UNL     1      -0.331   1.976   2.862  0.00  0.00    +0.174 HD
BRANCH  13  15
ATOM     15  S   UNL     1       0.227   1.959   0.631  0.00  0.00    +0.074 S 
ATOM     16  O   UNL     1       0.035   0.785  -0.146  0.00  0.00    -0.150 OA
ATOM     17  O   UNL     1       1.511   2.379   1.072  0.00  0.00    -0.150 OA
BRANCH  15  18
ATOM     18  C   UNL     1      -0.447   3.295  -0.299  0.00  0.00    +0.134 A 
ATOM     19  C   UNL     1       0.253   4.455  -0.434  0.00  0.00    +0.031 A 
ATOM     20  C   UNL     1      -0.262   5.524  -1.165  0.00  0.00    +0.003 A 
ATOM     21  C   UNL     1      -1.480   5.437  -1.766  0.00  0.00    +0.010 A 
ATOM     22  C   UNL     1      -2.230   4.256  -1.647  0.00  0.00    +0.002 A 
ATOM     23  C   UNL     1      -1.706   3.165  -0.909  0.00  0.00    +0.097 A 
ATOM     24  N   UNL     1      -2.418   2.040  -0.789  0.00  0.00    -0.253 NA
ATOM     25  C   UNL     1      -3.595   1.916  -1.352  0.00  0.00    +0.111 A 
ATOM     26  C   UNL     1      -4.165   2.947  -2.096  0.00  0.00    +0.020 A 
ATOM     27  C   UNL     1      -3.494   4.126  -2.253  0.00  0.00    +0.011 A 
ENDBRANCH  15  18
ENDBRANCH  13  15
ENDBRANCH   3  13
BRANCH   1  28
ATOM     28  S   UNL     1      -3.986  -1.959   0.728  0.00  0.00    -0.107 S 
BRANCH  28  30
ATOM     29  C   UNL     1      -1.860  -1.876  -0.991  0.00  0.00    +0.031 C 
ATOM     30  C   UNL     1      -2.357  -2.605   0.259  0.00  0.00    +0.161 C 
BRANCH  30  31
ATOM     31  C   UNL     1      -2.466  -4.080  -0.029  0.00  0.00    +0.369 C 
ATOM     32  O   UNL     1      -3.524  -4.552  -0.374  0.00  0.00    -0.245 OA
ATOM     33  O   UNL     1      -1.388  -4.869   0.096  0.00  0.00    -0.245 OA
ENDBRANCH  30  31
ENDBRANCH  28  30
ENDBRANCH   1  28
TORSDOF 7
