REMARK  Name = ZINC38685232
REMARK  16 active torsions:
REMARK  status: ('A' for Active; 'I' for Inactive)
REMARK    1  A    between atoms: C_1  and  C_2
REMARK    2  A    between atoms: C_2  and  C_3
REMARK    3  A    between atoms: C_3  and  C_4
REMARK    4  A    between atoms: C_4  and  O_5
REMARK    5  A    between atoms: O_5  and  C_6
REMARK    6  A    between atoms: C_10  and  C_12
REMARK    7  A    between atoms: C_17  and  O_26
REMARK    8  A    between atoms: C_21  and  N_25
REMARK    9  A    between atoms: C_22  and  C_23
REMARK   10  A    between atoms: O_26  and  C_27
REMARK   11  A    between atoms: C_27  and  C_29
REMARK   12  A    between atoms: C_29  and  C_31
REMARK   13  A    between atoms: C_29  and  O_32
REMARK   14  A    between atoms: O_32  and  C_33
REMARK   15  A    between atoms: C_36  and  C_39
REMARK   16  A    between atoms: C_39  and  C_40
REMARK                            x       y       z     vdW  Elec       q    Type
REMARK                         _______ _______ _______ _____ _____    ______ ____
ROOT
ATOM      1  C   UNL     1       2.781  -6.511  -5.115  0.00  0.00    +0.098 C 
ATOM      2  C   UNL     1       3.998  -7.280  -4.674  0.00  0.00    +0.008 A 
ATOM      3  C   UNL     1       5.159  -6.596  -4.358  0.00  0.00    +0.012 A 
ATOM      4  C   UNL     1       6.284  -7.285  -3.952  0.00  0.00    +0.047 A 
ATOM      5  C   UNL     1       6.254  -8.670  -3.860  0.00  0.00    +0.135 A 
ATOM      6  C   UNL     1       5.094  -9.358  -4.176  0.00  0.00    +0.093 A 
ATOM      7  C   UNL     1       3.963  -8.663  -4.584  0.00  0.00    +0.138 A 
ATOM      8  O   UNL     1       2.835  -9.351  -4.890  0.00  0.00    -0.441 OA
ATOM      9  C   UNL     1       1.880  -8.774  -5.638  0.00  0.00    +0.199 C 
ATOM     10  C   UNL     1       1.801  -7.433  -5.782  0.00  0.00    +0.098 C 
ENDROOT
BRANCH   1  15
ATOM     11  C   UNL     1       1.401  -3.917  -2.739  0.00  0.00    +0.121 A 
ATOM     12  C   UNL     1       0.935  -4.714  -1.703  0.00  0.00    +0.045 A 
ATOM     13  C   UNL     1       1.068  -6.087  -1.776  0.00  0.00    +0.004 A 
ATOM     14  C   UNL     1       1.665  -6.667  -2.880  0.00  0.00    +0.005 A 
ATOM     15  C   UNL     1       2.131  -5.875  -3.913  0.00  0.00    -0.031 A 
ATOM     16  C   UNL     1       1.995  -4.502  -3.848  0.00  0.00    +0.050 A 
BRANCH  11  17
ATOM     17  O   UNL     1       1.271  -2.566  -2.670  0.00  0.00    -0.492 OA
BRANCH  17  18
ATOM     18  C   UNL     1       0.649  -2.033  -1.498  0.00  0.00    +0.229 C 
BRANCH  18  19
ATOM     19  C   UNL     1       0.592  -0.508  -1.600  0.00  0.00    +0.041 C 
BRANCH  19  21
ATOM     20  C   UNL     1      -0.131   1.588  -0.448  0.00  0.00    +0.004 C 
ATOM     21  C   UNL     1      -0.073   0.062  -0.346  0.00  0.00    -0.000 C 
ENDBRANCH  19  21
ENDBRANCH  18  19
ENDBRANCH  17  18
ENDBRANCH  11  17
ENDBRANCH   1  15
BRANCH   9  22
ATOM     22  N   UNL     1       0.958  -9.570  -6.271  0.00  0.00    -0.328 N 
ATOM     23  H   UNL     1       1.003 -10.534  -6.176  0.00  0.00    +0.145 HD
ATOM     24  H   UNL     1       0.263  -9.168  -6.814  0.00  0.00    +0.145 HD
ENDBRANCH   9  22
BRANCH  10  25
ATOM     25  C   UNL     1       0.757  -6.880  -6.592  0.00  0.00    +0.101 C 
ATOM     26  N   UNL     1      -0.071  -6.442  -7.234  0.00  0.00    -0.191 NA
ENDBRANCH  10  25
BRANCH   5  27
ATOM     27  O   UNL     1       7.362  -9.350  -3.462  0.00  0.00    -0.423 OA
BRANCH  27  28
ATOM     28  C   UNL     1       7.977 -10.135  -4.360  0.00  0.00    +0.353 C 
ATOM     29  O   UNL     1       7.603 -10.146  -5.509  0.00  0.00    -0.246 OA
BRANCH  28  30
ATOM     30  C   UNL     1       9.134 -11.003  -3.936  0.00  0.00    +0.279 C 
ATOM     31  C   UNL     1       8.643 -12.058  -2.942  0.00  0.00    +0.064 C 
BRANCH  30  32
ATOM     32  O   UNL     1       9.689 -11.650  -5.082  0.00  0.00    -0.478 OA
BRANCH  32  33
ATOM     33  C   UNL     1      10.978 -12.072  -4.989  0.00  0.00    +0.122 A 
ATOM     34  C   UNL     1      11.558 -12.770  -6.038  0.00  0.00    +0.046 A 
ATOM     35  C   UNL     1      12.868 -13.197  -5.941  0.00  0.00    +0.007 A 
ATOM     36  C   UNL     1      13.601 -12.930  -4.799  0.00  0.00    -0.047 A 
ATOM     37  C   UNL     1      13.025 -12.235  -3.752  0.00  0.00    +0.007 A 
ATOM     38  C   UNL     1      11.717 -11.800  -3.847  0.00  0.00    +0.046 A 
BRANCH  36  39
ATOM     39  C   UNL     1      15.030 -13.398  -4.695  0.00  0.00    +0.032 C 
ATOM     40  C   UNL     1      15.962 -12.313  -5.239  0.00  0.00    +0.009 C 
ENDBRANCH  36  39
ENDBRANCH  32  33
ENDBRANCH  30  32
ENDBRANCH  28  30
ENDBRANCH  27  28
ENDBRANCH   5  27
TORSDOF 13
