REMARK  Name = ZINC66908753
REMARK  6 active torsions:
REMARK  status: ('A' for Active; 'I' for Inactive)
REMARK    1  A    between atoms: C_1  and  C_2
REMARK    2  A    between atoms: C_2  and  C_4
REMARK    3  A    between atoms: C_2  and  N_10
REMARK    4  A    between atoms: C_16  and  N_19
REMARK    5  A    between atoms: C_20  and  C_22
REMARK    6  A    between atoms: C_22  and  C_23
REMARK                            x       y       z     vdW  Elec       q    Type
REMARK                         _______ _______ _______ _____ _____    ______ ____
ROOT
ATOM      1  N   UNL     1      -1.307  -0.309  -2.403  0.00  0.00    -0.294 N 
ATOM      2  C   UNL     1       0.006  -0.608  -2.358  0.00  0.00    +0.302 C 
ATOM      3  O   UNL     1       0.643  -0.400  -1.344  0.00  0.00    -0.253 OA
ATOM      4  N   UNL     1       0.614  -1.138  -3.439  0.00  0.00    -0.286 N 
ATOM      5  C   UNL     1       2.013  -1.580  -3.368  0.00  0.00    +0.111 C 
ATOM      6  C   UNL     1       2.802  -0.904  -4.494  0.00  0.00    +0.041 C 
ATOM      7  C   UNL     1       2.118  -1.190  -5.833  0.00  0.00    +0.076 C 
ATOM      8  C   UNL     1       0.702  -0.611  -5.820  0.00  0.00    +0.041 C 
ATOM      9  C   UNL     1      -0.112  -1.289  -4.707  0.00  0.00    +0.111 C 
ATOM     10  H   UNL     1      -1.799  -0.407  -3.234  0.00  0.00    +0.151 HD
ENDROOT
BRANCH   7  11
ATOM     11  N   UNL     1       2.888  -0.573  -6.916  0.00  0.00    -0.312 N 
ATOM     12  C   UNL     1       2.810  -1.069  -8.167  0.00  0.00    +0.214 C 
ATOM     13  O   UNL     1       2.103  -2.028  -8.396  0.00  0.00    -0.276 OA
ATOM     14  H   UNL     1       3.453   0.194  -6.733  0.00  0.00    +0.149 HD
BRANCH  12  15
ATOM     15  C   UNL     1       3.602  -0.434  -9.280  0.00  0.00    +0.099 C 
BRANCH  15  16
ATOM     16  C   UNL     1       3.336  -1.184 -10.587  0.00  0.00    -0.002 C 
ATOM     17  C   UNL     1       3.872  -2.612 -10.473  0.00  0.00    +0.004 C 
ATOM     18  C   UNL     1       3.607  -3.362 -11.780  0.00  0.00    +0.000 C 
ATOM     19  C   UNL     1       4.310  -2.644 -12.933  0.00  0.00    +0.000 C 
ATOM     20  C   UNL     1       3.774  -1.215 -13.047  0.00  0.00    +0.000 C 
ATOM     21  C   UNL     1       4.040  -0.465 -11.740  0.00  0.00    +0.004 C 
ENDBRANCH  15  16
ENDBRANCH  12  15
ENDBRANCH   7  11
BRANCH   1  23
ATOM     22  C   UNL     1      -2.444  -1.037  -0.364  0.00  0.00    +0.030 C 
ATOM     23  C   UNL     1      -1.993   0.163  -1.198  0.00  0.00    +0.100 C 
BRANCH  23  24
ATOM     24  C   UNL     1      -3.213   0.994  -1.598  0.00  0.00    +0.138 C 
ATOM     25  C   UNL     1      -3.872   1.597  -0.339  0.00  0.00    +0.035 C 
ATOM     26  C   UNL     1      -5.385   1.463  -0.662  0.00  0.00    +0.031 C 
ATOM     27  C   UNL     1      -5.398   0.140  -1.468  0.00  0.00    +0.160 C 
ATOM     28  O   UNL     1      -4.183   0.156  -2.237  0.00  0.00    -0.375 OA
ENDBRANCH  23  24
ENDBRANCH   1  23
TORSDOF 5
