REMARK  Name = ZINC20569065
REMARK  9 active torsions:
REMARK  status: ('A' for Active; 'I' for Inactive)
REMARK    1  A    between atoms: C_1  and  C_2
REMARK    2  A    between atoms: C_3  and  C_23
REMARK    3  A    between atoms: N_19  and  C_20
REMARK    4  A    between atoms: C_20  and  C_21
REMARK    5  A    between atoms: C_23  and  O_25
REMARK    6  A    between atoms: O_25  and  C_26
REMARK    7  A    between atoms: C_26  and  C_27
REMARK    8  A    between atoms: C_26  and  C_28
REMARK    9  A    between atoms: C_26  and  C_29
REMARK                            x       y       z     vdW  Elec       q    Type
REMARK                         _______ _______ _______ _____ _____    ______ ____
ROOT
ATOM      1  C   UNL     1       1.600  -1.972  -0.024  0.00  0.00    +0.061 C 
ATOM      2  C   UNL     1       1.273  -0.501  -0.013  0.00  0.00    +0.022 C 
ATOM      3  C   UNL     1       2.201   0.477  -0.016  0.00  0.00    +0.079 C 
ATOM      4  C   UNL     1       1.430   1.773  -0.002  0.00  0.00    +0.151 C 
ATOM      5  C   UNL     1       1.745   2.616  -1.203  0.00  0.00    -0.011 A 
ATOM      6  C   UNL     1       1.649   2.403  -2.560  0.00  0.00    +0.006 A 
ATOM      7  C   UNL     1       2.025   3.397  -3.447  0.00  0.00    +0.000 A 
ATOM      8  C   UNL     1       2.497   4.609  -2.974  0.00  0.00    +0.001 A 
ATOM      9  C   UNL     1       2.599   4.834  -1.618  0.00  0.00    +0.012 A 
ATOM     10  C   UNL     1       2.223   3.836  -0.714  0.00  0.00    +0.024 A 
ATOM     11  C   UNL     1       2.227   3.799   0.762  0.00  0.00    +0.162 A 
ATOM     12  C   UNL     1       1.768   2.602   1.204  0.00  0.00    +0.113 A 
ATOM     13  N   UNL     1       1.794   2.623   2.546  0.00  0.00    -0.198 NA
ATOM     14  C   UNL     1       2.250   3.788   2.942  0.00  0.00    +0.286 A 
ATOM     15  O   UNL     1       2.525   4.535   1.862  0.00  0.00    -0.424 OA
ATOM     16  N   UNL     1       2.419   4.180   4.253  0.00  0.00    -0.313 N 
ATOM     17  C   UNL     1      -0.016   1.345   0.009  0.00  0.00    +0.241 C 
ATOM     18  O   UNL     1      -0.993   2.064   0.018  0.00  0.00    -0.273 OA
ATOM     19  N   UNL     1       0.002  -0.004   0.002  0.00  0.00    -0.270 N 
ATOM     20  H   UNL     1       2.810   5.182   4.482  0.00  0.00    +0.147 HD
ATOM     21  H   UNL     1       2.163   3.490   5.071  0.00  0.00    +0.147 HD
ENDROOT
BRANCH   3  22
ATOM     22  C   UNL     1       3.607   0.320  -0.031  0.00  0.00    +0.339 C 
ATOM     23  O   UNL     1       4.095  -0.794  -0.043  0.00  0.00    -0.245 OA
BRANCH  22  24
ATOM     24  O   UNL     1       4.407   1.407  -0.032  0.00  0.00    -0.456 OA
BRANCH  24  25
ATOM     25  C   UNL     1       5.817   1.174  -0.047  0.00  0.00    +0.106 C 
ATOM     26  C   UNL     1       6.191   0.387  -1.305  0.00  0.00    +0.055 C 
ATOM     27  C   UNL     1       6.555   2.514  -0.047  0.00  0.00    +0.055 C 
ATOM     28  C   UNL     1       6.215   0.372   1.193  0.00  0.00    +0.055 C 
ENDBRANCH  24  25
ENDBRANCH  22  24
ENDBRANCH   3  22
BRANCH  19  29
ATOM     29  C   UNL     1      -1.202  -0.838   0.009  0.00  0.00    +0.140 C 
BRANCH  29  30
ATOM     30  C   UNL     1      -1.628  -1.117  -1.409  0.00  0.00    -0.015 C 
ATOM     31  C   UNL     1      -1.787  -2.353  -1.815  0.00  0.00    +0.005 C 
ENDBRANCH  29  30
ENDBRANCH  19  29
TORSDOF 5
