REMARK  Name = ZINC39724316
REMARK  7 active torsions:
REMARK  status: ('A' for Active; 'I' for Inactive)
REMARK    1  A    between atoms: C_1  and  C_2
REMARK    2  A    between atoms: C_2  and  N_3
REMARK    3  A    between atoms: C_4  and  C_27
REMARK    4  A    between atoms: C_8  and  S_10
REMARK    5  A    between atoms: S_10  and  C_11
REMARK    6  A    between atoms: C_11  and  C_12
REMARK    7  A    between atoms: C_20  and  C_24
REMARK                            x       y       z     vdW  Elec       q    Type
REMARK                         _______ _______ _______ _____ _____    ______ ____
ROOT
ATOM      1  N   UNL     1      -1.217  -0.621   0.372  0.00  0.00    +0.410 N 
ATOM      2  C   UNL     1      -1.379  -1.979  -0.197  0.00  0.00    +0.049 C 
ATOM      3  N   UNL     1      -1.652  -2.839   0.985  0.00  0.00    -0.267 NA
ATOM      4  N   UNL     1      -2.497  -1.982   1.831  0.00  0.00    -0.262 NA
ATOM      5  C   UNL     1      -1.930  -0.624   1.666  0.00  0.00    +0.077 C 
ATOM      6  H   UNL     1      -2.143  -3.678   0.715  0.00  0.00    +0.139 HD
ATOM      7  H   UNL     1      -3.459  -2.011   1.528  0.00  0.00    +0.140 HD
ATOM      8  H   UNL     1      -1.624   0.065  -0.246  0.00  0.00    -0.075 HD
ENDROOT
BRANCH   2   9
ATOM      9  C   UNL     1      -0.113  -2.415  -0.888  0.00  0.00    -0.045 A 
ATOM     10  C   UNL     1       0.960  -2.872  -0.144  0.00  0.00    +0.003 A 
ATOM     11  C   UNL     1       2.121  -3.272  -0.778  0.00  0.00    +0.002 A 
ATOM     12  C   UNL     1       2.211  -3.216  -2.156  0.00  0.00    +0.020 A 
ATOM     13  C   UNL     1       1.139  -2.759  -2.901  0.00  0.00    +0.041 A 
ATOM     14  C   UNL     1      -0.026  -2.364  -2.266  0.00  0.00    +0.023 A 
ATOM     15 CL   UNL     1       1.251  -2.689  -4.632  0.00  0.00    -0.084 Cl
ENDBRANCH   2   9
BRANCH   1  17
ATOM     16  C   UNL     1       0.362   1.100   1.109  0.00  0.00    -0.017 C 
ATOM     17  C   UNL     1       0.207  -0.328   0.582  0.00  0.00    -0.076 C 
ENDBRANCH   1  17
BRANCH   5  18
ATOM     18  S   UNL     1      -3.262   0.608   1.646  0.00  0.00    -0.152 S 
BRANCH  18  19
ATOM     19  C   UNL     1      -4.332   0.074   0.282  0.00  0.00    +0.143 C 
BRANCH  19  20
ATOM     20  C   UNL     1      -5.494   1.025   0.154  0.00  0.00    +0.120 A 
ATOM     21  N   UNL     1      -6.417   0.788  -0.815  0.00  0.00    -0.310 N 
ATOM     22  H   UNL     1      -6.313   0.022  -1.400  0.00  0.00    +0.170 HD
ATOM     23  C   UNL     1      -7.479   1.612  -0.971  0.00  0.00    +0.259 A 
ATOM     24  O   UNL     1      -8.313   1.412  -1.834  0.00  0.00    -0.267 OA
ATOM     25  C   UNL     1      -7.587   2.760  -0.054  0.00  0.00    +0.065 A 
ATOM     26  C   UNL     1      -8.644   3.666  -0.133  0.00  0.00    +0.016 A 
ATOM     27  C   UNL     1      -8.705   4.716   0.737  0.00  0.00    +0.016 A 
ATOM     28  C   UNL     1      -7.714   4.894   1.711  0.00  0.00    +0.065 A 
ATOM     29  C   UNL     1      -6.651   4.002   1.806  0.00  0.00    +0.043 A 
ATOM     30  C   UNL     1      -6.580   2.924   0.921  0.00  0.00    +0.079 A 
ATOM     31  N   UNL     1      -5.566   2.025   0.979  0.00  0.00    -0.233 NA
BRANCH  28  32
ATOM     32  C   UNL     1      -7.798   6.037   2.644  0.00  0.00    +0.387 C 
ATOM     33  O   UNL     1      -8.730   6.824   2.564  0.00  0.00    -0.241 OA
ATOM     34  O   UNL     1      -6.935   6.196   3.496  0.00  0.00    -0.241 OA
ENDBRANCH  28  32
ENDBRANCH  19  20
ENDBRANCH  18  19
ENDBRANCH   5  18
TORSDOF 6
