REMARK  Name = ZINC03294486
REMARK  9 active torsions:
REMARK  status: ('A' for Active; 'I' for Inactive)
REMARK    1  A    between atoms: C_1  and  C_2
REMARK    2  A    between atoms: C_2  and  C_3
REMARK    3  A    between atoms: C_2  and  C_4
REMARK    4  A    between atoms: C_7  and  N_10
REMARK    5  A    between atoms: C_14  and  S_16
REMARK    6  A    between atoms: S_16  and  C_17
REMARK    7  A    between atoms: C_17  and  C_18
REMARK    8  A    between atoms: C_18  and  C_20
REMARK    9  A    between atoms: C_20  and  C_30
REMARK                            x       y       z     vdW  Elec       q    Type
REMARK                         _______ _______ _______ _____ _____    ______ ____
ROOT
ATOM      1  S   UNL     1      -1.337   0.926  -1.501  0.00  0.00    -0.089 S 
ENDROOT
BRANCH   1   6
ATOM      2  N   UNL     1       1.584  -0.021  -6.419  0.00  0.00    -0.292 N 
ATOM      3  C   UNL     1       1.077   0.104  -5.131  0.00  0.00    +0.187 A 
ATOM      4  N   UNL     1       1.614  -0.260  -3.982  0.00  0.00    -0.125 NA
ATOM      5  N   UNL     1       0.932  -0.041  -2.808  0.00  0.00    -0.133 NA
ATOM      6  C   UNL     1      -0.256   0.532  -2.836  0.00  0.00    +0.160 A 
ATOM      7  S   UNL     1      -0.479   0.792  -4.589  0.00  0.00    -0.024 S 
ATOM      8  H   UNL     1       1.110   0.374  -7.168  0.00  0.00    +0.154 HD
BRANCH   2  12
ATOM      9  C   UNL     1       5.141  -2.087  -7.066  0.00  0.00    -0.045 A 
ATOM     10  C   UNL     1       4.358  -2.389  -5.967  0.00  0.00    +0.006 A 
ATOM     11  C   UNL     1       3.178  -1.706  -5.750  0.00  0.00    +0.023 A 
ATOM     12  C   UNL     1       2.778  -0.714  -6.636  0.00  0.00    +0.033 A 
ATOM     13  C   UNL     1       3.564  -0.416  -7.742  0.00  0.00    +0.023 A 
ATOM     14  C   UNL     1       4.746  -1.100  -7.951  0.00  0.00    +0.006 A 
BRANCH   9  16
ATOM     15  C   UNL     1       6.364  -3.551  -8.651  0.00  0.00    +0.012 C 
ATOM     16  C   UNL     1       6.429  -2.834  -7.301  0.00  0.00    +0.013 C 
ATOM     17  C   UNL     1       7.598  -1.848  -7.303  0.00  0.00    +0.012 C 
ENDBRANCH   9  16
ENDBRANCH   2  12
ENDBRANCH   1   6
BRANCH   1  18
ATOM     18  C   UNL     1      -0.441   0.361  -0.029  0.00  0.00    +0.156 C 
BRANCH  18  19
ATOM     19  C   UNL     1      -1.266   0.643   1.200  0.00  0.00    +0.187 C 
ATOM     20  O   UNL     1      -2.354   1.174   1.093  0.00  0.00    -0.290 OA
BRANCH  19  21
ATOM     21  C   UNL     1      -0.778   0.292   2.470  0.00  0.00    +0.131 C 
ATOM     22  C   UNL     1      -1.548   0.555   3.617  0.00  0.00    +0.114 C 
ATOM     23  N   UNL     1      -2.771   1.147   3.625  0.00  0.00    -0.300 N 
ATOM     24  C   UNL     1      -3.207   1.229   4.942  0.00  0.00    +0.054 A 
ATOM     25  C   UNL     1      -4.361   1.728   5.529  0.00  0.00    +0.025 A 
ATOM     26  C   UNL     1      -4.514   1.675   6.900  0.00  0.00    +0.002 A 
ATOM     27  C   UNL     1      -3.520   1.126   7.693  0.00  0.00    +0.002 A 
ATOM     28  C   UNL     1      -2.368   0.626   7.120  0.00  0.00    +0.025 A 
ATOM     29  C   UNL     1      -2.205   0.674   5.742  0.00  0.00    +0.054 A 
ATOM     30  N   UNL     1      -1.184   0.263   4.893  0.00  0.00    -0.300 N 
ATOM     31  H   UNL     1      -3.257   1.457   2.845  0.00  0.00    +0.153 HD
ATOM     32  H   UNL     1      -0.355  -0.160   5.164  0.00  0.00    +0.153 HD
BRANCH  21  33
ATOM     33  C   UNL     1       0.504  -0.334   2.596  0.00  0.00    +0.106 C 
ATOM     34  N   UNL     1       1.521  -0.830   2.696  0.00  0.00    -0.191 NA
ENDBRANCH  21  33
ENDBRANCH  19  21
ENDBRANCH  18  19
ENDBRANCH   1  18
TORSDOF 7
