REMARK  Name = ZINC35164963
REMARK  5 active torsions:
REMARK  status: ('A' for Active; 'I' for Inactive)
REMARK    1  A    between atoms: C_1  and  C_2
REMARK    2  A    between atoms: C_2  and  N_3
REMARK    3  A    between atoms: N_3  and  C_4
REMARK    4  A    between atoms: N_3  and  C_11
REMARK    5  A    between atoms: C_4  and  C_5
REMARK                            x       y       z     vdW  Elec       q    Type
REMARK                         _______ _______ _______ _____ _____    ______ ____
ROOT
ATOM      1  N   UNL     1      -1.372  -0.511   0.012  0.00  0.00    -0.324 N 
ENDROOT
BRANCH   1   2
ATOM      2  C   UNL     1      -2.014  -0.759   1.224  0.00  0.00    +0.038 A 
ATOM      3  C   UNL     1      -2.752   0.233   1.836  0.00  0.00    +0.024 A 
ATOM      4  C   UNL     1      -3.397  -0.004   3.046  0.00  0.00    +0.002 A 
ATOM      5  C   UNL     1      -3.319  -1.218   3.658  0.00  0.00    +0.008 A 
ATOM      6  C   UNL     1      -2.578  -2.256   3.067  0.00  0.00    -0.016 A 
ATOM      7  C   UNL     1      -1.921  -2.029   1.833  0.00  0.00    +0.003 A 
ATOM      8  C   UNL     1      -1.185  -3.067   1.242  0.00  0.00    +0.010 A 
ATOM      9  C   UNL     1      -1.116  -4.280   1.858  0.00  0.00    +0.001 A 
ATOM     10  C   UNL     1      -1.767  -4.506   3.069  0.00  0.00    +0.001 A 
ATOM     11  C   UNL     1      -2.479  -3.519   3.677  0.00  0.00    +0.008 A 
ENDBRANCH   1   2
BRANCH   1  13
ATOM     12  C   UNL     1      -0.019   1.526   0.010  0.00  0.00    +0.024 C 
ATOM     13  C   UNL     1       0.002  -0.004   0.002  0.00  0.00    +0.102 C 
ENDBRANCH   1  13
BRANCH   1  14
ATOM     14  C   UNL     1      -2.072  -0.758  -1.251  0.00  0.00    +0.164 C 
BRANCH  14  15
ATOM     15  C   UNL     1      -1.820  -2.175  -1.696  0.00  0.00    +0.108 A 
ATOM     16  C   UNL     1      -0.769  -2.517  -2.488  0.00  0.00    +0.123 A 
ATOM     17  S   UNL     1      -0.982  -4.174  -2.656  0.00  0.00    +0.049 S 
ATOM     18  N   UNL     1      -2.321  -4.361  -1.766  0.00  0.00    -0.109 NA
ATOM     19  N   UNL     1      -2.598  -3.177  -1.343  0.00  0.00    -0.143 NA
ATOM     20 CL   UNL     1       0.473  -1.502  -3.153  0.00  0.00    -0.072 Cl
ENDBRANCH  14  15
ENDBRANCH   1  14
TORSDOF 4
