REMARK  Name = ZINC36640606
REMARK  6 active torsions:
REMARK  status: ('A' for Active; 'I' for Inactive)
REMARK    1  A    between atoms: C_1  and  N_2
REMARK    2  A    between atoms: N_2  and  C_3
REMARK    3  A    between atoms: N_2  and  C_4
REMARK    4  A    between atoms: C_4  and  C_5
REMARK    5  A    between atoms: C_5  and  N_6
REMARK    6  A    between atoms: C_18  and  C_20
REMARK                            x       y       z     vdW  Elec       q    Type
REMARK                         _______ _______ _______ _____ _____    ______ ____
ROOT
ATOM      1  N   UNL     1      -2.752  -2.495   0.009  0.00  0.00    -0.252 N 
ATOM      2  C   UNL     1      -3.479  -2.820  -1.125  0.00  0.00    +0.168 A 
ATOM      3  N   UNL     1      -4.647  -3.410  -1.214  0.00  0.00    -0.221 NA
ATOM      4  C   UNL     1      -5.244  -3.667  -2.399  0.00  0.00    +0.116 A 
ATOM      5  C   UNL     1      -6.492  -4.293  -2.631  0.00  0.00    +0.152 A 
ATOM      6  C   UNL     1      -6.956  -4.479  -3.909  0.00  0.00    +0.079 A 
ATOM      7  C   UNL     1      -6.223  -4.064  -5.014  0.00  0.00    +0.127 A 
ATOM      8  C   UNL     1      -4.998  -3.449  -4.822  0.00  0.00    +0.055 A 
ATOM      9  C   UNL     1      -4.527  -3.258  -3.546  0.00  0.00    +0.046 A 
ATOM     10  S   UNL     1      -3.066  -2.534  -2.841  0.00  0.00    -0.052 S 
ATOM     11  F   UNL     1      -6.700  -4.260  -6.263  0.00  0.00    -0.205 F 
ATOM     12  F   UNL     1      -7.235  -4.711  -1.583  0.00  0.00    -0.203 F 
ATOM     13  C   UNL     1      -3.238  -2.797   1.230  0.00  0.00    +0.227 C 
ATOM     14  O   UNL     1      -4.305  -3.362   1.335  0.00  0.00    -0.275 OA
ENDROOT
BRANCH  13  15
ATOM     15  C   UNL     1      -2.455  -2.431   2.464  0.00  0.00    +0.048 C 
ATOM     16  C   UNL     1      -2.078  -0.949   2.408  0.00  0.00    +0.019 C 
ATOM     17  C   UNL     1      -1.282  -0.578   3.662  0.00  0.00    -0.009 C 
ATOM     18  C   UNL     1      -2.136  -0.840   4.904  0.00  0.00    +0.007 C 
ATOM     19  C   UNL     1      -2.513  -2.322   4.960  0.00  0.00    -0.009 C 
ATOM     20  C   UNL     1      -3.308  -2.693   3.707  0.00  0.00    +0.019 C 
ATOM     21  C   UNL     1      -1.241  -3.170   5.027  0.00  0.00    +0.007 C 
ATOM     22  C   UNL     1      -0.388  -2.907   3.784  0.00  0.00    -0.009 C 
ATOM     23  C   UNL     1      -0.010  -1.425   3.728  0.00  0.00    +0.007 C 
ATOM     24  C   UNL     1      -1.183  -3.279   2.531  0.00  0.00    +0.019 C 
ENDBRANCH  13  15
BRANCH   1  25
ATOM     25  C   UNL     1      -1.456  -1.824  -0.118  0.00  0.00    +0.097 C 
BRANCH  25  26
ATOM     26  C   UNL     1      -1.677  -0.332  -0.372  0.00  0.00    -0.060 C 
BRANCH  26  28
ATOM     27  C   UNL     1      -0.592   1.744  -0.890  0.00  0.00    -0.097 C 
ATOM     28  N   UNL     1      -0.378   0.336  -0.528  0.00  0.00    +0.377 N 
ATOM     29  C   UNL     1       0.365   0.264   0.738  0.00  0.00    -0.097 C 
ATOM     30  H   UNL     1       0.150  -0.122  -1.255  0.00  0.00    -0.083 HD
ENDBRANCH  26  28
ENDBRANCH  25  26
ENDBRANCH   1  25
TORSDOF 4
