REMARK  Name = ZINC33740172
REMARK  12 active torsions:
REMARK  status: ('A' for Active; 'I' for Inactive)
REMARK    1  A    between atoms: C_1  and  C_2
REMARK    2  A    between atoms: C_2  and  C_3
REMARK    3  A    between atoms: C_2  and  C_4
REMARK    4  A    between atoms: C_4  and  C_5
REMARK    5  A    between atoms: C_5  and  C_35
REMARK    6  A    between atoms: C_10  and  C_13
REMARK    7  A    between atoms: C_17  and  O_20
REMARK    8  A    between atoms: C_18  and  O_19
REMARK    9  A    between atoms: O_20  and  C_21
REMARK   10  A    between atoms: N_24  and  C_27
REMARK   11  A    between atoms: C_30  and  O_33
REMARK   12  A    between atoms: O_33  and  C_34
REMARK                            x       y       z     vdW  Elec       q    Type
REMARK                         _______ _______ _______ _____ _____    ______ ____
ROOT
ATOM      1  C   UNL     1       2.317  -5.039  -0.571  0.00  0.00    +0.048 C 
ATOM      2  C   UNL     1       1.984  -3.677  -0.011  0.00  0.00    +0.086 C 
ATOM      3  C   UNL     1       0.876  -3.275  -1.063  0.00  0.00    +0.077 C 
ATOM      4  C   UNL     1       0.009  -4.481  -1.038  0.00  0.00    -0.023 C 
ATOM      5  N   UNL     1       0.957  -5.623  -0.828  0.00  0.00    +0.396 N 
ATOM      6  C   UNL     1       0.672  -1.881  -0.673  0.00  0.00    +0.229 C 
ATOM      7  O   UNL     1      -0.368  -1.257  -0.670  0.00  0.00    -0.275 OA
ATOM      8  N   UNL     1       1.918  -1.431  -0.314  0.00  0.00    -0.210 N 
ATOM      9  C   UNL     1       2.810  -2.454  -0.121  0.00  0.00    +0.229 C 
ATOM     10  O   UNL     1       4.018  -2.373  -0.056  0.00  0.00    -0.275 OA
ATOM     11  H   UNL     1       0.996  -6.261  -1.723  0.00  0.00    -0.083 HD
ATOM     12  H   UNL     1       0.647  -6.226   0.038  0.00  0.00    -0.083 HD
ENDROOT
BRANCH   4  13
ATOM     13  C   UNL     1      -0.975  -4.398   0.101  0.00  0.00    -0.015 A 
ATOM     14  C   UNL     1      -0.656  -4.944   1.331  0.00  0.00    +0.006 A 
ATOM     15  C   UNL     1      -1.554  -4.865   2.379  0.00  0.00    +0.004 A 
ATOM     16  C   UNL     1      -2.779  -4.249   2.199  0.00  0.00    +0.049 A 
ATOM     17  C   UNL     1      -3.106  -3.704   0.968  0.00  0.00    +0.161 A 
ATOM     18  C   UNL     1      -2.200  -3.779  -0.086  0.00  0.00    +0.160 A 
BRANCH  18  19
ATOM     19  O   UNL     1      -2.517  -3.247  -1.296  0.00  0.00    -0.503 OA
ATOM     20  H   UNL     1      -3.491  -2.756  -1.444  0.00  0.00    +0.292 HD
ENDBRANCH  18  19
BRANCH  17  21
ATOM     21  O   UNL     1      -4.311  -3.099   0.789  0.00  0.00    -0.491 OA
ATOM     22  C   UNL     1      -5.190  -3.059   1.915  0.00  0.00    +0.277 C 
ENDBRANCH  17  21
ENDBRANCH   4  13
BRANCH   8  23
ATOM     23  C   UNL     1       2.241  -0.075  -0.155  0.00  0.00    +0.044 A 
ATOM     24  C   UNL     1       1.276   0.899  -0.370  0.00  0.00    +0.027 A 
ATOM     25  C   UNL     1       1.595   2.233  -0.214  0.00  0.00    +0.047 A 
ATOM     26  C   UNL     1       2.880   2.601   0.158  0.00  0.00    +0.120 A 
ATOM     27  C   UNL     1       3.845   1.628   0.372  0.00  0.00    +0.047 A 
ATOM     28  C   UNL     1       3.527   0.293   0.217  0.00  0.00    +0.027 A 
BRANCH  26  29
ATOM     29  O   UNL     1       3.193   3.915   0.311  0.00  0.00    -0.495 OA
ATOM     30  C   UNL     1       4.535   4.221   0.695  0.00  0.00    +0.277 C 
ENDBRANCH  26  29
ENDBRANCH   8  23
BRANCH   1  31
ATOM     31  C   UNL     1       3.072  -5.864   0.440  0.00  0.00    +0.346 C 
ATOM     32  O   UNL     1       3.929  -5.351   1.119  0.00  0.00    -0.248 OA
ATOM     33  O   UNL     1       2.792  -7.168   0.585  0.00  0.00    -0.248 OA
ENDBRANCH   1  31
BRANCH   1  34
ATOM     34  C   UNL     1       3.110  -4.913  -1.873  0.00  0.00    +0.002 C 
BRANCH  34  36
ATOM     35  C   UNL     1       3.594  -6.187  -3.967  0.00  0.00    +0.007 C 
ATOM     36  C   UNL     1       3.350  -6.304  -2.461  0.00  0.00    -0.018 C 
ATOM     37  C   UNL     1       4.574  -6.936  -1.794  0.00  0.00    +0.007 C 
ENDBRANCH  34  36
ENDBRANCH   1  34
TORSDOF 8
