REMARK  Name = ZINC14955175
REMARK  4 active torsions:
REMARK  status: ('A' for Active; 'I' for Inactive)
REMARK    1  A    between atoms: C_1  and  C_2
REMARK    2  A    between atoms: C_5  and  C_7
REMARK    3  A    between atoms: C_7  and  N_8
REMARK    4  A    between atoms: C_21  and  C_23
REMARK                            x       y       z     vdW  Elec       q    Type
REMARK                         _______ _______ _______ _____ _____    ______ ____
ROOT
ATOM      1  N   UNL     1       1.451  -4.454   1.060  0.00  0.00    -0.285 NA
ATOM      2  C   UNL     1       2.131  -3.689   2.114  0.00  0.00    +0.090 C 
ATOM      3  C   UNL     1       3.648  -3.890   1.992  0.00  0.00    +0.053 C 
ATOM      4  C   UNL     1       3.914  -5.370   1.874  0.00  0.00    -0.016 A 
ATOM      5  C   UNL     1       5.153  -6.095   2.045  0.00  0.00    +0.003 A 
ATOM      6  C   UNL     1       6.455  -5.692   2.359  0.00  0.00    +0.010 A 
ATOM      7  C   UNL     1       7.407  -6.677   2.441  0.00  0.00    +0.001 A 
ATOM      8  C   UNL     1       7.106  -8.012   2.224  0.00  0.00    +0.002 A 
ATOM      9  C   UNL     1       5.827  -8.439   1.912  0.00  0.00    +0.026 A 
ATOM     10  C   UNL     1       4.839  -7.461   1.822  0.00  0.00    +0.047 A 
ATOM     11  N   UNL     1       3.504  -7.531   1.540  0.00  0.00    -0.356 N 
ATOM     12  H   UNL     1       3.017  -8.348   1.345  0.00  0.00    +0.166 HD
ATOM     13  C   UNL     1       2.957  -6.277   1.573  0.00  0.00    +0.042 A 
ATOM     14  C   UNL     1       1.517  -5.902   1.319  0.00  0.00    +0.137 C 
ENDROOT
BRANCH  14  15
ATOM     15  C   UNL     1       1.001  -6.654   0.119  0.00  0.00    +0.011 A 
ATOM     16  C   UNL     1       1.053  -6.076  -1.135  0.00  0.00    +0.008 A 
ATOM     17  C   UNL     1       0.580  -6.766  -2.235  0.00  0.00    +0.000 A 
ATOM     18  C   UNL     1       0.054  -8.036  -2.082  0.00  0.00    +0.003 A 
ATOM     19  C   UNL     1       0.002  -8.617  -0.829  0.00  0.00    +0.039 A 
ATOM     20  C   UNL     1       0.480  -7.928   0.273  0.00  0.00    +0.128 A 
ATOM     21  F   UNL     1       0.434  -8.496   1.498  0.00  0.00    -0.205 F 
ENDBRANCH  14  15
BRANCH   1  22
ATOM     22  C   UNL     1       0.059  -4.011   0.902  0.00  0.00    +0.129 C 
BRANCH  22  27
ATOM     23  C   UNL     1      -0.018   1.503   0.010  0.00  0.00    +0.073 C 
ATOM     24  C   UNL     1       0.002  -0.004   0.002  0.00  0.00    +0.075 A 
ATOM     25  N   UNL     1       0.009  -0.812  -1.029  0.00  0.00    -0.252 NA
ATOM     26  C   UNL     1       0.027  -2.121  -0.874  0.00  0.00    +0.123 A 
ATOM     27  C   UNL     1       0.039  -2.590   0.400  0.00  0.00    +0.023 A 
ATOM     28  S   UNL     1       0.029  -1.057   1.315  0.00  0.00    -0.076 S 
ENDBRANCH  22  27
ENDBRANCH   1  22
TORSDOF 3
