REMARK  Name = ZINC35526911
REMARK  12 active torsions:
REMARK  status: ('A' for Active; 'I' for Inactive)
REMARK    1  A    between atoms: C_1  and  C_2
REMARK    2  A    between atoms: C_2  and  C_21
REMARK    3  A    between atoms: N_6  and  S_8
REMARK    4  A    between atoms: S_8  and  C_11
REMARK    5  A    between atoms: C_14  and  C_17
REMARK    6  A    between atoms: C_17  and  C_18
REMARK    7  A    between atoms: C_17  and  C_19
REMARK    8  A    between atoms: C_17  and  C_20
REMARK    9  A    between atoms: N_23  and  C_24
REMARK   10  A    between atoms: C_24  and  C_25
REMARK   11  A    between atoms: C_28  and  O_31
REMARK   12  A    between atoms: O_31  and  C_32
REMARK                            x       y       z     vdW  Elec       q    Type
REMARK                         _______ _______ _______ _____ _____    ______ ____
ROOT
ATOM      1  C   UNL     1      -0.019   1.526   0.010  0.00  0.00    +0.022 C 
ATOM      2  C   UNL     1       0.002  -0.004   0.002  0.00  0.00    +0.058 C 
ATOM      3  C   UNL     1      -1.433  -0.534   0.017  0.00  0.00    +0.018 C 
ATOM      4  C   UNL     1      -2.159  -0.013   1.260  0.00  0.00    +0.018 C 
ATOM      5  C   UNL     1      -1.442  -0.521   2.515  0.00  0.00    +0.109 C 
ATOM      6  N   UNL     1      -0.026  -0.139   2.438  0.00  0.00    -0.176 NA
ATOM      7  C   UNL     1       0.743  -0.512   1.243  0.00  0.00    +0.125 C 
ENDROOT
BRANCH   2   8
ATOM      8  C   UNL     1       0.706  -0.491  -1.238  0.00  0.00    +0.220 C 
ATOM      9  O   UNL     1       1.702  -1.175  -1.141  0.00  0.00    -0.275 OA
ATOM     10  N   UNL     1       0.228  -0.165  -2.456  0.00  0.00    -0.311 N 
ATOM     11  H   UNL     1      -0.569   0.382  -2.534  0.00  0.00    +0.149 HD
BRANCH  10  12
ATOM     12  C   UNL     1       0.912  -0.638  -3.662  0.00  0.00    +0.139 C 
BRANCH  12  13
ATOM     13  C   UNL     1       0.182  -0.140  -4.882  0.00  0.00    -0.030 A 
ATOM     14  C   UNL     1      -0.835  -0.896  -5.435  0.00  0.00    +0.009 A 
ATOM     15  C   UNL     1      -1.505  -0.441  -6.554  0.00  0.00    +0.046 A 
ATOM     16  C   UNL     1      -1.158   0.776  -7.122  0.00  0.00    +0.120 A 
ATOM     17  C   UNL     1      -0.138   1.533  -6.565  0.00  0.00    +0.046 A 
ATOM     18  C   UNL     1       0.526   1.076  -5.443  0.00  0.00    +0.009 A 
BRANCH  16  19
ATOM     19  O   UNL     1      -1.816   1.226  -8.223  0.00  0.00    -0.495 OA
ATOM     20  C   UNL     1      -1.405   2.487  -8.755  0.00  0.00    +0.277 C 
ENDBRANCH  16  19
ENDBRANCH  12  13
ENDBRANCH  10  12
ENDBRANCH   2   8
BRANCH   6  21
ATOM     21  S   UNL     1       0.691   0.696   3.675  0.00  0.00    +0.061 S 
ATOM     22  O   UNL     1       1.802   1.381   3.113  0.00  0.00    -0.153 OA
ATOM     23  O   UNL     1      -0.351   1.372   4.366  0.00  0.00    -0.153 OA
BRANCH  21  24
ATOM     24  C   UNL     1       1.348  -0.494   4.796  0.00  0.00    +0.105 A 
ATOM     25  C   UNL     1       0.569  -0.970   5.835  0.00  0.00    +0.029 A 
ATOM     26  C   UNL     1       1.084  -1.904   6.714  0.00  0.00    +0.006 A 
ATOM     27  C   UNL     1       2.378  -2.362   6.554  0.00  0.00    -0.042 A 
ATOM     28  C   UNL     1       3.157  -1.888   5.515  0.00  0.00    +0.006 A 
ATOM     29  C   UNL     1       2.640  -0.957   4.634  0.00  0.00    +0.029 A 
BRANCH  27  30
ATOM     30  C   UNL     1       2.941  -3.380   7.513  0.00  0.00    -0.013 C 
ATOM     31  C   UNL     1       2.090  -4.650   7.466  0.00  0.00    +0.015 C 
ATOM     32  C   UNL     1       4.380  -3.715   7.116  0.00  0.00    +0.015 C 
ATOM     33  C   UNL     1       2.924  -2.807   8.932  0.00  0.00    +0.015 C 
ENDBRANCH  27  30
ENDBRANCH  21  24
ENDBRANCH   6  21
TORSDOF 7
