REMARK  Name = ZINC40985686
REMARK  13 active torsions:
REMARK  status: ('A' for Active; 'I' for Inactive)
REMARK    1  A    between atoms: C_1  and  C_2
REMARK    2  A    between atoms: C_2  and  C_3
REMARK    3  A    between atoms: C_3  and  C_4
REMARK    4  A    between atoms: C_4  and  S_5
REMARK    5  A    between atoms: S_5  and  C_6
REMARK    6  A    between atoms: C_9  and  C_13
REMARK    7  A    between atoms: N_15  and  C_16
REMARK    8  A    between atoms: C_16  and  C_17
REMARK    9  A    between atoms: C_17  and  C_19
REMARK   10  A    between atoms: C_17  and  N_28
REMARK   11  A    between atoms: C_22  and  C_25
REMARK   12  A    between atoms: C_25  and  C_26
REMARK   13  A    between atoms: C_25  and  C_27
REMARK                            x       y       z     vdW  Elec       q    Type
REMARK                         _______ _______ _______ _____ _____    ______ ____
ROOT
ATOM      1  C   UNL     1       0.680 -10.700  -1.202  0.00  0.00    +0.094 C 
ENDROOT
BRANCH   1   4
ATOM      2  C   UNL     1       2.865 -11.061  -2.219  0.00  0.00    +0.248 C 
ATOM      3  O   UNL     1       2.425 -10.603  -3.256  0.00  0.00    -0.270 OA
ATOM      4  N   UNL     1       2.072 -11.152  -1.133  0.00  0.00    -0.312 N 
ATOM      5  H   UNL     1       2.422 -11.518  -0.306  0.00  0.00    +0.149 HD
BRANCH   2   9
ATOM      6  C   UNL     1       6.814 -12.348  -2.024  0.00  0.00    +0.190 A 
ATOM      7  N   UNL     1       6.048 -12.446  -0.943  0.00  0.00    -0.229 NA
ATOM      8  C   UNL     1       4.791 -12.048  -0.964  0.00  0.00    +0.129 A 
ATOM      9  C   UNL     1       4.265 -11.517  -2.150  0.00  0.00    +0.092 A 
ATOM     10  C   UNL     1       5.107 -11.431  -3.269  0.00  0.00    +0.146 A 
ATOM     11  N   UNL     1       6.357 -11.846  -3.164  0.00  0.00    -0.209 NA
ATOM     12 CL   UNL     1       4.517 -10.783  -4.768  0.00  0.00    -0.061 Cl
BRANCH   6  13
ATOM     13  S   UNL     1       8.487 -12.894  -1.939  0.00  0.00    -0.086 S 
BRANCH  13  14
ATOM     14  C   UNL     1       8.669 -13.488  -0.235  0.00  0.00    +0.077 C 
BRANCH  14  15
ATOM     15  C   UNL     1      10.096 -13.998  -0.022  0.00  0.00    +0.011 C 
BRANCH  15  17
ATOM     16  C   UNL     1      11.676 -15.009   1.628  0.00  0.00    +0.004 C 
ATOM     17  C   UNL     1      10.249 -14.499   1.415  0.00  0.00    -0.003 C 
ENDBRANCH  15  17
ENDBRANCH  14  15
ENDBRANCH  13  14
ENDBRANCH   6  13
ENDBRANCH   2   9
ENDBRANCH   1   4
BRANCH   1  18
ATOM     18  C   UNL     1      -0.030 -11.032   0.111  0.00  0.00    -0.020 C 
BRANCH  18  19
ATOM     19  N   UNL     1      -1.398 -10.497   0.077  0.00  0.00    +0.385 N 
ATOM     20  C   UNL     1      -1.347  -9.035  -0.047  0.00  0.00    -0.078 C 
ATOM     21  C   UNL     1      -2.768  -8.480  -0.164  0.00  0.00    -0.019 C 
ATOM     22  C   UNL     1      -3.564  -8.860   1.088  0.00  0.00    -0.004 C 
ATOM     23  C   UNL     1      -3.547 -10.383   1.248  0.00  0.00    -0.019 C 
ATOM     24  C   UNL     1      -2.097 -10.868   1.313  0.00  0.00    -0.078 C 
ATOM     25  H   UNL     1      -1.889 -10.883  -0.715  0.00  0.00    -0.081 HD
ENDBRANCH  18  19
BRANCH  18  26
ATOM     26  C   UNL     1      -0.080 -12.527   0.291  0.00  0.00    -0.059 A 
ATOM     27  C   UNL     1      -1.032 -13.273  -0.379  0.00  0.00    +0.002 A 
ATOM     28  C   UNL     1      -1.078 -14.644  -0.214  0.00  0.00    +0.004 A 
ATOM     29  C   UNL     1      -0.171 -15.271   0.621  0.00  0.00    -0.045 A 
ATOM     30  C   UNL     1       0.782 -14.525   1.289  0.00  0.00    +0.004 A 
ATOM     31  C   UNL     1       0.831 -13.154   1.121  0.00  0.00    +0.002 A 
BRANCH  29  32
ATOM     32  C   UNL     1      -0.221 -16.766   0.801  0.00  0.00    +0.013 C 
ATOM     33  C   UNL     1       1.107 -17.379   0.354  0.00  0.00    +0.012 C 
ATOM     34  C   UNL     1      -0.463 -17.094   2.276  0.00  0.00    +0.012 C 
ENDBRANCH  29  32
ENDBRANCH  18  26
ENDBRANCH   1  18
TORSDOF 10
