REMARK  Name = ZINC64580241
REMARK  11 active torsions:
REMARK  status: ('A' for Active; 'I' for Inactive)
REMARK    1  A    between atoms: C_1  and  O_2
REMARK    2  A    between atoms: O_2  and  C_3
REMARK    3  A    between atoms: C_6  and  C_9
REMARK    4  A    between atoms: C_9  and  N_10
REMARK    5  A    between atoms: C_15  and  S_22
REMARK    6  A    between atoms: S_22  and  C_23
REMARK    7  A    between atoms: C_23  and  C_24
REMARK    8  A    between atoms: N_26  and  C_27
REMARK    9  A    between atoms: C_32  and  C_34
REMARK   10  A    between atoms: C_34  and  O_36
REMARK   11  A    between atoms: O_36  and  C_37
REMARK                            x       y       z     vdW  Elec       q    Type
REMARK                         _______ _______ _______ _____ _____    ______ ____
ROOT
ATOM      1  N   UNL     1      -5.971  -3.095  -0.441  0.00  0.00    -0.297 NA
ATOM      2  C   UNL     1      -6.242  -1.772  -1.014  0.00  0.00    +0.090 C 
ATOM      3  C   UNL     1      -6.374  -1.883  -2.538  0.00  0.00    +0.067 C 
ATOM      4  C   UNL     1      -7.414  -2.943  -2.833  0.00  0.00    +0.036 C 
ATOM      5  N   UNL     1      -8.386  -2.705  -3.641  0.00  0.00    -0.232 NA
ATOM      6  C   UNL     1      -9.358  -3.614  -3.889  0.00  0.00    +0.181 C 
ATOM      7  N   UNL     1      -9.401  -4.779  -3.265  0.00  0.00    -0.155 NA
ATOM      8  C   UNL     1      -8.456  -5.146  -2.409  0.00  0.00    +0.248 C 
ATOM      9  O   UNL     1      -8.557  -6.210  -1.830  0.00  0.00    -0.273 OA
ATOM     10  C   UNL     1      -7.266  -4.276  -2.142  0.00  0.00    +0.135 C 
ATOM     11  C   UNL     1      -7.093  -4.023  -0.643  0.00  0.00    +0.103 C 
ENDROOT
BRANCH   1  12
ATOM     12  C   UNL     1      -5.623  -2.991   0.983  0.00  0.00    +0.119 C 
BRANCH  12  16
ATOM     13  C   UNL     1      -1.952  -0.845   1.400  0.00  0.00    +0.120 A 
ATOM     14  C   UNL     1      -3.160  -0.163   1.407  0.00  0.00    +0.046 A 
ATOM     15  C   UNL     1      -4.345  -0.859   1.271  0.00  0.00    +0.008 A 
ATOM     16  C   UNL     1      -4.329  -2.235   1.130  0.00  0.00    -0.033 A 
ATOM     17  C   UNL     1      -3.126  -2.917   1.123  0.00  0.00    +0.008 A 
ATOM     18  C   UNL     1      -1.937  -2.224   1.252  0.00  0.00    +0.046 A 
BRANCH  13  20
ATOM     19  C   UNL     1      -0.875   1.256   1.681  0.00  0.00    +0.277 C 
ATOM     20  O   UNL     1      -0.784  -0.162   1.532  0.00  0.00    -0.495 OA
ENDBRANCH  13  20
ENDBRANCH  12  16
ENDBRANCH   1  12
BRANCH   6  21
ATOM     21  S   UNL     1     -10.603  -3.232  -5.077  0.00  0.00    -0.079 S 
BRANCH  21  22
ATOM     22  C   UNL     1     -11.668  -4.700  -5.082  0.00  0.00    +0.172 C 
BRANCH  22  23
ATOM     23  C   UNL     1     -12.790  -4.503  -6.069  0.00  0.00    +0.224 C 
ATOM     24  O   UNL     1     -12.863  -3.474  -6.706  0.00  0.00    -0.275 OA
ATOM     25  N   UNL     1     -13.711  -5.471  -6.244  0.00  0.00    -0.307 N 
ATOM     26  H   UNL     1     -13.653  -6.295  -5.734  0.00  0.00    +0.149 HD
BRANCH  25  27
ATOM     27  C   UNL     1     -14.802  -5.280  -7.204  0.00  0.00    +0.121 C 
ATOM     28  C   UNL     1     -15.933  -4.572  -6.529  0.00  0.00    +0.003 C 
ATOM     29  C   UNL     1     -16.993  -5.253  -6.139  0.00  0.00    +0.039 C 
ATOM     30  S   UNL     1     -16.688  -6.946  -6.611  0.00  0.00    -0.116 S 
ATOM     31  C   UNL     1     -15.261  -6.662  -7.738  0.00  0.00    +0.183 C 
BRANCH  31  32
ATOM     32  C   UNL     1     -14.194  -7.710  -7.550  0.00  0.00    +0.322 C 
ATOM     33  O   UNL     1     -13.314  -7.830  -8.370  0.00  0.00    -0.250 OA
BRANCH  32  34
ATOM     34  O   UNL     1     -14.220  -8.508  -6.471  0.00  0.00    -0.467 OA
ATOM     35  C   UNL     1     -13.177  -9.479  -6.357  0.00  0.00    +0.280 C 
ENDBRANCH  32  34
ENDBRANCH  31  32
ENDBRANCH  25  27
ENDBRANCH  22  23
ENDBRANCH  21  22
ENDBRANCH   6  21
TORSDOF 9
