REMARK  Name = ZINC39351024
REMARK  6 active torsions:
REMARK  status: ('A' for Active; 'I' for Inactive)
REMARK    1  A    between atoms: C_6  and  C_10
REMARK    2  A    between atoms: C_10  and  C_29
REMARK    3  A    between atoms: C_11  and  C_12
REMARK    4  A    between atoms: C_15  and  O_19
REMARK    5  A    between atoms: O_19  and  C_20
REMARK    6  A    between atoms: C_20  and  C_21
REMARK                            x       y       z     vdW  Elec       q    Type
REMARK                         _______ _______ _______ _____ _____    ______ ____
ROOT
ATOM      1  C   UNL     1       4.701  -4.669  -2.356  0.00  0.00    -0.023 A 
ATOM      2  C   UNL     1       4.376  -4.224  -3.642  0.00  0.00    +0.011 A 
ATOM      3  C   UNL     1       4.753  -4.965  -4.740  0.00  0.00    +0.047 A 
ATOM      4  C   UNL     1       5.455  -6.153  -4.573  0.00  0.00    +0.135 A 
ATOM      5  C   UNL     1       5.780  -6.600  -3.297  0.00  0.00    +0.060 A 
ATOM      6  C   UNL     1       5.413  -5.862  -2.192  0.00  0.00    +0.027 A 
ATOM      7 BR   UNL     1       6.734  -8.218  -3.078  0.00  0.00    -0.046 Br
ENDROOT
BRANCH   1   9
ATOM      8  C   UNL     1       3.114  -3.240  -1.169  0.00  0.00    +0.072 C 
ATOM      9  C   UNL     1       4.301  -3.881  -1.180  0.00  0.00    +0.026 C 
BRANCH   8  15
ATOM     10  C   UNL     1      -1.371  -0.432   0.632  0.00  0.00    +0.002 A 
ATOM     11  C   UNL     1      -0.768   0.628  -0.068  0.00  0.00    +0.002 A 
ATOM     12  C   UNL     1       0.504   0.576  -0.510  0.00  0.00    +0.027 A 
ATOM     13  C   UNL     1       1.310  -0.627  -0.261  0.00  0.00    +0.060 A 
ATOM     14  N   UNL     1       2.534  -0.951  -0.564  0.00  0.00    -0.359 N 
ATOM     15  C   UNL     1       2.775  -2.301  -0.041  0.00  0.00    +0.216 C 
ATOM     16  N   UNL     1       1.526  -2.723   0.608  0.00  0.00    -0.359 N 
ATOM     17  C   UNL     1       0.672  -1.749   0.480  0.00  0.00    +0.060 A 
ATOM     18  C   UNL     1      -0.722  -1.580   0.913  0.00  0.00    +0.027 A 
ATOM     19  H   UNL     1       3.170  -0.400  -1.046  0.00  0.00    +0.162 HD
ATOM     20  H   UNL     1       1.367  -3.572   1.049  0.00  0.00    +0.162 HD
ENDBRANCH   8  15
BRANCH   8  21
ATOM     21  C   UNL     1       2.176  -3.452  -2.231  0.00  0.00    +0.099 C 
ATOM     22  N   UNL     1       1.433  -3.620  -3.073  0.00  0.00    -0.191 NA
ENDBRANCH   8  21
ENDBRANCH   1   9
BRANCH   4  23
ATOM     23  O   UNL     1       5.823  -6.880  -5.659  0.00  0.00    -0.486 OA
BRANCH  23  24
ATOM     24  C   UNL     1       5.456  -6.364  -6.940  0.00  0.00    +0.266 C 
BRANCH  24  25
ATOM     25  C   UNL     1       5.946  -7.297  -8.017  0.00  0.00    +0.008 A 
ATOM     26  C   UNL     1       6.629  -8.449  -7.674  0.00  0.00    +0.010 A 
ATOM     27  C   UNL     1       7.079  -9.306  -8.661  0.00  0.00    +0.020 A 
ATOM     28  C   UNL     1       6.845  -9.011  -9.993  0.00  0.00    +0.042 A 
ATOM     29  C   UNL     1       6.161  -7.859 -10.336  0.00  0.00    +0.040 A 
ATOM     30  C   UNL     1       5.707  -7.004  -9.347  0.00  0.00    +0.049 A 
ATOM     31 CL   UNL     1       4.844  -5.561  -9.777  0.00  0.00    -0.083 Cl
ATOM     32 CL   UNL     1       7.410 -10.088 -11.232  0.00  0.00    -0.083 Cl
ENDBRANCH  24  25
ENDBRANCH  23  24
ENDBRANCH   4  23
TORSDOF 6
