REMARK  Name = ZINC12817062
REMARK  11 active torsions:
REMARK  status: ('A' for Active; 'I' for Inactive)
REMARK    1  A    between atoms: C_1  and  C_2
REMARK    2  A    between atoms: N_4  and  C_5
REMARK    3  A    between atoms: C_5  and  C_7
REMARK    4  A    between atoms: C_5  and  C_18
REMARK    5  A    between atoms: C_7  and  C_8
REMARK    6  A    between atoms: N_20  and  C_21
REMARK    7  A    between atoms: C_21  and  C_22
REMARK    8  A    between atoms: C_22  and  C_24
REMARK    9  A    between atoms: C_22  and  N_57
REMARK   10  A    between atoms: C_31  and  N_57
REMARK   11  A    between atoms: C_32  and  N_57
REMARK                            x       y       z     vdW  Elec       q    Type
REMARK                         _______ _______ _______ _____ _____    ______ ____
ROOT
ATOM      1  C   UNL     1       4.441   2.062   1.058  0.00  0.00    +0.163 C 
ENDROOT
BRANCH   1   5
ATOM      2  C   UNL     1       7.647   2.685   3.053  0.00  0.00    +0.109 C 
ATOM      3  C   UNL     1       6.248   2.814   2.508  0.00  0.00    +0.211 C 
ATOM      4  O   UNL     1       5.525   3.705   2.899  0.00  0.00    -0.276 OA
ATOM      5  N   UNL     1       5.801   1.937   1.587  0.00  0.00    -0.304 N 
ATOM      6  H   UNL     1       6.379   1.224   1.275  0.00  0.00    +0.149 HD
ENDBRANCH   1   5
BRANCH   1   7
ATOM      7  C   UNL     1       3.449   1.942   2.186  0.00  0.00    +0.234 C 
ATOM      8  O   UNL     1       3.806   2.132   3.330  0.00  0.00    -0.274 OA
ATOM      9  N   UNL     1       2.166   1.623   1.925  0.00  0.00    -0.315 N 
ATOM     10  H   UNL     1       1.881   1.471   1.011  0.00  0.00    +0.149 HD
BRANCH   9  11
ATOM     11  C   UNL     1       1.202   1.506   3.022  0.00  0.00    +0.093 C 
BRANCH  11  12
ATOM     12  C   UNL     1      -0.201   1.298   2.449  0.00  0.00    -0.020 C 
BRANCH  12  13
ATOM     13  C   UNL     1      -1.154   0.953   3.564  0.00  0.00    -0.041 A 
ATOM     14  C   UNL     1      -2.008   1.916   4.067  0.00  0.00    +0.003 A 
ATOM     15  C   UNL     1      -2.881   1.600   5.090  0.00  0.00    +0.000 A 
ATOM     16  C   UNL     1      -2.902   0.319   5.611  0.00  0.00    +0.001 A 
ATOM     17  C   UNL     1      -2.049  -0.645   5.109  0.00  0.00    +0.020 A 
ATOM     18  C   UNL     1      -1.177  -0.330   4.081  0.00  0.00    +0.043 A 
ATOM     19 CL   UNL     1      -0.110  -1.542   3.445  0.00  0.00    -0.083 Cl
ENDBRANCH  12  13
BRANCH  12  22
ATOM     20  C   UNL     1      -0.228   2.557   0.380  0.00  0.00    -0.096 C 
ATOM     21  C   UNL     1      -0.160   3.719   2.503  0.00  0.00    -0.096 C 
ATOM     22  N   UNL     1      -0.676   2.533   1.788  0.00  0.00    +0.382 N 
ATOM     23  H   UNL     1      -1.703   2.549   1.812  0.00  0.00    -0.082 HD
ENDBRANCH  12  22
ENDBRANCH  11  12
ENDBRANCH   9  11
ENDBRANCH   1   7
BRANCH   1  24
ATOM     24  C   UNL     1       4.280   3.424   0.380  0.00  0.00    +0.069 C 
BRANCH  24  25
ATOM     25  C   UNL     1       5.184   3.497  -0.823  0.00  0.00    -0.020 A 
ATOM     26  C   UNL     1       6.417   4.026  -0.864  0.00  0.00    +0.087 A 
ATOM     27  N   UNL     1       6.933   3.910  -2.126  0.00  0.00    -0.360 N 
ATOM     28  H   UNL     1       7.811   4.219  -2.400  0.00  0.00    +0.165 HD
ATOM     29  C   UNL     1       6.018   3.294  -2.951  0.00  0.00    +0.047 A 
ATOM     30  C   UNL     1       4.883   3.009  -2.171  0.00  0.00    +0.003 A 
ATOM     31  C   UNL     1       3.781   2.377  -2.749  0.00  0.00    +0.010 A 
ATOM     32  C   UNL     1       3.811   2.038  -4.073  0.00  0.00    +0.001 A 
ATOM     33  C   UNL     1       4.928   2.318  -4.847  0.00  0.00    +0.002 A 
ATOM     34  C   UNL     1       6.027   2.941  -4.296  0.00  0.00    +0.026 A 
ENDBRANCH  24  25
ENDBRANCH   1  24
TORSDOF 8
