REMARK  Name = ZINC44900767
REMARK  9 active torsions:
REMARK  status: ('A' for Active; 'I' for Inactive)
REMARK    1  A    between atoms: C_1  and  C_2
REMARK    2  A    between atoms: C_2  and  C_3
REMARK    3  A    between atoms: C_2  and  C_4
REMARK    4  A    between atoms: C_4  and  C_5
REMARK    5  A    between atoms: C_5  and  C_7
REMARK    6  A    between atoms: C_5  and  N_13
REMARK    7  A    between atoms: N_13  and  S_14
REMARK    8  A    between atoms: S_14  and  C_17
REMARK    9  A    between atoms: C_17  and  C_18
REMARK                            x       y       z     vdW  Elec       q    Type
REMARK                         _______ _______ _______ _____ _____    ______ ____
ROOT
ATOM      1  N   UNL     1      -0.653  -2.592   1.011  0.00  0.00    -0.187 NA
ATOM      2  H   UNL     1      -0.935  -2.258   1.877  0.00  0.00    +0.148 HD
ENDROOT
BRANCH   1   3
ATOM      3  S   UNL     1       0.330  -3.921   0.916  0.00  0.00    +0.034 S 
ATOM      4  O   UNL     1       0.555  -4.303   2.266  0.00  0.00    -0.158 OA
ATOM      5  O   UNL     1      -0.333  -4.799   0.016  0.00  0.00    -0.158 OA
BRANCH   3   6
ATOM      6  C   UNL     1       1.868  -3.311   0.174  0.00  0.00    +0.220 C 
BRANCH   6   7
ATOM      7  C   UNL     1       2.802  -4.469  -0.069  0.00  0.00    -0.025 A 
ATOM      8  C   UNL     1       3.694  -4.855   0.913  0.00  0.00    +0.006 A 
ATOM      9  C   UNL     1       4.551  -5.917   0.691  0.00  0.00    +0.015 A 
ATOM     10  C   UNL     1       4.515  -6.593  -0.516  0.00  0.00    +0.018 A 
ATOM     11  C   UNL     1       3.622  -6.206  -1.499  0.00  0.00    +0.015 A 
ATOM     12  C   UNL     1       2.762  -5.147  -1.273  0.00  0.00    +0.006 A 
ATOM     13 BR   UNL     1       5.686  -8.046  -0.821  0.00  0.00    -0.050 Br
ENDBRANCH   6   7
ENDBRANCH   3   6
ENDBRANCH   1   3
BRANCH   1  14
ATOM     14  C   UNL     1      -1.097  -1.920  -0.213  0.00  0.00    +0.106 C 
BRANCH  14  15
ATOM     15  C   UNL     1      -2.461  -2.430  -0.600  0.00  0.00    -0.029 A 
ATOM     16  C   UNL     1      -3.415  -2.660   0.374  0.00  0.00    +0.005 A 
ATOM     17  C   UNL     1      -4.666  -3.128   0.020  0.00  0.00    +0.000 A 
ATOM     18  C   UNL     1      -4.965  -3.365  -1.309  0.00  0.00    +0.000 A 
ATOM     19  C   UNL     1      -4.011  -3.133  -2.283  0.00  0.00    +0.000 A 
ATOM     20  C   UNL     1      -2.761  -2.662  -1.929  0.00  0.00    +0.005 A 
ENDBRANCH  14  15
BRANCH  14  21
ATOM     21  C   UNL     1      -1.166  -0.411   0.030  0.00  0.00    +0.028 C 
BRANCH  21  23
ATOM     22  C   UNL     1      -1.700   1.795  -1.015  0.00  0.00    +0.007 C 
ATOM     23  C   UNL     1      -1.492   0.303  -1.283  0.00  0.00    -0.015 C 
ATOM     24  C   UNL     1      -0.333   0.118  -2.265  0.00  0.00    +0.007 C 
ENDBRANCH  21  23
ENDBRANCH  14  21
ENDBRANCH   1  14
TORSDOF 7
