REMARK  Name = ZINC66780210
REMARK  8 active torsions:
REMARK  status: ('A' for Active; 'I' for Inactive)
REMARK    1  A    between atoms: C_1  and  C_2
REMARK    2  A    between atoms: C_3  and  C_12
REMARK    3  A    between atoms: C_5  and  C_7
REMARK    4  A    between atoms: C_12  and  O_13
REMARK    5  A    between atoms: O_13  and  C_14
REMARK    6  A    between atoms: C_17  and  S_23
REMARK    7  A    between atoms: C_19  and  N_20
REMARK    8  A    between atoms: S_23  and  N_26
REMARK                            x       y       z     vdW  Elec       q    Type
REMARK                         _______ _______ _______ _____ _____    ______ ____
ROOT
ATOM      1  C   UNL     1      -4.265   0.158  -1.503  0.00  0.00    +0.151 A 
ATOM      2  C   UNL     1      -5.068   0.402  -0.399  0.00  0.00    +0.050 A 
ATOM      3  C   UNL     1      -6.379   0.800  -0.574  0.00  0.00    +0.032 A 
ATOM      4  C   UNL     1      -6.891   0.955  -1.849  0.00  0.00    +0.107 A 
ATOM      5  C   UNL     1      -6.093   0.711  -2.951  0.00  0.00    +0.065 A 
ATOM      6  C   UNL     1      -4.780   0.318  -2.781  0.00  0.00    +0.169 A 
ENDROOT
BRANCH   6   7
ATOM      7  N   UNL     1      -3.924   0.064  -3.962  0.00  0.00    +0.060 N 
ATOM      8  O   UNL     1      -4.373   0.204  -5.075  0.00  0.00    -0.126 OA
ATOM      9  O   UNL     1      -2.776  -0.285  -3.812  0.00  0.00    -0.126 OA
ENDBRANCH   6   7
BRANCH   4  10
ATOM     10  S   UNL     1      -8.564   1.462  -2.070  0.00  0.00    +0.056 S 
ATOM     11  O   UNL     1      -8.961   1.006  -3.356  0.00  0.00    -0.153 OA
ATOM     12  O   UNL     1      -9.259   1.098  -0.885  0.00  0.00    -0.153 OA
BRANCH  10  13
ATOM     13  N   UNL     1      -8.569   3.117  -2.132  0.00  0.00    -0.204 NA
ATOM     14  H   UNL     1      -9.243   3.581  -2.654  0.00  0.00    +0.144 HD
ATOM     15  H   UNL     1      -7.899   3.623  -1.647  0.00  0.00    +0.144 HD
ENDBRANCH  10  13
ENDBRANCH   4  10
BRANCH   1  16
ATOM     16  O   UNL     1      -2.975  -0.234  -1.333  0.00  0.00    -0.483 OA
BRANCH  16  17
ATOM     17  C   UNL     1      -2.513  -0.379   0.011  0.00  0.00    +0.288 C 
BRANCH  17  20
ATOM     18  C   UNL     1      -0.018   1.503   0.010  0.00  0.00    +0.088 C 
ATOM     19  C   UNL     1       0.002  -0.004   0.002  0.00  0.00    +0.129 A 
ATOM     20  C   UNL     1      -1.070  -0.815   0.003  0.00  0.00    +0.120 A 
ATOM     21  N   UNL     1      -0.628  -2.083  -0.006  0.00  0.00    -0.210 NA
ATOM     22  C   UNL     1       0.687  -2.069  -0.012  0.00  0.00    +0.234 A 
ATOM     23  O   UNL     1       1.099  -0.788  -0.013  0.00  0.00    -0.440 OA
BRANCH  22  24
ATOM     24  C   UNL     1       1.558  -3.253  -0.023  0.00  0.00    +0.074 A 
ATOM     25  C   UNL     1       2.939  -3.318  -0.024  0.00  0.00    +0.021 A 
ATOM     26  C   UNL     1       3.535  -4.558  -0.035  0.00  0.00    +0.008 A 
ATOM     27  C   UNL     1       2.756  -5.671  -0.044  0.00  0.00    +0.046 A 
ATOM     28  S   UNL     1       1.110  -4.981  -0.029  0.00  0.00    -0.092 S 
ENDBRANCH  22  24
ENDBRANCH  17  20
ENDBRANCH  16  17
ENDBRANCH   1  16
TORSDOF 7
