REMARK  Name = ZINC67291769
REMARK  8 active torsions:
REMARK  status: ('A' for Active; 'I' for Inactive)
REMARK    1  A    between atoms: C_1  and  C_2
REMARK    2  A    between atoms: C_2  and  C_3
REMARK    3  A    between atoms: C_3  and  N_4
REMARK    4  A    between atoms: C_12  and  S_14
REMARK    5  A    between atoms: S_14  and  C_15
REMARK    6  A    between atoms: C_15  and  C_16
REMARK    7  A    between atoms: N_18  and  C_19
REMARK    8  A    between atoms: C_22  and  C_26
REMARK                            x       y       z     vdW  Elec       q    Type
REMARK                         _______ _______ _______ _____ _____    ______ ____
ROOT
ATOM      1  N   UNL     1       0.762  -1.980  -1.193  0.00  0.00    +0.383 N 
ATOM      2  C   UNL     1       1.545  -2.449  -2.346  0.00  0.00    -0.072 C 
ATOM      3  C   UNL     1       1.807  -3.947  -2.185  0.00  0.00    +0.037 C 
ATOM      4  C   UNL     1       0.512  -4.661  -1.902  0.00  0.00    +0.049 A 
ATOM      5  C   UNL     1      -0.610  -3.976  -1.491  0.00  0.00    +0.024 A 
ATOM      6  C   UNL     1      -1.779  -4.698  -1.241  0.00  0.00    +0.276 A 
ATOM      7  O   UNL     1      -2.904  -4.063  -0.833  0.00  0.00    -0.266 OA
ATOM      8  N   UNL     1      -1.773  -6.014  -1.410  0.00  0.00    -0.183 NA
ATOM      9  C   UNL     1      -0.674  -6.638  -1.809  0.00  0.00    +0.192 A 
ATOM     10  N   UNL     1       0.449  -5.978  -2.052  0.00  0.00    -0.227 NA
ATOM     11  C   UNL     1      -0.610  -2.484  -1.309  0.00  0.00    -0.036 C 
ATOM     12  H   UNL     1       1.177  -2.324  -0.340  0.00  0.00    -0.081 HD
ENDROOT
BRANCH   1  13
ATOM     13  C   UNL     1       0.746  -0.511  -1.174  0.00  0.00    -0.079 C 
BRANCH  13  15
ATOM     14  C   UNL     1       0.013   1.504   0.106  0.00  0.00    +0.002 C 
ATOM     15  C   UNL     1       0.029  -0.025   0.087  0.00  0.00    -0.022 C 
ENDBRANCH  13  15
ENDBRANCH   1  13
BRANCH   9  16
ATOM     16  S   UNL     1      -0.707  -8.386  -2.023  0.00  0.00    -0.077 S 
BRANCH  16  17
ATOM     17  C   UNL     1      -2.406  -8.850  -1.587  0.00  0.00    +0.173 C 
BRANCH  17  18
ATOM     18  C   UNL     1      -2.572 -10.341  -1.729  0.00  0.00    +0.228 C 
ATOM     19  O   UNL     1      -1.637 -11.024  -2.089  0.00  0.00    -0.275 OA
ATOM     20  N   UNL     1      -3.761 -10.915  -1.457  0.00  0.00    -0.284 N 
ATOM     21  H   UNL     1      -4.490 -10.379  -1.107  0.00  0.00    +0.155 HD
BRANCH  20  22
ATOM     22  C   UNL     1      -3.943 -12.285  -1.678  0.00  0.00    +0.052 A 
ATOM     23  C   UNL     1      -2.892 -13.169  -1.471  0.00  0.00    +0.025 A 
ATOM     24  C   UNL     1      -3.075 -14.521  -1.690  0.00  0.00    +0.005 A 
ATOM     25  C   UNL     1      -4.303 -14.995  -2.115  0.00  0.00    -0.049 A 
ATOM     26  C   UNL     1      -5.352 -14.118  -2.322  0.00  0.00    +0.025 A 
ATOM     27  C   UNL     1      -5.177 -12.765  -2.099  0.00  0.00    +0.062 A 
ATOM     28 CL   UNL     1      -6.496 -11.665  -2.353  0.00  0.00    -0.082 Cl
ATOM     29  C   UNL     1      -4.498 -16.470  -2.353  0.00  0.00    +0.044 C 
ENDBRANCH  20  22
ENDBRANCH  17  18
ENDBRANCH  16  17
ENDBRANCH   9  16
TORSDOF 6
