REMARK  Name = ZINC36071366
REMARK  11 active torsions:
REMARK  status: ('A' for Active; 'I' for Inactive)
REMARK    1  A    between atoms: C_1  and  C_2
REMARK    2  A    between atoms: C_6  and  C_25
REMARK    3  A    between atoms: C_8  and  O_11
REMARK    4  A    between atoms: O_11  and  C_12
REMARK    5  A    between atoms: C_12  and  C_14
REMARK    6  A    between atoms: C_14  and  C_16
REMARK    7  A    between atoms: C_14  and  O_17
REMARK    8  A    between atoms: O_17  and  C_18
REMARK    9  A    between atoms: C_23  and  N_24
REMARK   10  A    between atoms: C_25  and  C_26
REMARK   11  A    between atoms: C_25  and  C_27
REMARK                            x       y       z     vdW  Elec       q    Type
REMARK                         _______ _______ _______ _____ _____    ______ ____
ROOT
ATOM      1  C   UNL     1       3.429   0.518   3.536  0.00  0.00    +0.348 C 
ATOM      2  O   UNL     1       2.785   1.535   3.639  0.00  0.00    -0.247 OA
ENDROOT
BRANCH   1   3
ATOM      3  C   UNL     1       4.402   0.130   4.620  0.00  0.00    +0.278 C 
ATOM      4  C   UNL     1       5.826   0.158   4.060  0.00  0.00    +0.064 C 
BRANCH   3   5
ATOM      5  O   UNL     1       4.299   1.054   5.705  0.00  0.00    -0.476 OA
BRANCH   5   6
ATOM      6  C   UNL     1       4.678   0.608   6.933  0.00  0.00    +0.142 A 
ATOM      7  C   UNL     1       5.245  -0.649   7.071  0.00  0.00    +0.047 A 
ATOM      8  C   UNL     1       5.628  -1.101   8.320  0.00  0.00    +0.004 A 
ATOM      9  C   UNL     1       5.448  -0.302   9.435  0.00  0.00    +0.002 A 
ATOM     10  C   UNL     1       4.884   0.953   9.305  0.00  0.00    +0.026 A 
ATOM     11  C   UNL     1       4.501   1.415   8.055  0.00  0.00    +0.067 A 
BRANCH  11  12
ATOM     12  N   UNL     1       3.935   2.688   7.920  0.00  0.00    -0.355 N 
ATOM     13  H   UNL     1       3.664   3.009   7.046  0.00  0.00    +0.142 HD
ATOM     14  H   UNL     1       3.812   3.249   8.702  0.00  0.00    +0.142 HD
ENDBRANCH  11  12
ENDBRANCH   5   6
ENDBRANCH   3   5
ENDBRANCH   1   3
BRANCH   1  15
ATOM     15  O   UNL     1       3.278  -0.267   2.458  0.00  0.00    -0.458 OA
BRANCH  15  21
ATOM     16  C   UNL     1      -0.121   1.573   0.734  0.00  0.00    +0.007 C 
ATOM     17  C   UNL     1      -0.048   0.044   0.738  0.00  0.00    -0.011 C 
ATOM     18  C   UNL     1       0.400  -0.448  -0.640  0.00  0.00    +0.004 C 
ATOM     19  C   UNL     1       1.779   0.128  -0.965  0.00  0.00    +0.007 C 
ATOM     20  C   UNL     1       2.786  -0.331   0.093  0.00  0.00    +0.032 C 
ATOM     21  C   UNL     1       2.338   0.162   1.470  0.00  0.00    +0.180 C 
ATOM     22  C   UNL     1       0.959  -0.415   1.795  0.00  0.00    +0.048 C 
BRANCH  20  23
ATOM     23  C   UNL     1       4.165   0.245  -0.232  0.00  0.00    -0.011 C 
ATOM     24  C   UNL     1       4.672  -0.354  -1.545  0.00  0.00    +0.007 C 
ATOM     25  C   UNL     1       4.063   1.766  -0.371  0.00  0.00    +0.007 C 
ENDBRANCH  20  23
ENDBRANCH  15  21
ENDBRANCH   1  15
TORSDOF 7
