REMARK  Name = ZINC08073158
REMARK  10 active torsions:
REMARK  status: ('A' for Active; 'I' for Inactive)
REMARK    1  A    between atoms: C_1  and  C_2
REMARK    2  A    between atoms: C_6  and  O_8
REMARK    3  A    between atoms: O_8  and  C_9
REMARK    4  A    between atoms: C_9  and  C_10
REMARK    5  A    between atoms: N_12  and  N_13
REMARK    6  A    between atoms: C_14  and  C_16
REMARK    7  A    between atoms: C_16  and  C_18
REMARK    8  A    between atoms: C_16  and  O_19
REMARK    9  A    between atoms: O_19  and  C_20
REMARK   10  A    between atoms: C_25  and  N_26
REMARK                            x       y       z     vdW  Elec       q    Type
REMARK                         _______ _______ _______ _____ _____    ______ ____
ROOT
ATOM      1  N   UNL     1      -4.895  -2.967  -0.331  0.00  0.00    -0.231 N 
ATOM      2  C   UNL     1      -5.157  -4.278  -0.164  0.00  0.00    +0.270 C 
ATOM      3  O   UNL     1      -4.247  -5.059   0.019  0.00  0.00    -0.270 OA
ATOM      4  H   UNL     1      -5.623  -2.342  -0.477  0.00  0.00    +0.173 HD
ENDROOT
BRANCH   1   7
ATOM      5  C   UNL     1      -3.311  -1.195  -0.463  0.00  0.00    +0.267 C 
ATOM      6  O   UNL     1      -4.220  -0.413  -0.645  0.00  0.00    -0.271 OA
ATOM      7  N   UNL     1      -3.573  -2.506  -0.295  0.00  0.00    -0.231 N 
ATOM      8  H   UNL     1      -2.845  -3.131  -0.149  0.00  0.00    +0.173 HD
BRANCH   5   9
ATOM      9  C   UNL     1      -1.888  -0.699  -0.424  0.00  0.00    +0.326 C 
BRANCH   9  10
ATOM     10  O   UNL     1      -1.871   0.716  -0.625  0.00  0.00    -0.483 OA
BRANCH  10  16
ATOM     11  C   UNL     1       0.770   4.802  -1.010  0.00  0.00    +0.044 C 
ATOM     12  C   UNL     1       0.670   3.313  -0.803  0.00  0.00    -0.047 A 
ATOM     13  C   UNL     1       1.817   2.564  -0.612  0.00  0.00    +0.003 A 
ATOM     14  C   UNL     1       1.730   1.198  -0.422  0.00  0.00    +0.004 A 
ATOM     15  C   UNL     1       0.495   0.577  -0.423  0.00  0.00    +0.045 A 
ATOM     16  C   UNL     1      -0.656   1.325  -0.619  0.00  0.00    +0.121 A 
ATOM     17  C   UNL     1      -0.566   2.697  -0.804  0.00  0.00    +0.049 A 
ENDBRANCH  10  16
ENDBRANCH   9  10
ENDBRANCH   5   9
ENDBRANCH   1   7
BRANCH   2  18
ATOM     18  C   UNL     1      -6.580  -4.774  -0.203  0.00  0.00    +0.257 C 
ATOM     19  C   UNL     1      -7.356  -4.187   0.978  0.00  0.00    +0.062 C 
BRANCH  18  20
ATOM     20  O   UNL     1      -6.590  -6.200  -0.118  0.00  0.00    -0.478 OA
BRANCH  20  21
ATOM     21  C   UNL     1      -7.665  -6.842  -0.645  0.00  0.00    +0.152 A 
ATOM     22  C   UNL     1      -8.742  -6.112  -1.129  0.00  0.00    +0.048 A 
ATOM     23  C   UNL     1      -9.834  -6.767  -1.664  0.00  0.00    +0.004 A 
ATOM     24  C   UNL     1      -9.855  -8.148  -1.719  0.00  0.00    +0.002 A 
ATOM     25  C   UNL     1      -8.784  -8.878  -1.238  0.00  0.00    +0.036 A 
ATOM     26  C   UNL     1      -7.687  -8.227  -0.705  0.00  0.00    +0.168 A 
BRANCH  26  27
ATOM     27  N   UNL     1      -6.538  -9.009  -0.195  0.00  0.00    +0.060 N 
ATOM     28  O   UNL     1      -6.557 -10.226  -0.248  0.00  0.00    -0.126 OA
ATOM     29  O   UNL     1      -5.573  -8.435   0.278  0.00  0.00    -0.126 OA
ENDBRANCH  26  27
ENDBRANCH  20  21
ENDBRANCH  18  20
ENDBRANCH   2  18
TORSDOF 8
