REMARK  Name = ZINC00766523
REMARK  6 active torsions:
REMARK  status: ('A' for Active; 'I' for Inactive)
REMARK    1  A    between atoms: C_1  and  C_2
REMARK    2  A    between atoms: C_3  and  C_18
REMARK    3  A    between atoms: C_4  and  C_10
REMARK    4  A    between atoms: C_18  and  O_20
REMARK    5  A    between atoms: O_20  and  C_21
REMARK    6  A    between atoms: C_21  and  C_22
REMARK                            x       y       z     vdW  Elec       q    Type
REMARK                         _______ _______ _______ _____ _____    ______ ____
ROOT
ATOM      1  C   UNL     1       4.794   1.663   3.016  0.00  0.00    +0.061 C 
ATOM      2  C   UNL     1       4.234   1.614   1.618  0.00  0.00    +0.021 C 
ATOM      3  C   UNL     1       3.146   0.855   1.364  0.00  0.00    +0.078 C 
ATOM      4  C   UNL     1       2.617   0.835  -0.056  0.00  0.00    +0.144 C 
ATOM      5  N   UNL     1       3.337   1.649  -1.049  0.00  0.00    -0.288 N 
ATOM      6  C   UNL     1       4.411   2.356  -0.642  0.00  0.00    +0.304 C 
ATOM      7  O   UNL     1       5.012   3.031  -1.454  0.00  0.00    -0.252 OA
ATOM      8  N   UNL     1       4.836   2.337   0.628  0.00  0.00    -0.273 N 
ATOM      9  H   UNL     1       3.046   1.677  -1.974  0.00  0.00    +0.151 HD
ATOM     10  H   UNL     1       5.615   2.867   0.857  0.00  0.00    +0.156 HD
ENDROOT
BRANCH   4  11
ATOM     11  C   UNL     1       1.184   1.301  -0.024  0.00  0.00    -0.021 A 
ATOM     12  C   UNL     1       0.898   2.652   0.047  0.00  0.00    +0.007 A 
ATOM     13  C   UNL     1      -0.415   3.081   0.077  0.00  0.00    +0.022 A 
ATOM     14  C   UNL     1      -1.445   2.158   0.035  0.00  0.00    +0.059 A 
ATOM     15  C   UNL     1      -1.159   0.805  -0.041  0.00  0.00    +0.060 A 
ATOM     16  C   UNL     1       0.156   0.378  -0.066  0.00  0.00    +0.027 A 
ATOM     17 CL   UNL     1      -2.450  -0.353  -0.101  0.00  0.00    -0.082 Cl
ATOM     18 CL   UNL     1      -3.095   2.696   0.073  0.00  0.00    -0.082 Cl
ENDBRANCH   4  11
BRANCH   3  19
ATOM     19  C   UNL     1       2.522   0.105   2.388  0.00  0.00    +0.339 C 
ATOM     20  O   UNL     1       3.030   0.044   3.492  0.00  0.00    -0.245 OA
BRANCH  19  21
ATOM     21  O   UNL     1       1.365  -0.543   2.140  0.00  0.00    -0.452 OA
BRANCH  21  22
ATOM     22  C   UNL     1       0.791  -1.281   3.221  0.00  0.00    +0.345 C 
BRANCH  22  23
ATOM     23  C   UNL     1      -0.507  -1.942   2.753  0.00  0.00    +0.424 C 
ATOM     24  F   UNL     1      -0.233  -2.809   1.690  0.00  0.00    -0.167 F 
ATOM     25  F   UNL     1      -1.070  -2.665   3.811  0.00  0.00    -0.167 F 
ATOM     26  F   UNL     1      -1.407  -0.957   2.332  0.00  0.00    -0.167 F 
ENDBRANCH  22  23
ENDBRANCH  21  22
ENDBRANCH  19  21
ENDBRANCH   3  19
TORSDOF 5
