REMARK  Name = ZINC37711862
REMARK  8 active torsions:
REMARK  status: ('A' for Active; 'I' for Inactive)
REMARK    1  A    between atoms: C_1  and  N_2
REMARK    2  A    between atoms: N_2  and  C_3
REMARK    3  A    between atoms: C_3  and  C_4
REMARK    4  A    between atoms: C_6  and  O_19
REMARK    5  A    between atoms: C_7  and  O_11
REMARK    6  A    between atoms: O_11  and  C_12
REMARK    7  A    between atoms: C_12  and  C_13
REMARK    8  A    between atoms: O_19  and  C_20
REMARK                            x       y       z     vdW  Elec       q    Type
REMARK                         _______ _______ _______ _____ _____    ______ ____
ROOT
ATOM      1  C   UNL     1      -1.356  -2.019   0.004  0.00  0.00    -0.060 A 
ATOM      2  C   UNL     1      -1.352  -2.703  -1.198  0.00  0.00    +0.051 A 
ATOM      3  C   UNL     1      -1.333  -4.088  -1.208  0.00  0.00    +0.163 A 
ATOM      4  C   UNL     1      -1.318  -4.789  -0.006  0.00  0.00    +0.176 A 
ATOM      5  C   UNL     1      -1.321  -4.099   1.196  0.00  0.00    +0.063 A 
ATOM      6  C   UNL     1      -1.335  -2.715   1.198  0.00  0.00    +0.021 A 
ATOM      7 BR   UNL     1      -1.300  -5.047   2.832  0.00  0.00    -0.046 Br
ENDROOT
BRANCH   3   8
ATOM      8  O   UNL     1      -1.330  -4.761  -2.390  0.00  0.00    -0.491 OA
ATOM      9  C   UNL     1      -1.348  -3.976  -3.583  0.00  0.00    +0.277 C 
ENDBRANCH   3   8
BRANCH   1  10
ATOM     10  C   UNL     1      -1.376  -0.512   0.012  0.00  0.00    -0.047 C 
BRANCH  10  12
ATOM     11  C   UNL     1      -0.018   1.465   0.010  0.00  0.00    -0.100 C 
ATOM     12  N   UNL     1       0.002  -0.004   0.002  0.00  0.00    +0.380 N 
ATOM     13  H   UNL     1       0.474  -0.330  -0.828  0.00  0.00    -0.086 HD
ATOM     14  H   UNL     1       0.490  -0.338   0.820  0.00  0.00    -0.086 HD
ENDBRANCH  10  12
ENDBRANCH   1  10
BRANCH   4  15
ATOM     15  O   UNL     1      -1.300  -6.149  -0.011  0.00  0.00    -0.482 OA
BRANCH  15  16
ATOM     16  C   UNL     1      -0.018  -6.781  -0.020  0.00  0.00    +0.272 C 
BRANCH  16  17
ATOM     17  C   UNL     1      -0.196  -8.277  -0.024  0.00  0.00    +0.028 A 
ATOM     18  C   UNL     1      -0.296  -9.122  -1.079  0.00  0.00    +0.016 A 
ATOM     19  C   UNL     1      -0.457 -10.475  -0.842  0.00  0.00    +0.023 A 
ATOM     20  C   UNL     1      -0.509 -10.916   0.439  0.00  0.00    +0.055 A 
ATOM     21  S   UNL     1      -0.320  -9.398   1.360  0.00  0.00    -0.083 S 
ATOM     22 BR   UNL     1      -0.719 -12.682   1.083  0.00  0.00    -0.043 Br
ENDBRANCH  16  17
ENDBRANCH  15  16
ENDBRANCH   4  15
TORSDOF 6
