REMARK  Name = ZINC09158795
REMARK  6 active torsions:
REMARK  status: ('A' for Active; 'I' for Inactive)
REMARK    1  A    between atoms: C_1  and  O_2
REMARK    2  A    between atoms: O_2  and  C_3
REMARK    3  A    between atoms: C_7  and  C_9
REMARK    4  A    between atoms: C_16  and  N_29
REMARK    5  A    between atoms: C_17  and  C_27
REMARK    6  A    between atoms: C_18  and  C_20
REMARK                            x       y       z     vdW  Elec       q    Type
REMARK                         _______ _______ _______ _____ _____    ______ ____
ROOT
ATOM      1  C   UNL     1      -2.554  -4.145   0.016  0.00  0.00    +0.074 A 
ATOM      2  C   UNL     1      -3.358  -4.915   0.788  0.00  0.00    +0.054 A 
ATOM      3  C   UNL     1      -3.106  -6.265   0.472  0.00  0.00    +0.245 A 
ATOM      4  N   UNL     1      -2.188  -6.305  -0.451  0.00  0.00    -0.135 NA
ATOM      5  N   UNL     1      -1.819  -4.989  -0.769  0.00  0.00    -0.273 N 
ATOM      6  H   UNL     1      -1.158  -4.724  -1.428  0.00  0.00    +0.189 HD
ATOM      7  O   UNL     1      -3.767  -7.284   1.085  0.00  0.00    -0.421 OA
ATOM      8  C   UNL     1      -4.861  -6.969   1.807  0.00  0.00    +0.201 C 
ATOM      9  C   UNL     1      -5.198  -5.716   2.179  0.00  0.00    +0.098 C 
ATOM     10  C   UNL     1      -4.372  -4.505   1.826  0.00  0.00    +0.102 C 
ENDROOT
BRANCH  10  11
ATOM     11  C   UNL     1      -3.663  -3.997   3.055  0.00  0.00    -0.034 A 
ATOM     12  C   UNL     1      -2.794  -4.823   3.743  0.00  0.00    +0.005 A 
ATOM     13  C   UNL     1      -2.144  -4.357   4.870  0.00  0.00    +0.015 A 
ATOM     14  C   UNL     1      -2.364  -3.064   5.310  0.00  0.00    +0.018 A 
ATOM     15  C   UNL     1      -3.233  -2.238   4.621  0.00  0.00    +0.015 A 
ATOM     16  C   UNL     1      -3.879  -2.703   3.491  0.00  0.00    +0.005 A 
ATOM     17 BR   UNL     1      -1.475  -2.426   6.853  0.00  0.00    -0.050 Br
ENDBRANCH  10  11
BRANCH   1  22
ATOM     18  C   UNL     1      -1.200  -0.637   0.010  0.00  0.00    +0.121 A 
ATOM     19  C   UNL     1      -2.375   0.103   0.019  0.00  0.00    +0.045 A 
ATOM     20  C   UNL     1      -3.600  -0.536   0.027  0.00  0.00    +0.004 A 
ATOM     21  C   UNL     1      -3.664  -1.915   0.026  0.00  0.00    +0.010 A 
ATOM     22  C   UNL     1      -2.489  -2.667   0.017  0.00  0.00    +0.004 A 
ATOM     23  C   UNL     1      -1.254  -2.021   0.003  0.00  0.00    +0.055 A 
BRANCH  18  25
ATOM     24  C   UNL     1      -0.017   1.425   0.010  0.00  0.00    +0.277 C 
ATOM     25  O   UNL     1       0.002  -0.004   0.002  0.00  0.00    -0.495 OA
ENDBRANCH  18  25
ENDBRANCH   1  22
BRANCH   8  26
ATOM     26  N   UNL     1      -5.689  -7.994   2.192  0.00  0.00    -0.328 N 
ATOM     27  H   UNL     1      -5.478  -8.908   1.942  0.00  0.00    +0.145 HD
ATOM     28  H   UNL     1      -6.486  -7.805   2.712  0.00  0.00    +0.145 HD
ENDBRANCH   8  26
BRANCH   9  29
ATOM     29  C   UNL     1      -6.395  -5.528   2.942  0.00  0.00    +0.101 C 
ATOM     30  N   UNL     1      -7.344  -5.379   3.548  0.00  0.00    -0.191 NA
ENDBRANCH   9  29
TORSDOF 5
