REMARK  Name = ZINC13399145
REMARK  6 active torsions:
REMARK  status: ('A' for Active; 'I' for Inactive)
REMARK    1  A    between atoms: C_1  and  C_2
REMARK    2  A    between atoms: C_5  and  S_8
REMARK    3  A    between atoms: S_8  and  O_11
REMARK    4  A    between atoms: O_11  and  C_12
REMARK    5  A    between atoms: C_18  and  C_36
REMARK    6  A    between atoms: C_29  and  C_35
REMARK                            x       y       z     vdW  Elec       q    Type
REMARK                         _______ _______ _______ _____ _____    ______ ____
ROOT
ATOM      1  C   UNL     1      -3.670   3.054  -2.056  0.00  0.00    +0.156 C 
ATOM      2  C   UNL     1      -5.219   3.013  -2.018  0.00  0.00    +0.035 C 
ATOM      3  C   UNL     1      -5.702   3.366  -3.455  0.00  0.00    +0.007 C 
ATOM      4  C   UNL     1      -4.462   4.031  -4.066  0.00  0.00    +0.001 C 
ATOM      5  C   UNL     1      -3.337   3.111  -3.557  0.00  0.00    -0.000 C 
ATOM      6  C   UNL     1      -2.000   3.716  -3.914  0.00  0.00    +0.010 C 
ATOM      7  C   UNL     1      -1.920   3.821  -5.452  0.00  0.00    +0.005 C 
ATOM      8  C   UNL     1      -3.044   4.683  -5.995  0.00  0.00    -0.001 C 
ATOM      9  C   UNL     1      -4.435   4.253  -5.553  0.00  0.00    -0.004 C 
ATOM     10  C   UNL     1      -5.068   3.131  -6.350  0.00  0.00    +0.004 C 
ATOM     11  C   UNL     1      -4.422   2.991  -7.734  0.00  0.00    +0.005 C 
ATOM     12  C   UNL     1      -4.146   4.405  -8.229  0.00  0.00    +0.002 C 
ATOM     13  C   UNL     1      -2.937   4.972  -7.481  0.00  0.00    -0.025 C 
ATOM     14  C   UNL     1      -2.905   6.484  -7.747  0.00  0.00    +0.015 C 
ATOM     15  C   UNL     1      -2.668   6.734  -9.241  0.00  0.00    +0.075 C 
ATOM     16  C   UNL     1      -3.620   5.924 -10.084  0.00  0.00    +0.134 C 
ATOM     17  O   UNL     1      -4.148   6.428 -11.052  0.00  0.00    -0.297 OA
ATOM     18  C   UNL     1      -3.918   4.481  -9.732  0.00  0.00    +0.078 C 
ATOM     19  C   UNL     1      -1.654   4.355  -8.038  0.00  0.00    +0.012 C 
ATOM     20  C   UNL     1      -3.422   1.684  -4.092  0.00  0.00    +0.014 C 
ENDROOT
BRANCH   1  21
ATOM     21  O   UNL     1      -3.182   4.221  -1.401  0.00  0.00    -0.230 OA
BRANCH  21  22
ATOM     22  S   UNL     1      -2.775   3.993   0.048  0.00  0.00    +0.112 S 
ATOM     23  O   UNL     1      -3.733   3.101   0.603  0.00  0.00    -0.142 OA
ATOM     24  O   UNL     1      -2.517   5.275   0.604  0.00  0.00    -0.142 OA
BRANCH  22  29
ATOM     25  C   UNL     1       2.490   1.048  -0.016  0.00  0.00    +0.044 C 
ATOM     26  C   UNL     1       1.175   1.783   0.000  0.00  0.00    -0.050 A 
ATOM     27  C   UNL     1      -0.013   1.076   0.008  0.00  0.00    +0.005 A 
ATOM     28  C   UNL     1      -1.219   1.751   0.017  0.00  0.00    +0.030 A 
ATOM     29  C   UNL     1      -1.238   3.133   0.029  0.00  0.00    +0.117 A 
ATOM     30  C   UNL     1      -0.050   3.840   0.022  0.00  0.00    +0.030 A 
ATOM     31  C   UNL     1       1.156   3.165   0.008  0.00  0.00    +0.005 A 
ENDBRANCH  22  29
ENDBRANCH  21  22
ENDBRANCH   1  21
TORSDOF 3
