REMARK  Name = ZINC20921592
REMARK  9 active torsions:
REMARK  status: ('A' for Active; 'I' for Inactive)
REMARK    1  A    between atoms: C_1  and  C_2
REMARK    2  A    between atoms: C_6  and  C_14
REMARK    3  A    between atoms: C_12  and  C_13
REMARK    4  A    between atoms: C_14  and  O_15
REMARK    5  A    between atoms: O_15  and  C_16
REMARK    6  A    between atoms: C_16  and  C_18
REMARK    7  A    between atoms: C_18  and  C_19
REMARK    8  A    between atoms: C_19  and  C_21
REMARK    9  A    between atoms: C_19  and  N_28
REMARK                            x       y       z     vdW  Elec       q    Type
REMARK                         _______ _______ _______ _____ _____    ______ ____
ROOT
ATOM      1  C   UNL     1       0.335  -0.181  -0.248  0.00  0.00    +0.310 C 
ATOM      2  O   UNL     1       1.461  -0.610  -0.154  0.00  0.00    -0.251 OA
ENDROOT
BRANCH   1   3
ATOM      3  O   UNL     1      -0.694  -1.027  -0.409  0.00  0.00    -0.460 OA
BRANCH   3   4
ATOM      4  C   UNL     1      -0.381  -2.443  -0.462  0.00  0.00    +0.268 C 
BRANCH   4  10
ATOM      5  C   UNL     1      -1.601  -8.957  -1.014  0.00  0.00    +0.044 C 
ATOM      6  C   UNL     1      -1.617  -7.453  -0.917  0.00  0.00    -0.044 A 
ATOM      7  C   UNL     1      -0.425  -6.764  -0.748  0.00  0.00    +0.004 A 
ATOM      8  C   UNL     1      -0.419  -5.400  -0.658  0.00  0.00    +0.012 A 
ATOM      9  C   UNL     1      -1.624  -4.695  -0.738  0.00  0.00    +0.024 A 
ATOM     10  C   UNL     1      -1.652  -3.232  -0.645  0.00  0.00    +0.007 A 
ATOM     11  C   UNL     1      -2.854  -2.607  -0.736  0.00  0.00    +0.099 A 
ATOM     12  C   UNL     1      -4.030  -3.369  -0.907  0.00  0.00    +0.338 A 
ATOM     13  O   UNL     1      -5.101  -2.797  -0.987  0.00  0.00    -0.245 OA
ATOM     14  O   UNL     1      -3.997  -4.709  -0.985  0.00  0.00    -0.422 OA
ATOM     15  C   UNL     1      -2.835  -5.391  -0.902  0.00  0.00    +0.143 A 
ATOM     16  C   UNL     1      -2.817  -6.777  -0.985  0.00  0.00    -0.005 A 
ATOM     17  C   UNL     1      -4.104  -7.540  -1.168  0.00  0.00    +0.048 C 
ENDBRANCH   4  10
ENDBRANCH   3   4
ENDBRANCH   1   3
BRANCH   1  18
ATOM     18  C   UNL     1       0.088   1.304  -0.185  0.00  0.00    +0.147 C 
BRANCH  18  19
ATOM     19  C   UNL     1       1.418   2.036   0.002  0.00  0.00    +0.115 C 
BRANCH  19  20
ATOM     20  C   UNL     1       1.186   3.524  -0.058  0.00  0.00    -0.027 A 
ATOM     21  C   UNL     1       0.101   4.027  -0.751  0.00  0.00    +0.007 A 
ATOM     22  C   UNL     1      -0.115   5.391  -0.801  0.00  0.00    +0.020 A 
ATOM     23  C   UNL     1       0.760   6.254  -0.166  0.00  0.00    +0.041 A 
ATOM     24  C   UNL     1       1.849   5.750   0.523  0.00  0.00    +0.020 A 
ATOM     25  C   UNL     1       2.062   4.386   0.577  0.00  0.00    +0.007 A 
ATOM     26 CL   UNL     1       0.493   7.968  -0.235  0.00  0.00    -0.084 Cl
ENDBRANCH  19  20
BRANCH  19  27
ATOM     27  N   UNL     1       1.992   1.683   1.302  0.00  0.00    -0.292 N 
ATOM     28  C   UNL     1       1.347   2.019   2.437  0.00  0.00    +0.298 C 
ATOM     29  O   UNL     1       0.246   2.532   2.381  0.00  0.00    -0.253 OA
ATOM     30  N   UNL     1       1.923   1.788   3.634  0.00  0.00    -0.313 N 
ATOM     31  H   UNL     1       2.949   1.142   1.353  0.00  0.00    +0.151 HD
ATOM     32  H   UNL     1       1.397   2.063   4.559  0.00  0.00    +0.146 HD
ATOM     33  H   UNL     1       2.919   1.324   3.684  0.00  0.00    +0.146 HD
ENDBRANCH  19  27
ENDBRANCH  18  19
ENDBRANCH   1  18
TORSDOF 7
