REMARK  Name = ZINC01411040
REMARK  10 active torsions:
REMARK  status: ('A' for Active; 'I' for Inactive)
REMARK    1  A    between atoms: C_1  and  C_2
REMARK    2  A    between atoms: C_2  and  O_3
REMARK    3  A    between atoms: O_3  and  C_4
REMARK    4  A    between atoms: C_7  and  C_10
REMARK    5  A    between atoms: C_10  and  C_12
REMARK    6  A    between atoms: C_13  and  O_38
REMARK    7  A    between atoms: N_16  and  C_26
REMARK    8  A    between atoms: C_17  and  C_19
REMARK    9  A    between atoms: C_26  and  C_27
REMARK   10  A    between atoms: C_27  and  C_28
REMARK                            x       y       z     vdW  Elec       q    Type
REMARK                         _______ _______ _______ _____ _____    ______ ____
ROOT
ATOM      1  C   UNL     1      -3.160   1.067  -1.332  0.00  0.00    +0.071 C 
ATOM      2  C   UNL     1      -4.367   1.643  -1.132  0.00  0.00    +0.188 C 
ATOM      3  C   UNL     1      -4.519   1.968   0.302  0.00  0.00    +0.282 C 
ATOM      4  O   UNL     1      -5.495   2.494   0.798  0.00  0.00    -0.267 OA
ATOM      5  N   UNL     1      -3.416   1.594   0.976  0.00  0.00    -0.283 N 
ATOM      6  C   UNL     1      -2.478   1.002   0.015  0.00  0.00    +0.144 C 
ENDROOT
BRANCH   6   7
ATOM      7  C   UNL     1      -1.197   1.795  -0.015  0.00  0.00    -0.022 A 
ATOM      8  C   UNL     1       0.021   1.141   0.020  0.00  0.00    +0.007 A 
ATOM      9  C   UNL     1       1.196   1.867  -0.012  0.00  0.00    +0.015 A 
ATOM     10  C   UNL     1       1.154   3.248  -0.073  0.00  0.00    +0.018 A 
ATOM     11  C   UNL     1      -0.064   3.902  -0.103  0.00  0.00    +0.015 A 
ATOM     12  C   UNL     1      -1.239   3.175  -0.071  0.00  0.00    +0.007 A 
ATOM     13 BR   UNL     1       2.763   4.242  -0.117  0.00  0.00    -0.050 Br
ENDBRANCH   6   7
BRANCH   1  14
ATOM     14  C   UNL     1      -2.617   0.595  -2.610  0.00  0.00    +0.195 C 
ATOM     15  O   UNL     1      -2.362   1.391  -3.494  0.00  0.00    -0.287 OA
BRANCH  14  19
ATOM     16  C   UNL     1      -1.933  -3.551  -3.226  0.00  0.00    +0.121 A 
ATOM     17  C   UNL     1      -1.535  -2.632  -4.190  0.00  0.00    +0.046 A 
ATOM     18  C   UNL     1      -1.754  -1.287  -3.995  0.00  0.00    +0.015 A 
ATOM     19  C   UNL     1      -2.380  -0.846  -2.824  0.00  0.00    +0.022 A 
ATOM     20  C   UNL     1      -2.774  -1.773  -1.855  0.00  0.00    +0.015 A 
ATOM     21  C   UNL     1      -2.555  -3.117  -2.061  0.00  0.00    +0.046 A 
BRANCH  16  22
ATOM     22  O   UNL     1      -1.715  -4.876  -3.423  0.00  0.00    -0.492 OA
BRANCH  22  24
ATOM     23  C   UNL     1      -1.820  -7.206  -2.789  0.00  0.00    +0.048 C 
ATOM     24  C   UNL     1      -2.149  -5.765  -2.392  0.00  0.00    +0.225 C 
ENDBRANCH  22  24
ENDBRANCH  16  22
ENDBRANCH  14  19
ENDBRANCH   1  14
BRANCH   2  25
ATOM     25  O   UNL     1      -5.290   1.885  -2.092  0.00  0.00    -0.502 OA
ATOM     26  H   UNL     1      -6.092   2.318  -1.682  0.00  0.00    +0.292 HD
ENDBRANCH   2  25
BRANCH   5  27
ATOM     27  C   UNL     1      -3.191   1.750   2.415  0.00  0.00    +0.114 C 
BRANCH  27  28
ATOM     28  C   UNL     1      -2.530   3.104   2.684  0.00  0.00    +0.056 C 
BRANCH  28  29
ATOM     29  C   UNL     1      -2.299   3.265   4.165  0.00  0.00    -0.021 A 
ATOM     30  C   UNL     1      -3.108   3.887   5.036  0.00  0.00    +0.087 A 
ATOM     31  N   UNL     1      -2.570   3.832   6.293  0.00  0.00    -0.360 N 
ATOM     32  H   UNL     1      -2.974   4.213   7.089  0.00  0.00    +0.165 HD
ATOM     33  C   UNL     1      -1.371   3.156   6.260  0.00  0.00    +0.047 A 
ATOM     34  C   UNL     1      -1.152   2.766   4.927  0.00  0.00    +0.003 A 
ATOM     35  C   UNL     1      -0.001   2.050   4.591  0.00  0.00    +0.010 A 
ATOM     36  C   UNL     1       0.905   1.728   5.562  0.00  0.00    +0.001 A 
ATOM     37  C   UNL     1       0.691   2.108   6.880  0.00  0.00    +0.002 A 
ATOM     38  C   UNL     1      -0.433   2.822   7.231  0.00  0.00    +0.026 A 
ENDBRANCH  28  29
ENDBRANCH  27  28
ENDBRANCH   5  27
TORSDOF 9
