REMARK  Name = ZINC61439769
REMARK  4 active torsions:
REMARK  status: ('A' for Active; 'I' for Inactive)
REMARK    1  A    between atoms: C_1  and  C_2
REMARK    2  A    between atoms: C_9  and  S_12
REMARK    3  A    between atoms: S_12  and  C_13
REMARK    4  A    between atoms: C_14  and  N_20
REMARK                            x       y       z     vdW  Elec       q    Type
REMARK                         _______ _______ _______ _____ _____    ______ ____
ROOT
ATOM      1  C   UNL     1      -0.018   1.503   0.010  0.00  0.00    +0.044 C 
ATOM      2  C   UNL     1       0.002  -0.004   0.002  0.00  0.00    -0.048 A 
ATOM      3  C   UNL     1       0.006  -0.686  -1.206  0.00  0.00    +0.005 A 
ATOM      4  C   UNL     1       0.024  -2.065  -1.230  0.00  0.00    +0.028 A 
ATOM      5  C   UNL     1       0.040  -2.776  -0.040  0.00  0.00    +0.067 A 
ATOM      6  C   UNL     1       0.037  -2.091   1.187  0.00  0.00    +0.090 A 
ATOM      7  C   UNL     1       0.023  -0.694   1.194  0.00  0.00    +0.033 A 
ATOM      8  N   UNL     1       0.055  -3.029   2.169  0.00  0.00    -0.222 NA
ATOM      9  C   UNL     1       0.068  -4.226   1.635  0.00  0.00    +0.172 A 
ATOM     10  N   UNL     1       0.060  -4.125   0.273  0.00  0.00    -0.333 N 
ATOM     11  H   UNL     1       0.067  -4.862  -0.358  0.00  0.00    +0.168 HD
ENDROOT
BRANCH   9  12
ATOM     12  S   UNL     1       0.094  -5.737   2.540  0.00  0.00    -0.049 S 
BRANCH  12  13
ATOM     13  C   UNL     1       0.095  -5.226   4.226  0.00  0.00    +0.054 A 
ATOM     14  C   UNL     1       1.302  -5.000   4.888  0.00  0.00    +0.040 A 
ATOM     15  C   UNL     1       1.296  -4.598   6.215  0.00  0.00    +0.024 A 
ATOM     16  C   UNL     1       0.096  -4.421   6.879  0.00  0.00    +0.003 A 
ATOM     17  C   UNL     1      -1.101  -4.644   6.224  0.00  0.00    +0.021 A 
ATOM     18  C   UNL     1      -1.105  -5.040   4.898  0.00  0.00    +0.057 A 
ATOM     19 CL   UNL     1      -2.610  -5.313   4.078  0.00  0.00    -0.082 Cl
BRANCH  14  20
ATOM     20  N   UNL     1       2.516  -5.180   4.214  0.00  0.00    -0.357 N 
ATOM     21  H   UNL     1       2.518  -5.462   3.286  0.00  0.00    +0.142 HD
ATOM     22  H   UNL     1       3.354  -5.023   4.676  0.00  0.00    +0.142 HD
ENDBRANCH  14  20
ENDBRANCH  12  13
ENDBRANCH   9  12
TORSDOF 3
