REMARK  Name = ZINC09012726
REMARK  4 active torsions:
REMARK  status: ('A' for Active; 'I' for Inactive)
REMARK    1  A    between atoms: C_5  and  C_7
REMARK    2  A    between atoms: N_9  and  N_10
REMARK    3  A    between atoms: C_14  and  C_15
REMARK    4  A    between atoms: C_18  and  N_21
REMARK                            x       y       z     vdW  Elec       q    Type
REMARK                         _______ _______ _______ _____ _____    ______ ____
ROOT
ATOM      1  N   UNL     1      -4.221   7.597   0.301  0.00  0.00    -0.169 N 
ATOM      2  C   UNL     1      -3.903   6.318   0.187  0.00  0.00    +0.275 C 
ATOM      3  O   UNL     1      -2.746   5.951   0.106  0.00  0.00    -0.267 OA
ATOM      4  C   UNL     1      -5.027   5.358   0.159  0.00  0.00    +0.079 C 
ATOM      5  C   UNL     1      -5.007   4.006   0.049  0.00  0.00    +0.028 C 
ATOM      6  S   UNL     1      -6.419   6.468   0.318  0.00  0.00    -0.059 S 
ATOM      7  C   UNL     1      -5.504   7.999   0.397  0.00  0.00    +0.138 C 
ATOM      8  S   UNL     1      -6.110   9.592   0.557  0.00  0.00    -0.026 S 
ENDROOT
BRANCH   5   9
ATOM      9  C   UNL     1      -3.745   3.311  -0.242  0.00  0.00    -0.024 A 
ATOM     10  C   UNL     1      -3.448   2.099   0.389  0.00  0.00    +0.010 A 
ATOM     11  C   UNL     1      -2.262   1.453   0.111  0.00  0.00    +0.033 A 
ATOM     12  C   UNL     1      -1.366   2.001  -0.791  0.00  0.00    +0.126 A 
ATOM     13  C   UNL     1      -1.650   3.203  -1.416  0.00  0.00    +0.033 A 
ATOM     14  C   UNL     1      -2.834   3.859  -1.152  0.00  0.00    +0.010 A 
BRANCH  12  15
ATOM     15  N   UNL     1      -0.095   1.301  -1.083  0.00  0.00    +0.056 N 
ATOM     16  O   UNL     1       0.160   0.246  -0.532  0.00  0.00    -0.126 OA
ATOM     17  O   UNL     1       0.693   1.778  -1.880  0.00  0.00    -0.126 OA
ENDBRANCH  12  15
ENDBRANCH   5   9
BRANCH   1  20
ATOM     18  C   UNL     1      -2.858   9.144   1.492  0.00  0.00    +0.262 C 
ATOM     19  O   UNL     1      -3.437   8.843   2.518  0.00  0.00    -0.269 OA
ATOM     20  N   UNL     1      -3.199   8.556   0.328  0.00  0.00    -0.222 N 
ATOM     21  H   UNL     1      -2.737   8.796  -0.490  0.00  0.00    +0.174 HD
BRANCH  18  26
ATOM     22  C   UNL     1      -0.110  11.448   0.379  0.00  0.00    +0.001 A 
ATOM     23  C   UNL     1       0.238  12.051   1.575  0.00  0.00    +0.001 A 
ATOM     24  C   UNL     1      -0.417  11.712   2.744  0.00  0.00    +0.021 A 
ATOM     25  C   UNL     1      -1.425  10.767   2.725  0.00  0.00    +0.053 A 
ATOM     26  C   UNL     1      -1.781  10.155   1.521  0.00  0.00    +0.056 A 
ATOM     27  C   UNL     1      -1.111  10.500   0.346  0.00  0.00    +0.014 A 
ATOM     28 CL   UNL     1      -2.247  10.342   4.194  0.00  0.00    -0.083 Cl
ENDBRANCH  18  26
ENDBRANCH   1  20
TORSDOF 4
