REMARK  Name = ZINC63349898
REMARK  11 active torsions:
REMARK  status: ('A' for Active; 'I' for Inactive)
REMARK    1  A    between atoms: C_1  and  C_2
REMARK    2  A    between atoms: C_6  and  C_41
REMARK    3  A    between atoms: C_7  and  O_8
REMARK    4  A    between atoms: O_8  and  C_9
REMARK    5  A    between atoms: C_9  and  C_10
REMARK    6  A    between atoms: C_12  and  C_18
REMARK    7  A    between atoms: C_15  and  O_16
REMARK    8  A    between atoms: O_16  and  C_17
REMARK    9  A    between atoms: C_25  and  O_30
REMARK   10  A    between atoms: O_30  and  C_31
REMARK   11  A    between atoms: C_31  and  C_32
REMARK                            x       y       z     vdW  Elec       q    Type
REMARK                         _______ _______ _______ _____ _____    ______ ____
ROOT
ATOM      1  C   UNL     1       1.810   2.280   6.372  0.00  0.00    +0.111 C 
ATOM      2  C   UNL     1       2.158   3.735   6.052  0.00  0.00    +0.128 C 
ATOM      3  C   UNL     1       3.501   4.008   6.719  0.00  0.00    -0.035 C 
ATOM      4  C   UNL     1       4.303   4.472   5.771  0.00  0.00    +0.003 A 
ATOM      5  C   UNL     1       5.681   4.985   5.811  0.00  0.00    +0.055 A 
ATOM      6  C   UNL     1       6.223   5.375   4.625  0.00  0.00    +0.122 A 
ATOM      7  C   UNL     1       5.549   5.313   3.397  0.00  0.00    +0.048 A 
ATOM      8  C   UNL     1       4.277   4.864   3.246  0.00  0.00    +0.029 A 
ATOM      9  C   UNL     1       3.582   4.418   4.462  0.00  0.00    +0.043 A 
ATOM     10  N   UNL     1       2.355   3.965   4.621  0.00  0.00    -0.376 N 
ATOM     11  C   UNL     1       3.749   3.668   8.168  0.00  0.00    +0.048 C 
ATOM     12  C   UNL     1       3.239   2.228   8.364  0.00  0.00    +0.086 C 
ATOM     13  N   UNL     1       1.881   2.096   7.830  0.00  0.00    -0.307 NA
ATOM     14  H   UNL     1       1.244   2.718   8.305  0.00  0.00    +0.123 HD
ATOM     15  H   UNL     1       1.699   3.805   3.925  0.00  0.00    +0.160 HD
ENDROOT
BRANCH   1  18
ATOM     16  C   UNL     1      -1.046   1.011   4.254  0.00  0.00    +0.032 A 
ATOM     17  C   UNL     1       0.231   1.294   4.699  0.00  0.00    +0.015 A 
ATOM     18  C   UNL     1       0.415   1.973   5.889  0.00  0.00    -0.028 A 
ATOM     19  C   UNL     1      -0.677   2.371   6.637  0.00  0.00    +0.009 A 
ATOM     20  C   UNL     1      -1.956   2.091   6.197  0.00  0.00    +0.046 A 
ATOM     21  C   UNL     1      -2.144   1.414   5.000  0.00  0.00    +0.126 A 
BRANCH  21  22
ATOM     22  O   UNL     1      -3.401   1.142   4.562  0.00  0.00    -0.495 OA
ATOM     23  C   UNL     1      -4.484   1.587   5.381  0.00  0.00    +0.277 C 
ENDBRANCH  21  22
BRANCH  16  24
ATOM     24  C   UNL     1      -1.246   0.270   2.957  0.00  0.00    +0.268 C 
BRANCH  24  25
ATOM     25  O   UNL     1       0.025  -0.033   2.381  0.00  0.00    -0.487 OA
BRANCH  25  32
ATOM     26  C   UNL     1      -0.018   1.503   0.010  0.00  0.00    +0.047 C 
ATOM     27  C   UNL     1       0.002  -0.004   0.002  0.00  0.00    -0.009 A 
ATOM     28  C   UNL     1       0.006  -0.689  -1.198  0.00  0.00    +0.007 A 
ATOM     29  C   UNL     1       0.024  -2.071  -1.206  0.00  0.00    +0.001 A 
ATOM     30  C   UNL     1       0.040  -2.772  -0.014  0.00  0.00    +0.007 A 
ATOM     31  C   UNL     1       0.036  -2.092   1.188  0.00  0.00    -0.009 A 
ATOM     32  C   UNL     1       0.023  -0.705   1.199  0.00  0.00    +0.127 A 
ATOM     33  C   UNL     1       0.052  -2.856   2.487  0.00  0.00    +0.047 C 
ENDBRANCH  25  32
ENDBRANCH  24  25
ENDBRANCH  16  24
ENDBRANCH   1  18
BRANCH   6  34
ATOM     34  O   UNL     1       7.495   5.854   4.631  0.00  0.00    -0.487 OA
BRANCH  34  35
ATOM     35  C   UNL     1       8.043   6.257   3.374  0.00  0.00    +0.264 C 
BRANCH  35  36
ATOM     36  C   UNL     1       9.450   6.757   3.576  0.00  0.00    -0.010 A 
ATOM     37  C   UNL     1       9.677   8.093   3.847  0.00  0.00    +0.007 A 
ATOM     38  C   UNL     1      10.968   8.552   4.033  0.00  0.00    +0.000 A 
ATOM     39  C   UNL     1      12.032   7.673   3.947  0.00  0.00    +0.000 A 
ATOM     40  C   UNL     1      11.805   6.337   3.676  0.00  0.00    +0.000 A 
ATOM     41  C   UNL     1      10.514   5.878   3.495  0.00  0.00    +0.007 A 
ENDBRANCH  35  36
ENDBRANCH  34  35
ENDBRANCH   6  34
TORSDOF 8
