REMARK  Name = ZINC16348204
REMARK  5 active torsions:
REMARK  status: ('A' for Active; 'I' for Inactive)
REMARK    1  A    between atoms: C_1  and  C_2
REMARK    2  A    between atoms: C_9  and  C_12
REMARK    3  A    between atoms: C_12  and  C_13
REMARK    4  A    between atoms: C_13  and  C_15
REMARK    5  A    between atoms: C_18  and  N_21
REMARK                            x       y       z     vdW  Elec       q    Type
REMARK                         _______ _______ _______ _____ _____    ______ ____
ROOT
ATOM      1  C   UNL     1      -1.425   5.230   0.300  0.00  0.00    +0.105 C 
ENDROOT
BRANCH   1  10
ATOM      2  C   UNL     1       1.191  -2.203  -0.021  0.00  0.00    +0.044 C 
ATOM      3  C   UNL     1       1.194  -0.696  -0.013  0.00  0.00    -0.049 A 
ATOM      4  C   UNL     1       2.391  -0.005  -0.020  0.00  0.00    +0.004 A 
ATOM      5  C   UNL     1       2.388   1.373  -0.013  0.00  0.00    +0.016 A 
ATOM      6  C   UNL     1       1.188   2.089   0.002  0.00  0.00    +0.022 A 
ATOM      7  C   UNL     1      -0.017   1.394   0.010  0.00  0.00    +0.023 A 
ATOM      8  C   UNL     1       0.002  -0.004   0.002  0.00  0.00    +0.019 A 
ATOM      9  S   UNL     1      -1.439   2.454   0.036  0.00  0.00    -0.109 S 
ATOM     10  C   UNL     1      -0.772   4.088  -0.481  0.00  0.00    +0.121 C 
ATOM     11  S   UNL     1       0.981   3.851   0.013  0.00  0.00    -0.109 S 
ENDBRANCH   1  10
BRANCH   1  12
ATOM     12  C   UNL     1      -0.780   6.536  -0.086  0.00  0.00    +0.165 C 
ATOM     13  O   UNL     1       0.115   6.551  -0.904  0.00  0.00    -0.292 OA
BRANCH  12  14
ATOM     14  C   UNL     1      -1.235   7.792   0.532  0.00  0.00    +0.018 A 
ATOM     15  C   UNL     1      -2.270   7.778   1.472  0.00  0.00    +0.013 A 
ATOM     16  C   UNL     1      -2.687   8.959   2.049  0.00  0.00    +0.033 A 
ATOM     17  C   UNL     1      -2.091  10.156   1.693  0.00  0.00    +0.126 A 
ATOM     18  C   UNL     1      -1.070  10.178   0.759  0.00  0.00    +0.033 A 
ATOM     19  C   UNL     1      -0.638   9.006   0.177  0.00  0.00    +0.013 A 
BRANCH  17  20
ATOM     20  N   UNL     1      -2.549  11.420   2.313  0.00  0.00    +0.056 N 
ATOM     21  O   UNL     1      -2.027  12.475   2.002  0.00  0.00    -0.126 OA
ATOM     22  O   UNL     1      -3.448  11.404   3.135  0.00  0.00    -0.126 OA
ENDBRANCH  17  20
ENDBRANCH  12  14
ENDBRANCH   1  12
TORSDOF 4
