REMARK  Name = ZINC06014914
REMARK  14 active torsions:
REMARK  status: ('A' for Active; 'I' for Inactive)
REMARK    1  A    between atoms: C_1  and  C_2
REMARK    2  A    between atoms: C_2  and  C_3
REMARK    3  A    between atoms: C_2  and  C_4
REMARK    4  A    between atoms: C_2  and  N_5
REMARK    5  A    between atoms: C_6  and  C_10
REMARK    6  A    between atoms: C_10  and  C_12
REMARK    7  A    between atoms: C_10  and  N_70
REMARK    8  A    between atoms: C_16  and  O_24
REMARK    9  A    between atoms: O_24  and  C_25
REMARK   10  A    between atoms: C_26  and  C_27
REMARK   11  A    between atoms: C_26  and  N_70
REMARK   12  A    between atoms: C_27  and  C_28
REMARK   13  A    between atoms: C_34  and  C_35
REMARK   14  A    between atoms: C_34  and  N_70
REMARK                            x       y       z     vdW  Elec       q    Type
REMARK                         _______ _______ _______ _____ _____    ______ ____
ROOT
ATOM      1  C   UNL     1       0.919   3.262  -0.381  0.00  0.00    +0.039 C 
ENDROOT
BRANCH   1   2
ATOM      2  C   UNL     1       0.871   3.976  -1.707  0.00  0.00    +0.011 A 
ATOM      3  C   UNL     1       1.968   3.997  -2.503  0.00  0.00    +0.017 A 
ATOM      4  C   UNL     1       1.889   4.699  -3.785  0.00  0.00    +0.002 A 
ATOM      5  C   UNL     1       2.990   4.754  -4.648  0.00  0.00    +0.055 A 
ATOM      6  C   UNL     1       2.881   5.424  -5.849  0.00  0.00    +0.121 A 
ATOM      7  C   UNL     1       1.684   6.043  -6.204  0.00  0.00    +0.047 A 
ATOM      8  C   UNL     1       0.594   5.996  -5.363  0.00  0.00    +0.030 A 
ATOM      9  C   UNL     1       0.682   5.326  -4.147  0.00  0.00    +0.049 A 
ATOM     10  N   UNL     1      -0.399   5.267  -3.292  0.00  0.00    -0.322 N 
ATOM     11  H   UNL     1      -1.255   5.717  -3.547  0.00  0.00    +0.169 HD
ATOM     12  C   UNL     1      -0.318   4.615  -2.119  0.00  0.00    +0.251 A 
ATOM     13  O   UNL     1      -1.295   4.580  -1.390  0.00  0.00    -0.268 OA
BRANCH   6  14
ATOM     14  O   UNL     1       3.947   5.480  -6.691  0.00  0.00    -0.495 OA
ATOM     15  C   UNL     1       3.767   6.189  -7.919  0.00  0.00    +0.277 C 
ENDBRANCH   6  14
ENDBRANCH   1   2
BRANCH   1  17
ATOM     16  N   UNL     1       0.500   0.747  -0.316  0.00  0.00    -0.225 N 
ATOM     17  C   UNL     1       0.073   2.017  -0.450  0.00  0.00    +0.143 A 
ATOM     18  N   UNL     1      -1.220   1.959  -0.652  0.00  0.00    -0.115 NA
ATOM     19  N   UNL     1      -1.570   0.719  -0.643  0.00  0.00    -0.023 NA
ATOM     20  N   UNL     1      -0.533  -0.016  -0.441  0.00  0.00    -0.043 NA
BRANCH  16  22
ATOM     21  C   UNL     1       1.936  -1.216  -0.053  0.00  0.00    +0.036 C 
ATOM     22  C   UNL     1       1.879   0.313  -0.075  0.00  0.00    +0.059 C 
ATOM     23  C   UNL     1       2.782   0.841  -1.192  0.00  0.00    +0.036 C 
ATOM     24  C   UNL     1       2.358   0.861   1.270  0.00  0.00    +0.036 C 
ENDBRANCH  16  22
ENDBRANCH   1  17
BRANCH   1  25
ATOM     25  N   UNL     1       0.378   4.160   0.661  0.00  0.00    +0.392 N 
ATOM     26  H   UNL     1      -0.481   4.599   0.310  0.00  0.00    -0.080 HD
BRANCH  25  27
ATOM     27  C   UNL     1       0.057   3.385   1.879  0.00  0.00    -0.072 C 
BRANCH  27  28
ATOM     28  C   UNL     1      -0.703   4.288   2.852  0.00  0.00    +0.016 C 
BRANCH  28  29
ATOM     29  C   UNL     1      -1.057   3.506   4.091  0.00  0.00    -0.049 A 
ATOM     30  C   UNL     1      -2.257   2.823   4.158  0.00  0.00    +0.003 A 
ATOM     31  C   UNL     1      -2.579   2.101   5.292  0.00  0.00    +0.000 A 
ATOM     32  C   UNL     1      -1.706   2.072   6.363  0.00  0.00    +0.000 A 
ATOM     33  C   UNL     1      -0.509   2.759   6.298  0.00  0.00    +0.000 A 
ATOM     34  C   UNL     1      -0.184   3.476   5.162  0.00  0.00    +0.003 A 
ENDBRANCH  28  29
ENDBRANCH  27  28
ENDBRANCH  25  27
BRANCH  25  35
ATOM     35  C   UNL     1       1.362   5.216   0.979  0.00  0.00    -0.034 C 
BRANCH  35  36
ATOM     36  C   UNL     1       1.270   6.292  -0.071  0.00  0.00    -0.027 A 
ATOM     37  C   UNL     1       0.386   7.315  -0.171  0.00  0.00    +0.009 A 
ATOM     38  C   UNL     1       0.493   8.193  -1.232  0.00  0.00    +0.008 A 
ATOM     39  C   UNL     1       1.480   8.006  -2.143  0.00  0.00    +0.045 A 
ATOM     40  S   UNL     1       2.302   6.556  -1.504  0.00  0.00    -0.103 S 
ENDBRANCH  35  36
ENDBRANCH  25  35
ENDBRANCH   1  25
TORSDOF 10
