REMARK  Name = ZINC20724017
REMARK  2 active torsions:
REMARK  status: ('A' for Active; 'I' for Inactive)
REMARK    1  A    between atoms: C_5  and  C_7
REMARK    2  A    between atoms: C_7  and  N_8
REMARK                            x       y       z     vdW  Elec       q    Type
REMARK                         _______ _______ _______ _____ _____    ______ ____
ROOT
ATOM      1  N   UNL     1       1.488  -2.679   1.333  0.00  0.00    -0.266 N 
ATOM      2  C   UNL     1       2.753  -2.918   1.840  0.00  0.00    +0.041 A 
ATOM      3  C   UNL     1       3.997  -2.763   1.227  0.00  0.00    +0.024 A 
ATOM      4  C   UNL     1       5.118  -3.081   1.977  0.00  0.00    +0.002 A 
ATOM      5  C   UNL     1       5.022  -3.532   3.277  0.00  0.00    +0.000 A 
ATOM      6  C   UNL     1       3.789  -3.691   3.900  0.00  0.00    +0.007 A 
ATOM      7  C   UNL     1       2.669  -3.378   3.160  0.00  0.00    -0.006 A 
ATOM      8  C   UNL     1       1.213  -3.429   3.493  0.00  0.00    +0.112 C 
ATOM      9  C   UNL     1       0.522  -2.948   2.236  0.00  0.00    +0.236 C 
ATOM     10  O   UNL     1      -0.674  -2.830   2.070  0.00  0.00    -0.274 OA
ATOM     11  C   UNL     1       0.772  -4.852   3.830  0.00  0.00    +0.122 C 
ATOM     12  C   UNL     1       1.117  -5.208   5.250  0.00  0.00    +0.220 C 
ATOM     13  O   UNL     1       1.486  -6.336   5.499  0.00  0.00    -0.275 OA
ATOM     14  N   UNL     1       1.030  -4.312   6.255  0.00  0.00    -0.270 N 
ATOM     15  C   UNL     1       0.803  -2.974   5.934  0.00  0.00    +0.125 A 
ATOM     16  C   UNL     1       0.879  -2.519   4.642  0.00  0.00    +0.032 A 
ATOM     17  C   UNL     1       0.604  -1.160   4.652  0.00  0.00    +0.141 A 
ATOM     18  N   UNL     1       0.379  -0.797   5.893  0.00  0.00    -0.180 NA
ATOM     19  N   UNL     1       0.509  -1.927   6.717  0.00  0.00    -0.264 N 
ATOM     20  H   UNL     1       0.404  -1.946   7.681  0.00  0.00    +0.190 HD
ATOM     21  H   UNL     1       1.122  -4.592   7.180  0.00  0.00    +0.156 HD
ENDROOT
BRANCH   1  22
ATOM     22  C   UNL     1       1.228  -2.186  -0.022  0.00  0.00    +0.151 C 
BRANCH  22  27
ATOM     23  C   UNL     1      -0.017   1.378   0.010  0.00  0.00    +0.000 A 
ATOM     24  C   UNL     1       1.171   2.087   0.002  0.00  0.00    +0.003 A 
ATOM     25  C   UNL     1       2.377   1.414  -0.013  0.00  0.00    +0.038 A 
ATOM     26  C   UNL     1       2.397   0.029  -0.021  0.00  0.00    +0.128 A 
ATOM     27  C   UNL     1       1.208  -0.679  -0.013  0.00  0.00    +0.005 A 
ATOM     28  C   UNL     1       0.002  -0.004   0.002  0.00  0.00    +0.008 A 
ATOM     29  F   UNL     1       3.577  -0.630  -0.036  0.00  0.00    -0.205 F 
ENDBRANCH  22  27
ENDBRANCH   1  22
TORSDOF 2
