REMARK  Name = ZINC36249650
REMARK  13 active torsions:
REMARK  status: ('A' for Active; 'I' for Inactive)
REMARK    1  A    between atoms: C_1  and  C_2
REMARK    2  A    between atoms: C_5  and  N_8
REMARK    3  A    between atoms: N_11  and  C_12
REMARK    4  A    between atoms: N_11  and  C_17
REMARK    5  A    between atoms: C_12  and  C_13
REMARK    6  A    between atoms: C_13  and  N_14
REMARK    7  A    between atoms: N_14  and  C_15
REMARK    8  A    between atoms: N_14  and  C_16
REMARK    9  A    between atoms: C_17  and  C_18
REMARK   10  A    between atoms: C_19  and  C_31
REMARK   11  A    between atoms: C_22  and  N_23
REMARK   12  A    between atoms: N_23  and  C_24
REMARK   13  A    between atoms: N_23  and  C_25
REMARK                            x       y       z     vdW  Elec       q    Type
REMARK                         _______ _______ _______ _____ _____    ______ ____
ROOT
ATOM      1  C   UNL     1      -0.193  -7.268   2.801  0.00  0.00    +0.151 C 
ENDROOT
BRANCH   1   5
ATOM      2  N   UNL     1       0.765  -4.843   0.209  0.00  0.00    -0.269 N 
ATOM      3  C   UNL     1       0.492  -5.388   1.411  0.00  0.00    +0.307 C 
ATOM      4  O   UNL     1       0.594  -4.717   2.420  0.00  0.00    -0.252 OA
ATOM      5  N   UNL     1       0.105  -6.676   1.495  0.00  0.00    -0.283 N 
ATOM      6  H   UNL     1       0.634  -5.362  -0.600  0.00  0.00    +0.156 HD
BRANCH   2  11
ATOM      7  C   UNL     1       2.683   0.486  -0.120  0.00  0.00    +0.044 C 
ATOM      8  C   UNL     1       2.174  -0.929  -0.033  0.00  0.00    -0.050 A 
ATOM      9  C   UNL     1       2.525  -1.724   1.044  0.00  0.00    +0.005 A 
ATOM     10  C   UNL     1       2.059  -3.021   1.127  0.00  0.00    +0.023 A 
ATOM     11  C   UNL     1       1.238  -3.528   0.128  0.00  0.00    +0.035 A 
ATOM     12  C   UNL     1       0.888  -2.728  -0.951  0.00  0.00    +0.023 A 
ATOM     13  C   UNL     1       1.352  -1.429  -1.026  0.00  0.00    +0.005 A 
ENDBRANCH   2  11
BRANCH   5  14
ATOM     14  C   UNL     1      -0.018  -7.484   0.279  0.00  0.00    +0.091 C 
BRANCH  14  15
ATOM     15  C   UNL     1       1.313  -8.183  -0.005  0.00  0.00    -0.060 C 
BRANCH  15  16
ATOM     16  N   UNL     1       1.226  -8.900  -1.285  0.00  0.00    +0.377 N 
ATOM     17  C   UNL     1       2.547  -9.436  -1.637  0.00  0.00    -0.097 C 
ATOM     18  C   UNL     1       0.266 -10.005  -1.163  0.00  0.00    -0.097 C 
ATOM     19  H   UNL     1       0.918  -8.265  -2.006  0.00  0.00    -0.083 HD
ENDBRANCH  15  16
ENDBRANCH  14  15
ENDBRANCH   5  14
ENDBRANCH   1   5
BRANCH   1  20
ATOM     20  C   UNL     1      -1.629  -6.991   3.163  0.00  0.00    +0.059 A 
ATOM     21  C   UNL     1      -2.110  -5.843   3.828  0.00  0.00    +0.120 A 
ATOM     22  N   UNL     1      -3.410  -5.968   3.961  0.00  0.00    -0.076 NA
ATOM     23  O   UNL     1      -3.793  -7.203   3.382  0.00  0.00    -0.339 OA
ATOM     24  C   UNL     1      -2.688  -7.798   2.902  0.00  0.00    +0.226 A 
BRANCH  21  25
ATOM     25  C   UNL     1      -1.291  -4.697   4.296  0.00  0.00    +0.004 A 
ATOM     26  C   UNL     1      -0.066  -4.922   4.921  0.00  0.00    +0.010 A 
ATOM     27  C   UNL     1       0.692  -3.852   5.353  0.00  0.00    +0.001 A 
ATOM     28  C   UNL     1       0.238  -2.559   5.166  0.00  0.00    +0.000 A 
ATOM     29  C   UNL     1      -0.977  -2.330   4.546  0.00  0.00    +0.001 A 
ATOM     30  C   UNL     1      -1.741  -3.393   4.105  0.00  0.00    +0.010 A 
ENDBRANCH  21  25
BRANCH  24  31
ATOM     31  N   UNL     1      -2.639  -9.020   2.256  0.00  0.00    -0.299 N 
ATOM     32  C   UNL     1      -3.148  -9.147   0.889  0.00  0.00    +0.132 C 
BRANCH  31  33
ATOM     33  C   UNL     1      -2.077 -10.187   2.940  0.00  0.00    +0.076 C 
ATOM     34  C   UNL     1      -0.879 -10.715   2.147  0.00  0.00    +0.022 C 
ATOM     35  C   UNL     1      -0.292 -11.934   2.861  0.00  0.00    +0.002 C 
ATOM     36  C   UNL     1      -1.358 -13.027   2.963  0.00  0.00    +0.000 C 
ATOM     37  C   UNL     1      -2.555 -12.499   3.756  0.00  0.00    +0.002 C 
ATOM     38  C   UNL     1      -3.142 -11.280   3.042  0.00  0.00    +0.022 C 
ENDBRANCH  31  33
ENDBRANCH  24  31
ENDBRANCH   1  20
TORSDOF 9
