REMARK  Name = ZINC09232365
REMARK  5 active torsions:
REMARK  status: ('A' for Active; 'I' for Inactive)
REMARK    1  A    between atoms: C_1  and  C_2
REMARK    2  A    between atoms: C_5  and  C_8
REMARK    3  A    between atoms: C_8  and  C_10
REMARK    4  A    between atoms: C_12  and  C_29
REMARK    5  A    between atoms: C_32  and  N_35
REMARK                            x       y       z     vdW  Elec       q    Type
REMARK                         _______ _______ _______ _____ _____    ______ ____
ROOT
ATOM      1  C   UNL     1       1.461   1.999   1.496  0.00  0.00    +0.069 C 
ATOM      2  C   UNL     1       1.759   1.584   0.041  0.00  0.00    +0.016 C 
ATOM      3  C   UNL     1       0.469   0.914  -0.464  0.00  0.00    -0.047 C 
ATOM      4  C   UNL     1       0.232   1.312  -1.936  0.00  0.00    +0.052 C 
ATOM      5  S   UNL     1      -1.284   2.318  -1.843  0.00  0.00    -0.181 S 
ATOM      6  C   UNL     1      -1.235   2.634  -0.024  0.00  0.00    -0.005 C 
ATOM      7  C   UNL     1       0.014   1.568   1.751  0.00  0.00    +0.052 C 
ATOM      8  C   UNL     1      -0.731   2.600   2.552  0.00  0.00    -0.027 A 
ATOM      9  C   UNL     1      -1.029   3.928   2.340  0.00  0.00    +0.004 A 
ATOM     10  C   UNL     1      -1.750   4.635   3.287  0.00  0.00    +0.000 A 
ATOM     11  C   UNL     1      -2.169   4.005   4.444  0.00  0.00    +0.002 A 
ATOM     12  C   UNL     1      -1.873   2.675   4.660  0.00  0.00    +0.023 A 
ATOM     13  C   UNL     1      -1.148   1.956   3.713  0.00  0.00    +0.036 A 
ATOM     14  N   UNL     1      -0.731   0.624   3.701  0.00  0.00    -0.286 N 
ATOM     15  C   UNL     1      -0.042   0.316   2.586  0.00  0.00    +0.212 C 
ATOM     16  O   UNL     1       0.439  -0.762   2.307  0.00  0.00    -0.277 OA
ATOM     17  H   UNL     1      -0.916  -0.007   4.415  0.00  0.00    +0.155 HD
ATOM     18  N   UNL     1      -0.596   1.353   0.451  0.00  0.00    +0.401 N 
ATOM     19  H   UNL     1      -1.315   0.622   0.517  0.00  0.00    -0.078 HD
ENDROOT
BRANCH   2  20
ATOM     20  C   UNL     1       2.080   2.796  -0.795  0.00  0.00    -0.045 A 
ATOM     21  C   UNL     1       3.395   3.108  -1.084  0.00  0.00    +0.006 A 
ATOM     22  C   UNL     1       3.689   4.217  -1.855  0.00  0.00    +0.033 A 
ATOM     23  C   UNL     1       2.669   5.020  -2.328  0.00  0.00    +0.126 A 
ATOM     24  C   UNL     1       1.354   4.711  -2.034  0.00  0.00    +0.033 A 
ATOM     25  C   UNL     1       1.059   3.599  -1.267  0.00  0.00    +0.006 A 
BRANCH  23  26
ATOM     26  N   UNL     1       2.983   6.210  -3.150  0.00  0.00    +0.056 N 
ATOM     27  O   UNL     1       2.084   6.917  -3.567  0.00  0.00    -0.126 OA
ATOM     28  O   UNL     1       4.142   6.482  -3.409  0.00  0.00    -0.126 OA
ENDBRANCH  23  26
ENDBRANCH   2  20
BRANCH   1  29
ATOM     29  C   UNL     1       1.599   3.492   1.652  0.00  0.00    +0.166 C 
ATOM     30  O   UNL     1       1.066   4.236   0.857  0.00  0.00    -0.292 OA
BRANCH  29  35
ATOM     31  C   UNL     1       4.648   5.658   6.017  0.00  0.00    +0.044 C 
ATOM     32  C   UNL     1       3.849   5.090   4.873  0.00  0.00    -0.050 A 
ATOM     33  C   UNL     1       3.242   5.943   3.967  0.00  0.00    +0.004 A 
ATOM     34  C   UNL     1       2.509   5.431   2.917  0.00  0.00    +0.011 A 
ATOM     35  C   UNL     1       2.379   4.046   2.770  0.00  0.00    +0.018 A 
ATOM     36  C   UNL     1       2.990   3.192   3.692  0.00  0.00    +0.011 A 
ATOM     37  C   UNL     1       3.725   3.719   4.734  0.00  0.00    +0.004 A 
ENDBRANCH  29  35
ENDBRANCH   1  29
TORSDOF 4
