REMARK  Name = ZINC10217112
REMARK  8 active torsions:
REMARK  status: ('A' for Active; 'I' for Inactive)
REMARK    1  A    between atoms: C_1  and  C_2
REMARK    2  A    between atoms: C_2  and  C_3
REMARK    3  A    between atoms: C_2  and  C_4
REMARK    4  A    between atoms: C_2  and  N_5
REMARK    5  A    between atoms: N_5  and  S_6
REMARK    6  A    between atoms: S_6  and  C_9
REMARK    7  A    between atoms: N_17  and  S_20
REMARK    8  A    between atoms: S_20  and  C_23
REMARK                            x       y       z     vdW  Elec       q    Type
REMARK                         _______ _______ _______ _____ _____    ______ ____
ROOT
ATOM      1  C   UNL     1      -1.686  -5.728   3.148  0.00  0.00    +0.121 A 
ATOM      2  C   UNL     1      -0.795  -5.571   2.094  0.00  0.00    +0.033 A 
ATOM      3  C   UNL     1      -0.853  -4.407   1.350  0.00  0.00    +0.043 A 
ATOM      4  C   UNL     1      -1.788  -3.434   1.687  0.00  0.00    +0.099 A 
ATOM      5  C   UNL     1      -2.593  -4.725   3.422  0.00  0.00    +0.112 A 
ATOM      6  N   UNL     1      -1.853  -2.256   0.950  0.00  0.00    -0.314 N 
ATOM      7  C   UNL     1      -2.908  -1.372   1.464  0.00  0.00    +0.123 C 
ATOM      8  C   UNL     1      -3.069  -0.174   0.522  0.00  0.00    +0.128 C 
ATOM      9  N   UNL     1      -1.754   0.462   0.346  0.00  0.00    -0.174 NA
ATOM     10  C   UNL     1      -0.617  -0.386  -0.041  0.00  0.00    +0.128 C 
ATOM     11  C   UNL     1      -0.551  -1.576   0.929  0.00  0.00    +0.123 C 
ATOM     12  N   UNL     1      -2.674  -3.565   2.716  0.00  0.00    -0.348 N 
ATOM     13  H   UNL     1      -3.359  -2.835   2.943  0.00  0.00    +0.167 HD
ENDROOT
BRANCH   1  14
ATOM     14  S   UNL     1      -1.659  -7.195   4.124  0.00  0.00    +0.060 S 
ATOM     15  O   UNL     1      -0.295  -7.566   4.261  0.00  0.00    -0.153 OA
ATOM     16  O   UNL     1      -2.499  -6.953   5.244  0.00  0.00    -0.153 OA
BRANCH  14  17
ATOM     17  N   UNL     1      -2.388  -8.388   3.235  0.00  0.00    -0.185 NA
ATOM     18  H   UNL     1      -1.867  -9.141   2.916  0.00  0.00    +0.149 HD
BRANCH  17  20
ATOM     19  C   UNL     1      -4.107  -7.000   2.187  0.00  0.00    +0.029 C 
ATOM     20  C   UNL     1      -3.818  -8.305   2.932  0.00  0.00    +0.032 C 
ATOM     21  C   UNL     1      -4.223  -9.492   2.055  0.00  0.00    +0.029 C 
ATOM     22  C   UNL     1      -4.619  -8.336   4.235  0.00  0.00    +0.029 C 
ENDBRANCH  17  20
ENDBRANCH  14  17
ENDBRANCH   1  14
BRANCH   9  23
ATOM     23  S   UNL     1      -1.562   2.091   0.572  0.00  0.00    +0.061 S 
ATOM     24  O   UNL     1      -0.418   2.473  -0.180  0.00  0.00    -0.153 OA
ATOM     25  O   UNL     1      -2.838   2.683   0.370  0.00  0.00    -0.153 OA
BRANCH  23  26
ATOM     26  C   UNL     1      -1.155   2.338   2.268  0.00  0.00    +0.106 A 
ATOM     27  C   UNL     1      -2.156   2.542   3.199  0.00  0.00    +0.029 A 
ATOM     28  C   UNL     1      -1.830   2.730   4.526  0.00  0.00    +0.006 A 
ATOM     29  C   UNL     1      -0.502   2.730   4.934  0.00  0.00    -0.044 A 
ATOM     30  C   UNL     1       0.495   2.529   4.006  0.00  0.00    -0.042 A 
ATOM     31  C   UNL     1       0.164   2.334   2.671  0.00  0.00    +0.032 A 
ATOM     32  C   UNL     1       1.955   2.506   4.377  0.00  0.00    +0.035 C 
ATOM     33  C   UNL     1       2.172   3.148   5.746  0.00  0.00    +0.005 C 
ATOM     34  C   UNL     1       1.201   2.503   6.742  0.00  0.00    +0.005 C 
ATOM     35  C   UNL     1      -0.216   2.956   6.395  0.00  0.00    +0.035 C 
ENDBRANCH  23  26
ENDBRANCH   9  23
TORSDOF 5
