REMARK  Name = ZINC43260602
REMARK  6 active torsions:
REMARK  status: ('A' for Active; 'I' for Inactive)
REMARK    1  A    between atoms: C_1  and  C_2
REMARK    2  A    between atoms: C_2  and  C_3
REMARK    3  A    between atoms: C_3  and  C_5
REMARK    4  A    between atoms: C_3  and  N_21
REMARK    5  A    between atoms: C_5  and  C_7
REMARK    6  A    between atoms: C_5  and  N_13
REMARK                            x       y       z     vdW  Elec       q    Type
REMARK                         _______ _______ _______ _____ _____    ______ ____
ROOT
ATOM      1  C   UNL     1       0.763  -2.041   1.233  0.00  0.00    +0.079 C 
ENDROOT
BRANCH   1   2
ATOM      2  N   UNL     1       1.285  -2.655   0.005  0.00  0.00    -0.293 NA
ATOM      3  C   UNL     1       1.216  -4.116   0.079  0.00  0.00    +0.107 C 
ATOM      4  C   UNL     1       1.340  -4.715  -1.326  0.00  0.00    +0.181 C 
ATOM      5  S   UNL     1       2.966  -4.264  -2.005  0.00  0.00    -0.029 S 
ATOM      6  O   UNL     1       2.962  -4.526  -3.402  0.00  0.00    -0.174 OA
ATOM      7  O   UNL     1       3.974  -4.849  -1.192  0.00  0.00    -0.174 OA
ATOM      8  C   UNL     1       2.985  -2.463  -1.754  0.00  0.00    +0.181 C 
ATOM      9  C   UNL     1       2.636  -2.171  -0.290  0.00  0.00    +0.107 C 
ENDBRANCH   1   2
BRANCH   1  10
ATOM     10  C   UNL     1      -0.640  -2.532   1.483  0.00  0.00    +0.006 A 
ATOM     11  C   UNL     1      -1.245  -2.822   2.660  0.00  0.00    +0.014 A 
ATOM     12  C   UNL     1      -2.555  -3.263   2.650  0.00  0.00    +0.023 A 
ATOM     13  C   UNL     1      -3.196  -3.391   1.461  0.00  0.00    +0.055 A 
ATOM     14  S   UNL     1      -1.938  -2.874   0.306  0.00  0.00    -0.085 S 
ATOM     15 BR   UNL     1      -4.966  -3.962   1.118  0.00  0.00    -0.043 Br
ENDBRANCH   1  10
BRANCH   1  16
ATOM     16  C   UNL     1       0.750  -0.519   1.076  0.00  0.00    -0.053 C 
BRANCH  16  17
ATOM     17  N   UNL     1       0.102   0.088   2.246  0.00  0.00    +0.381 N 
ATOM     18  H   UNL     1       0.094   1.092   2.143  0.00  0.00    -0.090 HD
ATOM     19  H   UNL     1      -0.846  -0.250   2.319  0.00  0.00    -0.090 HD
ATOM     20  H   UNL     1       0.613  -0.160   3.080  0.00  0.00    -0.090 HD
ENDBRANCH  16  17
BRANCH  16  22
ATOM     21  C   UNL     1       0.075   1.367  -0.417  0.00  0.00    +0.002 C 
ATOM     22  C   UNL     1      -0.024  -0.143  -0.188  0.00  0.00    -0.018 C 
ENDBRANCH  16  22
ENDBRANCH   1  16
TORSDOF 5
