REMARK  Name = ZINC45551040
REMARK  3 active torsions:
REMARK  status: ('A' for Active; 'I' for Inactive)
REMARK    1  A    between atoms: C_1  and  C_2
REMARK    2  A    between atoms: C_7  and  N_12
REMARK    3  A    between atoms: C_9  and  C_11
REMARK                            x       y       z     vdW  Elec       q    Type
REMARK                         _______ _______ _______ _____ _____    ______ ____
ROOT
ATOM      1  N   UNL     1       1.472  -2.526   2.419  0.00  0.00    -0.296 N 
ATOM      2  C   UNL     1       2.056  -3.740   2.406  0.00  0.00    +0.303 C 
ATOM      3  O   UNL     1       1.919  -4.470   1.444  0.00  0.00    -0.253 OA
ATOM      4  N   UNL     1       2.793  -4.145   3.459  0.00  0.00    -0.283 N 
ATOM      5  C   UNL     1       3.531  -5.415   3.412  0.00  0.00    +0.128 C 
ATOM      6  C   UNL     1       5.007  -5.136   3.718  0.00  0.00    +0.126 C 
ATOM      7  N   UNL     1       5.088  -4.316   4.935  0.00  0.00    -0.307 N 
ATOM      8  C   UNL     1       4.350  -3.045   4.982  0.00  0.00    +0.126 C 
ATOM      9  C   UNL     1       2.878  -3.322   4.674  0.00  0.00    +0.128 C 
ATOM     10  C   UNL     1       5.845  -4.732   6.018  0.00  0.00    +0.161 A 
ATOM     11  N   UNL     1       6.565  -5.828   6.140  0.00  0.00    -0.233 NA
ATOM     12  C   UNL     1       7.237  -6.082   7.249  0.00  0.00    +0.120 A 
ATOM     13  C   UNL     1       7.149  -5.168   8.246  0.00  0.00    +0.068 A 
ATOM     14  S   UNL     1       6.074  -3.957   7.494  0.00  0.00    -0.061 S 
ATOM     15  H   UNL     1       1.521  -1.973   3.215  0.00  0.00    +0.151 HD
ENDROOT
BRANCH   1  21
ATOM     16  C   UNL     1      -0.013   1.527   0.008  0.00  0.00    +0.008 C 
ATOM     17  C   UNL     1       0.007  -0.003   0.000  0.00  0.00    -0.009 C 
ATOM     18  C   UNL     1      -1.429  -0.531   0.010  0.00  0.00    +0.003 C 
ATOM     19  C   UNL     1      -1.410  -2.061   0.002  0.00  0.00    +0.002 C 
ATOM     20  C   UNL     1      -0.671  -2.568   1.242  0.00  0.00    +0.022 C 
ATOM     21  C   UNL     1       0.765  -2.040   1.232  0.00  0.00    +0.078 C 
ATOM     22  C   UNL     1       0.746  -0.510   1.240  0.00  0.00    +0.009 C 
ATOM     23  C   UNL     1       0.029  -0.016   2.498  0.00  0.00    +0.009 C 
ENDBRANCH   1  21
TORSDOF 1
