REMARK  Name = ZINC39637493
REMARK  9 active torsions:
REMARK  status: ('A' for Active; 'I' for Inactive)
REMARK    1  A    between atoms: C_1  and  C_2
REMARK    2  A    between atoms: C_2  and  C_3
REMARK    3  A    between atoms: C_3  and  C_5
REMARK    4  A    between atoms: C_3  and  C_6
REMARK    5  A    between atoms: C_6  and  C_7
REMARK    6  A    between atoms: C_11  and  C_20
REMARK    7  A    between atoms: N_22  and  C_23
REMARK    8  A    between atoms: C_28  and  C_33
REMARK    9  A    between atoms: C_30  and  C_32
REMARK                            x       y       z     vdW  Elec       q    Type
REMARK                         _______ _______ _______ _____ _____    ______ ____
ROOT
ATOM      1  C   UNL     1       1.321  -2.518  -2.747  0.00  0.00    +0.216 C 
ATOM      2  O   UNL     1       1.733  -1.734  -3.576  0.00  0.00    -0.276 OA
ATOM      3  N   UNL     1       1.309  -3.839  -3.015  0.00  0.00    -0.300 N 
ATOM      4  C   UNL     1       0.841  -4.939  -2.139  0.00  0.00    +0.121 C 
ATOM      5  C   UNL     1       0.117  -5.916  -3.092  0.00  0.00    +0.100 C 
ATOM      6  C   UNL     1       0.726  -5.637  -4.477  0.00  0.00    -0.004 C 
ATOM      7  C   UNL     1       1.755  -4.518  -4.254  0.00  0.00    +0.115 C 
ATOM      8  C   UNL     1      -0.355  -5.166  -5.444  0.00  0.00    -0.010 C 
ATOM      9  C   UNL     1       0.264  -4.950  -6.828  0.00  0.00    -0.082 C 
ATOM     10  N   UNL     1       0.860  -6.205  -7.301  0.00  0.00    +0.379 N 
ATOM     11  C   UNL     1       1.961  -6.603  -6.415  0.00  0.00    -0.082 C 
ATOM     12  C   UNL     1       1.413  -6.888  -5.014  0.00  0.00    -0.010 C 
ATOM     13  H   UNL     1       0.156  -6.929  -7.306  0.00  0.00    -0.086 HD
ATOM     14  H   UNL     1       1.213  -6.077  -8.238  0.00  0.00    -0.086 HD
ENDROOT
BRANCH   5  15
ATOM     15  C   UNL     1       0.378  -7.341  -2.679  0.00  0.00    +0.218 C 
ATOM     16  O   UNL     1       1.427  -7.637  -2.147  0.00  0.00    -0.275 OA
ATOM     17  N   UNL     1      -0.555  -8.289  -2.902  0.00  0.00    -0.312 N 
ATOM     18  H   UNL     1      -1.394  -8.053  -3.328  0.00  0.00    +0.149 HD
BRANCH  17  19
ATOM     19  C   UNL     1      -0.301  -9.675  -2.501  0.00  0.00    +0.076 C 
ATOM     20  C   UNL     1       0.478 -10.391  -3.605  0.00  0.00    +0.022 C 
ATOM     21  C   UNL     1       0.743 -11.838  -3.186  0.00  0.00    +0.002 C 
ATOM     22  C   UNL     1      -0.589 -12.555  -2.956  0.00  0.00    +0.003 C 
ATOM     23  C   UNL     1      -1.369 -11.838  -1.851  0.00  0.00    -0.009 C 
ATOM     24  C   UNL     1      -1.634 -10.391  -2.271  0.00  0.00    +0.009 C 
ATOM     25  C   UNL     1      -2.451 -10.376  -3.564  0.00  0.00    +0.009 C 
ATOM     26  C   UNL     1      -2.701 -12.554  -1.621  0.00  0.00    +0.008 C 
ENDBRANCH  17  19
ENDBRANCH   5  15
BRANCH   1  27
ATOM     27  C   UNL     1       0.821  -2.014  -1.417  0.00  0.00    +0.099 C 
BRANCH  27  28
ATOM     28  C   UNL     1       0.943  -0.489  -1.371  0.00  0.00    -0.006 C 
ATOM     29  C   UNL     1       2.420  -0.094  -1.425  0.00  0.00    +0.008 C 
BRANCH  28  31
ATOM     30  C   UNL     1       0.331   1.562  -0.084  0.00  0.00    +0.004 C 
ATOM     31  C   UNL     1       0.322   0.033  -0.074  0.00  0.00    +0.000 C 
ENDBRANCH  28  31
ENDBRANCH  27  28
ENDBRANCH   1  27
TORSDOF 5
