REMARK  Name = ZINC13567317
REMARK  9 active torsions:
REMARK  status: ('A' for Active; 'I' for Inactive)
REMARK    1  A    between atoms: C_1  and  O_2
REMARK    2  A    between atoms: O_2  and  C_3
REMARK    3  A    between atoms: C_5  and  C_12
REMARK    4  A    between atoms: C_7  and  O_10
REMARK    5  A    between atoms: C_8  and  O_9
REMARK    6  A    between atoms: O_10  and  C_11
REMARK    7  A    between atoms: C_23  and  S_25
REMARK    8  A    between atoms: S_25  and  C_26
REMARK    9  A    between atoms: C_26  and  C_27
REMARK                            x       y       z     vdW  Elec       q    Type
REMARK                         _______ _______ _______ _____ _____    ______ ____
ROOT
ATOM      1  C   UNL     1      -4.871   0.264   0.038  0.00  0.00    +0.067 C 
ATOM      2  C   UNL     1      -5.678  -0.074   1.293  0.00  0.00    +0.109 C 
ATOM      3  C   UNL     1      -6.272  -1.451   1.166  0.00  0.00    +0.219 C 
ATOM      4  O   UNL     1      -6.373  -2.152   2.150  0.00  0.00    -0.275 OA
ATOM      5  N   UNL     1      -6.693  -1.916  -0.025  0.00  0.00    -0.270 N 
ATOM      6  C   UNL     1      -6.562  -1.141  -1.170  0.00  0.00    +0.137 A 
ATOM      7  C   UNL     1      -5.683  -0.065  -1.184  0.00  0.00    +0.067 A 
ATOM      8  C   UNL     1      -5.572   0.694  -2.341  0.00  0.00    +0.280 A 
ATOM      9  O   UNL     1      -4.725   1.750  -2.394  0.00  0.00    -0.265 OA
ATOM     10  N   UNL     1      -6.311   0.365  -3.397  0.00  0.00    -0.183 NA
ATOM     11  C   UNL     1      -7.141  -0.667  -3.350  0.00  0.00    +0.194 A 
ATOM     12  N   UNL     1      -7.270  -1.413  -2.261  0.00  0.00    -0.206 NA
ATOM     13  H   UNL     1      -7.090  -2.799  -0.085  0.00  0.00    +0.156 HD
ENDROOT
BRANCH   1  16
ATOM     14  C   UNL     1      -1.201  -0.638   0.010  0.00  0.00    +0.165 A 
ATOM     15  C   UNL     1      -2.375   0.101   0.019  0.00  0.00    +0.054 A 
ATOM     16  C   UNL     1      -3.598  -0.543   0.028  0.00  0.00    -0.032 A 
ATOM     17  C   UNL     1      -3.657  -1.924   0.027  0.00  0.00    +0.054 A 
ATOM     18  C   UNL     1      -2.488  -2.670   0.017  0.00  0.00    +0.165 A 
ATOM     19  C   UNL     1      -1.256  -2.027   0.003  0.00  0.00    +0.201 A 
BRANCH  14  21
ATOM     20  C   UNL     1      -0.017   1.425   0.010  0.00  0.00    +0.277 C 
ATOM     21  O   UNL     1       0.002  -0.004   0.002  0.00  0.00    -0.491 OA
ENDBRANCH  14  21
BRANCH  19  22
ATOM     22  O   UNL     1      -0.106  -2.755  -0.012  0.00  0.00    -0.501 OA
ATOM     23  H   UNL     1       0.234  -2.970   0.867  0.00  0.00    +0.292 HD
ENDBRANCH  19  22
BRANCH  18  24
ATOM     24  O   UNL     1      -2.547  -4.028   0.017  0.00  0.00    -0.491 OA
ATOM     25  C   UNL     1      -3.847  -4.621   0.026  0.00  0.00    +0.277 C 
ENDBRANCH  18  24
ENDBRANCH   1  16
BRANCH  11  26
ATOM     26  S   UNL     1      -8.099  -1.061  -4.776  0.00  0.00    -0.081 S 
BRANCH  26  27
ATOM     27  C   UNL     1      -7.609   0.191  -5.993  0.00  0.00    +0.114 C 
BRANCH  27  28
ATOM     28  C   UNL     1      -8.365  -0.034  -7.277  0.00  0.00    -0.019 A 
ATOM     29  C   UNL     1      -7.840  -0.861  -8.252  0.00  0.00    +0.006 A 
ATOM     30  C   UNL     1      -8.534  -1.067  -9.430  0.00  0.00    +0.000 A 
ATOM     31  C   UNL     1      -9.752  -0.446  -9.634  0.00  0.00    +0.001 A 
ATOM     32  C   UNL     1     -10.277   0.381  -8.659  0.00  0.00    +0.020 A 
ATOM     33  C   UNL     1      -9.586   0.584  -7.478  0.00  0.00    +0.045 A 
ATOM     34 CL   UNL     1     -10.248   1.618  -6.251  0.00  0.00    -0.083 Cl
ENDBRANCH  27  28
ENDBRANCH  26  27
ENDBRANCH  11  26
TORSDOF 7
