REMARK  Name = ZINC40736755
REMARK  12 active torsions:
REMARK  status: ('A' for Active; 'I' for Inactive)
REMARK    1  A    between atoms: C_1  and  C_2
REMARK    2  A    between atoms: C_2  and  O_3
REMARK    3  A    between atoms: O_3  and  C_4
REMARK    4  A    between atoms: C_6  and  C_19
REMARK    5  A    between atoms: C_9  and  O_10
REMARK    6  A    between atoms: O_10  and  C_11
REMARK    7  A    between atoms: C_11  and  C_12
REMARK    8  A    between atoms: C_17  and  C_18
REMARK    9  A    between atoms: C_19  and  N_20
REMARK   10  A    between atoms: N_20  and  C_21
REMARK   11  A    between atoms: C_21  and  C_22
REMARK   12  A    between atoms: C_22  and  C_23
REMARK                            x       y       z     vdW  Elec       q    Type
REMARK                         _______ _______ _______ _____ _____    ______ ____
ROOT
ATOM      1  C   UNL     1      -1.498  -1.849   0.006  0.00  0.00    +0.162 A 
ATOM      2  C   UNL     1      -0.389  -2.680  -0.003  0.00  0.00    +0.051 A 
ATOM      3  C   UNL     1      -0.553  -4.052  -0.008  0.00  0.00    -0.061 A 
ATOM      4  C   UNL     1      -1.823  -4.600  -0.005  0.00  0.00    +0.005 A 
ATOM      5  C   UNL     1      -2.934  -3.777   0.004  0.00  0.00    +0.049 A 
ATOM      6  C   UNL     1      -2.776  -2.400   0.016  0.00  0.00    +0.162 A 
ENDROOT
BRANCH   1   7
ATOM      7  O   UNL     1      -1.339  -0.499   0.012  0.00  0.00    -0.489 OA
BRANCH   7   9
ATOM      8  C   UNL     1      -0.019   1.526   0.010  0.00  0.00    +0.048 C 
ATOM      9  C   UNL     1       0.002  -0.004   0.002  0.00  0.00    +0.226 C 
ENDBRANCH   7   9
ENDBRANCH   1   7
BRANCH   6  10
ATOM     10  O   UNL     1      -3.868  -1.589   0.030  0.00  0.00    -0.484 OA
BRANCH  10  11
ATOM     11  C   UNL     1      -5.148  -2.225   0.039  0.00  0.00    +0.265 C 
BRANCH  11  12
ATOM     12  C   UNL     1      -6.229  -1.175   0.055  0.00  0.00    -0.007 A 
ATOM     13  C   UNL     1      -5.892   0.166   0.053  0.00  0.00    +0.007 A 
ATOM     14  C   UNL     1      -6.884   1.128   0.068  0.00  0.00    +0.000 A 
ATOM     15  C   UNL     1      -8.214   0.750   0.084  0.00  0.00    +0.000 A 
ATOM     16  C   UNL     1      -8.551  -0.591   0.085  0.00  0.00    +0.004 A 
ATOM     17  C   UNL     1      -7.559  -1.553   0.066  0.00  0.00    -0.044 A 
ATOM     18  C   UNL     1      -7.927  -3.014   0.061  0.00  0.00    +0.044 C 
ENDBRANCH  11  12
ENDBRANCH  10  11
ENDBRANCH   6  10
BRANCH   3  19
ATOM     19  C   UNL     1       0.654  -4.954  -0.018  0.00  0.00    -0.047 C 
BRANCH  19  20
ATOM     20  N   UNL     1       1.053  -5.253   1.363  0.00  0.00    +0.382 N 
ATOM     21  H   UNL     1       1.279  -4.394   1.842  0.00  0.00    -0.085 HD
ATOM     22  H   UNL     1       0.293  -5.714   1.841  0.00  0.00    -0.085 HD
BRANCH  20  23
ATOM     23  C   UNL     1       2.230  -6.132   1.354  0.00  0.00    -0.077 C 
BRANCH  23  24
ATOM     24  C   UNL     1       2.646  -6.444   2.793  0.00  0.00    +0.018 C 
BRANCH  24  25
ATOM     25  C   UNL     1       3.853  -7.345   2.783  0.00  0.00    -0.024 A 
ATOM     26  C   UNL     1       3.850  -8.685   2.865  0.00  0.00    +0.087 A 
ATOM     27  N   UNL     1       5.133  -9.158   2.825  0.00  0.00    -0.360 N 
ATOM     28  H   UNL     1       5.384 -10.094   2.868  0.00  0.00    +0.165 HD
ATOM     29  C   UNL     1       6.016  -8.108   2.712  0.00  0.00    +0.047 A 
ATOM     30  C   UNL     1       5.253  -6.926   2.675  0.00  0.00    +0.003 A 
ATOM     31  C   UNL     1       5.889  -5.689   2.558  0.00  0.00    +0.010 A 
ATOM     32  C   UNL     1       7.252  -5.633   2.476  0.00  0.00    +0.001 A 
ATOM     33  C   UNL     1       8.009  -6.795   2.509  0.00  0.00    +0.002 A 
ATOM     34  C   UNL     1       7.403  -8.026   2.633  0.00  0.00    +0.026 A 
ENDBRANCH  24  25
ENDBRANCH  23  24
ENDBRANCH  20  23
ENDBRANCH  19  20
ENDBRANCH   3  19
TORSDOF 10
