REMARK  Name = ZINC40782433
REMARK  4 active torsions:
REMARK  status: ('A' for Active; 'I' for Inactive)
REMARK    1  A    between atoms: C_6  and  N_7
REMARK    2  A    between atoms: C_9  and  N_21
REMARK    3  A    between atoms: C_10  and  O_14
REMARK    4  A    between atoms: O_14  and  C_15
REMARK                            x       y       z     vdW  Elec       q    Type
REMARK                         _______ _______ _______ _____ _____    ______ ____
ROOT
ATOM      1  N   UNL     1      -1.198  -0.721   0.010  0.00  0.00    -0.298 N 
ATOM      2  C   UNL     1      -1.181  -2.106  -0.102  0.00  0.00    +0.151 A 
ATOM      3  C   UNL     1      -2.375  -2.825  -0.206  0.00  0.00    +0.128 A 
ATOM      4  C   UNL     1      -2.301  -4.212  -0.317  0.00  0.00    +0.241 A 
ATOM      5  N   UNL     1      -1.106  -4.796  -0.320  0.00  0.00    -0.200 NA
ATOM      6  C   UNL     1      -0.003  -4.082  -0.220  0.00  0.00    +0.227 A 
ATOM      7  N   UNL     1      -0.027  -2.769  -0.119  0.00  0.00    -0.218 NA
ATOM      8  H   UNL     1      -2.042  -0.252   0.099  0.00  0.00    +0.154 HD
ENDROOT
BRANCH   1  14
ATOM      9  C   UNL     1       1.075  -0.458  -0.760  0.00  0.00    +0.024 A 
ATOM     10  C   UNL     1       2.259   0.253  -0.772  0.00  0.00    +0.016 A 
ATOM     11  C   UNL     1       2.377   1.417  -0.033  0.00  0.00    +0.013 A 
ATOM     12  C   UNL     1       1.309   1.872   0.720  0.00  0.00    +0.016 A 
ATOM     13  C   UNL     1       0.123   1.165   0.736  0.00  0.00    +0.024 A 
ATOM     14  C   UNL     1       0.002  -0.004  -0.004  0.00  0.00    +0.032 A 
ATOM     15  I   UNL     1       4.175   2.491  -0.054  0.00  0.00    -0.044 I 
ENDBRANCH   1  14
BRANCH   3  16
ATOM     16  N   UNL     1      -3.615  -2.167  -0.198  0.00  0.00    -0.351 N 
ATOM     17  H   UNL     1      -3.651  -1.201  -0.120  0.00  0.00    +0.143 HD
ATOM     18  H   UNL     1      -4.436  -2.679  -0.271  0.00  0.00    +0.143 HD
ENDBRANCH   3  16
BRANCH   4  19
ATOM     19  O   UNL     1      -3.431  -4.956  -0.420  0.00  0.00    -0.472 OA
BRANCH  19  20
ATOM     20  C   UNL     1      -3.268  -6.371  -0.530  0.00  0.00    +0.175 C 
ATOM     21  C   UNL     1      -3.157  -6.759  -2.006  0.00  0.00    +0.044 C 
ATOM     22  C   UNL     1      -2.982  -8.274  -2.124  0.00  0.00    +0.004 C 
ATOM     23  C   UNL     1      -4.191  -8.976  -1.502  0.00  0.00    +0.000 C 
ATOM     24  C   UNL     1      -4.303  -8.589  -0.026  0.00  0.00    +0.004 C 
ATOM     25  C   UNL     1      -4.477  -7.074   0.092  0.00  0.00    +0.044 C 
ENDBRANCH  19  20
ENDBRANCH   4  19
TORSDOF 4
