REMARK  Name = ZINC36660388
REMARK  12 active torsions:
REMARK  status: ('A' for Active; 'I' for Inactive)
REMARK    1  A    between atoms: C_1  and  C_2
REMARK    2  A    between atoms: C_2  and  C_3
REMARK    3  A    between atoms: C_3  and  N_4
REMARK    4  A    between atoms: C_10  and  N_16
REMARK    5  A    between atoms: C_11  and  C_12
REMARK    6  A    between atoms: C_12  and  O_14
REMARK    7  A    between atoms: O_14  and  C_15
REMARK    8  A    between atoms: C_17  and  C_19
REMARK    9  A    between atoms: N_24  and  S_25
REMARK   10  A    between atoms: S_25  and  C_28
REMARK   11  A    between atoms: C_31  and  O_34
REMARK   12  A    between atoms: O_34  and  C_35
REMARK                            x       y       z     vdW  Elec       q    Type
REMARK                         _______ _______ _______ _____ _____    ______ ____
ROOT
ATOM      1  N   UNL     1      -0.415  -7.345   2.434  0.00  0.00    -0.278 N 
ATOM      2  C   UNL     1       0.160  -7.809   3.561  0.00  0.00    +0.236 C 
ATOM      3  O   UNL     1       0.537  -7.033   4.413  0.00  0.00    -0.274 OA
ATOM      4  H   UNL     1      -0.717  -7.966   1.752  0.00  0.00    +0.155 HD
ENDROOT
BRANCH   1  11
ATOM      5  N   UNL     1      -0.789  -1.121   1.428  0.00  0.00    +0.383 N 
ATOM      6  C   UNL     1      -2.008  -1.595   0.759  0.00  0.00    -0.074 C 
ATOM      7  C   UNL     1      -1.768  -2.974   0.136  0.00  0.00    +0.018 C 
ATOM      8  C   UNL     1      -1.190  -3.880   1.215  0.00  0.00    -0.025 A 
ATOM      9  C   UNL     1      -0.665  -3.346   2.341  0.00  0.00    -0.021 A 
ATOM     10  S   UNL     1      -0.131  -4.739   3.289  0.00  0.00    -0.079 S 
ATOM     11  C   UNL     1      -0.576  -5.981   2.249  0.00  0.00    +0.086 A 
ATOM     12  C   UNL     1      -1.142  -5.328   1.163  0.00  0.00    +0.091 A 
ATOM     13  C   UNL     1      -0.574  -1.889   2.668  0.00  0.00    -0.035 C 
ATOM     14  H   UNL     1       0.002  -1.248   0.813  0.00  0.00    -0.081 HD
BRANCH  12  15
ATOM     15  C   UNL     1      -1.667  -6.069   0.014  0.00  0.00    +0.342 C 
ATOM     16  O   UNL     1      -0.939  -6.328  -0.926  0.00  0.00    -0.245 OA
BRANCH  15  17
ATOM     17  O   UNL     1      -2.956  -6.464  -0.002  0.00  0.00    -0.464 OA
ATOM     18  C   UNL     1      -3.400  -7.183  -1.154  0.00  0.00    +0.280 C 
ENDBRANCH  15  17
ENDBRANCH  12  15
BRANCH   5  19
ATOM     19  C   UNL     1      -0.931   0.304   1.753  0.00  0.00    -0.079 C 
BRANCH  19  21
ATOM     20  C   UNL     1       0.235   2.314   2.671  0.00  0.00    +0.002 C 
ATOM     21  C   UNL     1       0.384   0.829   2.332  0.00  0.00    -0.022 C 
ENDBRANCH  19  21
ENDBRANCH   5  19
ENDBRANCH   1  11
BRANCH   2  22
ATOM     22  C   UNL     1       0.335  -9.293   3.762  0.00  0.00    +0.166 C 
ATOM     23  C   UNL     1      -0.921  -9.883   4.436  0.00  0.00    +0.031 C 
ATOM     24  C   UNL     1      -0.330 -10.933   5.413  0.00  0.00    +0.019 C 
ATOM     25  C   UNL     1       0.979 -10.237   5.864  0.00  0.00    +0.110 C 
ATOM     26  N   UNL     1       1.474  -9.545   4.657  0.00  0.00    -0.165 NA
BRANCH  26  27
ATOM     27  S   UNL     1       3.048  -9.123   4.358  0.00  0.00    +0.062 S 
ATOM     28  O   UNL     1       3.017  -8.137   3.335  0.00  0.00    -0.153 OA
ATOM     29  O   UNL     1       3.652  -8.890   5.623  0.00  0.00    -0.153 OA
BRANCH  27  30
ATOM     30  C   UNL     1       3.845 -10.537   3.672  0.00  0.00    +0.106 A 
ATOM     31  C   UNL     1       4.384 -11.498   4.506  0.00  0.00    +0.032 A 
ATOM     32  C   UNL     1       5.010 -12.607   3.971  0.00  0.00    +0.047 A 
ATOM     33  C   UNL     1       5.097 -12.756   2.594  0.00  0.00    +0.120 A 
ATOM     34  C   UNL     1       4.555 -11.790   1.759  0.00  0.00    +0.047 A 
ATOM     35  C   UNL     1       3.925 -10.685   2.300  0.00  0.00    +0.032 A 
BRANCH  33  36
ATOM     36  O   UNL     1       5.712 -13.846   2.065  0.00  0.00    -0.495 OA
ATOM     37  C   UNL     1       5.765 -13.933   0.639  0.00  0.00    +0.277 C 
ENDBRANCH  33  36
ENDBRANCH  27  30
ENDBRANCH  26  27
ENDBRANCH   2  22
TORSDOF 9
