REMARK  Name = ZINC49851298
REMARK  2 active torsions:
REMARK  status: ('A' for Active; 'I' for Inactive)
REMARK    1  A    between atoms: C_5  and  C_7
REMARK    2  A    between atoms: C_18  and  C_20
REMARK                            x       y       z     vdW  Elec       q    Type
REMARK                         _______ _______ _______ _____ _____    ______ ____
ROOT
ATOM      1  C   UNL     1       2.288  -1.852   0.138  0.00  0.00    +0.156 C 
ATOM      2  C   UNL     1       1.207  -2.349   1.114  0.00  0.00    +0.113 C 
ATOM      3  C   UNL     1       0.070  -3.137   0.482  0.00  0.00    +0.065 C 
ATOM      4  C   UNL     1      -0.791  -3.899   1.393  0.00  0.00    +0.040 A 
ATOM      5  C   UNL     1      -2.042  -4.368   0.995  0.00  0.00    +0.033 A 
ATOM      6  C   UNL     1      -2.814  -5.089   1.882  0.00  0.00    +0.042 A 
ATOM      7  C   UNL     1      -2.347  -5.345   3.163  0.00  0.00    +0.023 A 
ATOM      8  C   UNL     1      -1.111  -4.882   3.568  0.00  0.00    +0.048 A 
ATOM      9  C   UNL     1      -0.319  -4.152   2.695  0.00  0.00    +0.130 A 
ATOM     10  O   UNL     1       0.886  -3.685   3.098  0.00  0.00    -0.483 OA
ATOM     11  C   UNL     1       1.853  -3.304   2.117  0.00  0.00    +0.216 C 
ATOM     12 CL   UNL     1      -4.374  -5.676   1.396  0.00  0.00    -0.084 Cl
ATOM     13  N   UNL     1      -0.059  -3.164  -0.803  0.00  0.00    -0.215 NA
ATOM     14  C   UNL     1       0.819  -2.613  -1.677  0.00  0.00    +0.249 A 
ATOM     15  N   UNL     1       1.962  -2.000  -1.289  0.00  0.00    -0.221 N 
ATOM     16  N   UNL     1       2.625  -1.602  -2.456  0.00  0.00    -0.156 NA
ATOM     17  C   UNL     1       1.863  -1.950  -3.461  0.00  0.00    +0.247 A 
ATOM     18  N   UNL     1       0.781  -2.553  -3.004  0.00  0.00    -0.198 NA
ENDROOT
BRANCH   1  23
ATOM     19  C   UNL     1       1.742   1.859   0.568  0.00  0.00    +0.001 A 
ATOM     20  C   UNL     1       3.008   2.286   0.926  0.00  0.00    +0.003 A 
ATOM     21  C   UNL     1       4.041   1.375   1.030  0.00  0.00    +0.039 A 
ATOM     22  C   UNL     1       3.809   0.034   0.774  0.00  0.00    +0.129 A 
ATOM     23  C   UNL     1       2.542  -0.393   0.416  0.00  0.00    +0.013 A 
ATOM     24  C   UNL     1       1.509   0.521   0.314  0.00  0.00    +0.008 A 
ATOM     25  F   UNL     1       4.819  -0.858   0.875  0.00  0.00    -0.205 F 
ENDBRANCH   1  23
BRANCH  11  26
ATOM     26  C   UNL     1       2.349  -4.531   1.396  0.00  0.00    +0.012 A 
ATOM     27  C   UNL     1       1.469  -5.548   1.079  0.00  0.00    +0.009 A 
ATOM     28  C   UNL     1       1.924  -6.674   0.417  0.00  0.00    +0.000 A 
ATOM     29  C   UNL     1       3.258  -6.782   0.073  0.00  0.00    +0.001 A 
ATOM     30  C   UNL     1       4.139  -5.766   0.391  0.00  0.00    +0.020 A 
ATOM     31  C   UNL     1       3.683  -4.636   1.047  0.00  0.00    +0.048 A 
ATOM     32 CL   UNL     1       4.788  -3.356   1.440  0.00  0.00    -0.083 Cl
ENDBRANCH  11  26
TORSDOF 2
