REMARK  Name = ZINC09487247
REMARK  9 active torsions:
REMARK  status: ('A' for Active; 'I' for Inactive)
REMARK    1  A    between atoms: C_1  and  C_2
REMARK    2  A    between atoms: C_2  and  C_3
REMARK    3  A    between atoms: N_8  and  C_9
REMARK    4  A    between atoms: C_18  and  C_20
REMARK    5  A    between atoms: C_20  and  C_21
REMARK    6  A    between atoms: C_21  and  C_22
REMARK    7  A    between atoms: C_23  and  C_33
REMARK    8  A    between atoms: C_24  and  C_31
REMARK    9  A    between atoms: C_29  and  C_30
REMARK                            x       y       z     vdW  Elec       q    Type
REMARK                         _______ _______ _______ _____ _____    ______ ____
ROOT
ATOM      1  C   UNL     1      -4.702  -3.152  -2.542  0.00  0.00    +0.093 C 
ATOM      2  C   UNL     1      -5.081  -3.523  -3.989  0.00  0.00    +0.100 C 
ATOM      3  S   UNL     1      -3.812  -2.605  -4.940  0.00  0.00    -0.088 S 
ATOM      4  C   UNL     1      -2.929  -1.845  -3.593  0.00  0.00    +0.164 C 
ATOM      5  N   UNL     1      -1.889  -1.049  -3.675  0.00  0.00    -0.226 NA
ATOM      6  N   UNL     1      -3.566  -2.266  -2.451  0.00  0.00    -0.247 N 
ATOM      7  C   UNL     1      -3.126  -1.856  -1.244  0.00  0.00    +0.222 C 
ATOM      8  O   UNL     1      -3.740  -2.155  -0.242  0.00  0.00    -0.275 OA
ENDROOT
BRANCH   5   9
ATOM      9  C   UNL     1      -1.370  -0.724  -4.900  0.00  0.00    +0.068 A 
ATOM     10  C   UNL     1      -1.174  -1.715  -5.864  0.00  0.00    +0.029 A 
ATOM     11  C   UNL     1      -0.656  -1.380  -7.098  0.00  0.00    +0.023 A 
ATOM     12  C   UNL     1      -0.321  -0.067  -7.379  0.00  0.00    +0.059 A 
ATOM     13  C   UNL     1      -0.507   0.921  -6.425  0.00  0.00    +0.061 A 
ATOM     14  C   UNL     1      -1.030   0.599  -5.188  0.00  0.00    +0.049 A 
ATOM     15 CL   UNL     1      -0.084   2.565  -6.786  0.00  0.00    -0.082 Cl
ATOM     16 CL   UNL     1       0.336   0.345  -8.932  0.00  0.00    -0.082 Cl
ENDBRANCH   5   9
BRANCH   1  18
ATOM     17  C   UNL     1      -5.625  -5.333  -1.744  0.00  0.00    +0.006 C 
ATOM     18  C   UNL     1      -4.386  -4.435  -1.770  0.00  0.00    +0.020 C 
ENDBRANCH   1  18
BRANCH   7  19
ATOM     19  C   UNL     1      -1.872  -1.027  -1.141  0.00  0.00    +0.101 C 
BRANCH  19  20
ATOM     20  C   UNL     1      -1.598  -0.698   0.328  0.00  0.00    +0.046 C 
BRANCH  20  21
ATOM     21  C   UNL     1      -0.344   0.132   0.431  0.00  0.00    -0.024 A 
ATOM     22  C   UNL     1       0.903  -0.494   0.477  0.00  0.00    -0.023 A 
ATOM     23  C   UNL     1       2.049   0.292   0.572  0.00  0.00    +0.119 A 
ATOM     24  C   UNL     1       1.908   1.704   0.620  0.00  0.00    +0.267 A 
ATOM     25  O   UNL     1       2.896   2.414   0.704  0.00  0.00    -0.266 OA
ATOM     26  N   UNL     1       0.681   2.256   0.573  0.00  0.00    -0.325 N 
ATOM     27  H   UNL     1       0.591   3.221   0.606  0.00  0.00    +0.169 HD
ATOM     28  C   UNL     1      -0.429   1.485   0.480  0.00  0.00    +0.019 A 
ATOM     29  C   UNL     1      -1.784   2.143   0.423  0.00  0.00    +0.063 C 
ATOM     30  C   UNL     1       1.008  -1.996   0.423  0.00  0.00    +0.045 C 
BRANCH  23  31
ATOM     31  C   UNL     1       3.345  -0.314   0.621  0.00  0.00    +0.105 C 
ATOM     32  N   UNL     1       4.374  -0.794   0.660  0.00  0.00    -0.191 NA
ENDBRANCH  23  31
ENDBRANCH  20  21
ENDBRANCH  19  20
ENDBRANCH   7  19
TORSDOF 6
