REMARK  Name = ZINC02967677
REMARK  8 active torsions:
REMARK  status: ('A' for Active; 'I' for Inactive)
REMARK    1  A    between atoms: C_9  and  C_28
REMARK    2  A    between atoms: C_14  and  S_16
REMARK    3  A    between atoms: S_16  and  C_17
REMARK    4  A    between atoms: C_17  and  C_18
REMARK    5  A    between atoms: N_20  and  C_21
REMARK    6  A    between atoms: C_28  and  C_29
REMARK    7  A    between atoms: C_29  and  C_30
REMARK    8  A    between atoms: N_32  and  C_33
REMARK                            x       y       z     vdW  Elec       q    Type
REMARK                         _______ _______ _______ _____ _____    ______ ____
ROOT
ATOM      1  C   UNL     1       3.486   3.506   0.035  0.00  0.00    +0.001 A 
ATOM      2  C   UNL     1       2.258   4.153   0.050  0.00  0.00    +0.002 A 
ATOM      3  C   UNL     1       1.082   3.436   0.049  0.00  0.00    +0.028 A 
ATOM      4  C   UNL     1       1.123   2.040   0.033  0.00  0.00    +0.077 A 
ATOM      5  C   UNL     1       2.372   1.387   0.018  0.00  0.00    +0.041 A 
ATOM      6  C   UNL     1       3.550   2.128   0.019  0.00  0.00    +0.013 A 
ATOM      7  C   UNL     1       2.391  -0.092   0.001  0.00  0.00    +0.139 C 
ATOM      8  N   UNL     1       3.394  -0.924  -0.015  0.00  0.00    -0.255 NA
ATOM      9  C   UNL     1       2.848  -2.288  -0.028  0.00  0.00    +0.194 C 
ATOM     10  C   UNL     1       1.348  -2.082  -0.017  0.00  0.00    +0.251 C 
ATOM     11  O   UNL     1       0.490  -2.938  -0.022  0.00  0.00    -0.272 OA
ATOM     12  N   UNL     1       1.168  -0.741  -0.000  0.00  0.00    -0.200 N 
ATOM     13  C   UNL     1       0.002  -0.004   0.015  0.00  0.00    +0.169 C 
ATOM     14  N   UNL     1      -0.015   1.302   0.031  0.00  0.00    -0.225 NA
ENDROOT
BRANCH  13  15
ATOM     15  S   UNL     1      -1.535  -0.864   0.015  0.00  0.00    -0.080 S 
BRANCH  15  16
ATOM     16  C   UNL     1      -2.680   0.538   0.038  0.00  0.00    +0.173 C 
BRANCH  16  17
ATOM     17  C   UNL     1      -4.098   0.029   0.041  0.00  0.00    +0.227 C 
ATOM     18  O   UNL     1      -4.314  -1.165   0.028  0.00  0.00    -0.275 OA
ATOM     19  N   UNL     1      -5.127   0.899   0.058  0.00  0.00    -0.285 N 
ATOM     20  H   UNL     1      -4.956   1.851   0.136  0.00  0.00    +0.155 HD
BRANCH  19  21
ATOM     21  C   UNL     1      -6.443   0.430  -0.037  0.00  0.00    +0.034 A 
ATOM     22  C   UNL     1      -7.399   1.175  -0.715  0.00  0.00    +0.026 A 
ATOM     23  C   UNL     1      -8.695   0.708  -0.812  0.00  0.00    +0.040 A 
ATOM     24  C   UNL     1      -9.044  -0.496  -0.225  0.00  0.00    +0.124 A 
ATOM     25  C   UNL     1      -8.093  -1.238   0.457  0.00  0.00    +0.040 A 
ATOM     26  C   UNL     1      -6.795  -0.777   0.551  0.00  0.00    +0.026 A 
ATOM     27  F   UNL     1     -10.314  -0.949  -0.316  0.00  0.00    -0.205 F 
ENDBRANCH  19  21
ENDBRANCH  16  17
ENDBRANCH  15  16
ENDBRANCH  13  15
BRANCH   9  28
ATOM     28  C   UNL     1       3.293  -3.056   1.218  0.00  0.00    +0.045 C 
BRANCH  28  29
ATOM     29  C   UNL     1       4.807  -3.273   1.170  0.00  0.00    +0.098 C 
BRANCH  29  30
ATOM     30  C   UNL     1       5.245  -4.029   2.397  0.00  0.00    +0.213 C 
ATOM     31  O   UNL     1       4.428  -4.362   3.229  0.00  0.00    -0.276 OA
ATOM     32  N   UNL     1       6.546  -4.336   2.571  0.00  0.00    -0.312 N 
ATOM     33  H   UNL     1       7.200  -4.070   1.906  0.00  0.00    +0.149 HD
BRANCH  32  34
ATOM     34  C   UNL     1       6.973  -5.071   3.764  0.00  0.00    +0.073 C 
ATOM     35  C   UNL     1       7.202  -4.088   4.914  0.00  0.00    +0.022 C 
ATOM     36  C   UNL     1       7.647  -4.856   6.160  0.00  0.00    +0.002 C 
ATOM     37  C   UNL     1       8.948  -5.604   5.861  0.00  0.00    +0.000 C 
ATOM     38  C   UNL     1       8.719  -6.587   4.711  0.00  0.00    +0.002 C 
ATOM     39  C   UNL     1       8.273  -5.819   3.465  0.00  0.00    +0.022 C 
ENDBRANCH  32  34
ENDBRANCH  29  30
ENDBRANCH  28  29
ENDBRANCH   9  28
TORSDOF 8
