REMARK  Name = ZINC24501111
REMARK  9 active torsions:
REMARK  status: ('A' for Active; 'I' for Inactive)
REMARK    1  A    between atoms: C_1  and  C_2
REMARK    2  A    between atoms: C_5  and  C_8
REMARK    3  A    between atoms: C_8  and  C_10
REMARK    4  A    between atoms: C_8  and  N_17
REMARK    5  A    between atoms: C_10  and  N_11
REMARK    6  A    between atoms: C_18  and  C_20
REMARK    7  A    between atoms: C_21  and  C_33
REMARK    8  A    between atoms: C_27  and  C_31
REMARK    9  A    between atoms: C_27  and  C_32
REMARK                            x       y       z     vdW  Elec       q    Type
REMARK                         _______ _______ _______ _____ _____    ______ ____
ROOT
ATOM      1  N   UNL     1       2.366   1.534   1.237  0.00  0.00    -0.302 N 
ATOM      2  C   UNL     1       3.057   0.379   1.156  0.00  0.00    +0.261 C 
ATOM      3  O   UNL     1       2.980  -0.307   0.155  0.00  0.00    -0.269 OA
ATOM      4  H   UNL     1       2.375   2.116   2.171  0.00  0.00    +0.150 HD
ENDROOT
BRANCH   2   5
ATOM      5  C   UNL     1       3.904  -0.050   2.277  0.00  0.00    +0.106 A 
ATOM      6  C   UNL     1       4.652  -1.193   2.321  0.00  0.00    -0.010 A 
ATOM      7  C   UNL     1       5.295  -1.204   3.564  0.00  0.00    +0.042 A 
ATOM      8  C   UNL     1       4.911  -0.050   4.249  0.00  0.00    +0.028 A 
ATOM      9  N   UNL     1       4.083   0.637   3.463  0.00  0.00    -0.354 N 
ATOM     10  H   UNL     1       3.570   1.596   3.626  0.00  0.00    +0.166 HD
ATOM     11  C   UNL     1       5.405   0.281   5.635  0.00  0.00    +0.060 C 
ATOM     12  C   UNL     1       5.908  -0.998   6.310  0.00  0.00    -0.023 C 
ATOM     13  C   UNL     1       6.929  -1.714   5.421  0.00  0.00    +0.086 C 
ATOM     14  C   UNL     1       6.223  -2.179   4.156  0.00  0.00    +0.166 C 
ATOM     15  O   UNL     1       6.411  -3.276   3.672  0.00  0.00    -0.292 OA
ATOM     16  C   UNL     1       4.723  -1.931   6.569  0.00  0.00    +0.011 C 
ATOM     17  C   UNL     1       6.566  -0.637   7.644  0.00  0.00    +0.011 C 
ATOM     18  C   UNL     1       4.762  -2.239   1.241  0.00  0.00    +0.047 C 
ENDBRANCH   2   5
BRANCH   1  19
ATOM     19  C   UNL     1       1.603   2.013   0.082  0.00  0.00    +0.117 C 
BRANCH  19  24
ATOM     20  C   UNL     1       1.736   7.788  -0.053  0.00  0.00    +0.044 C 
ATOM     21  C   UNL     1       1.701   6.282  -0.018  0.00  0.00    -0.050 A 
ATOM     22  C   UNL     1       1.807   5.561  -1.192  0.00  0.00    +0.004 A 
ATOM     23  C   UNL     1       1.776   4.179  -1.160  0.00  0.00    +0.006 A 
ATOM     24  C   UNL     1       1.637   3.519   0.047  0.00  0.00    -0.026 A 
ATOM     25  C   UNL     1       1.525   4.241   1.221  0.00  0.00    +0.006 A 
ATOM     26  C   UNL     1       1.562   5.622   1.189  0.00  0.00    +0.004 A 
ENDBRANCH  19  24
BRANCH  19  27
ATOM     27  C   UNL     1       0.153   1.539   0.198  0.00  0.00    +0.111 C 
BRANCH  27  28
ATOM     28  N   UNL     1       0.122   0.072   0.281  0.00  0.00    -0.296 NA
ATOM     29  C   UNL     1       0.442  -0.536  -1.019  0.00  0.00    +0.112 C 
ATOM     30  C   UNL     1       0.458  -2.060  -0.873  0.00  0.00    +0.175 C 
ATOM     31  O   UNL     1      -0.806  -2.498  -0.367  0.00  0.00    -0.377 OA
ATOM     32  C   UNL     1      -1.149  -1.926   0.898  0.00  0.00    +0.175 C 
ATOM     33  C   UNL     1      -1.181  -0.401   0.770  0.00  0.00    +0.112 C 
ENDBRANCH  27  28
ENDBRANCH  19  27
ENDBRANCH   1  19
TORSDOF 5
