REMARK  Name = ZINC33113602
REMARK  11 active torsions:
REMARK  status: ('A' for Active; 'I' for Inactive)
REMARK    1  A    between atoms: C_1  and  C_2
REMARK    2  A    between atoms: C_2  and  O_3
REMARK    3  A    between atoms: O_3  and  C_4
REMARK    4  A    between atoms: C_4  and  C_6
REMARK    5  A    between atoms: C_10  and  C_32
REMARK    6  A    between atoms: C_11  and  O_19
REMARK    7  A    between atoms: C_14  and  N_15
REMARK    8  A    between atoms: C_16  and  C_18
REMARK    9  A    between atoms: O_19  and  C_20
REMARK   10  A    between atoms: C_20  and  C_21
REMARK   11  A    between atoms: N_23  and  C_24
REMARK                            x       y       z     vdW  Elec       q    Type
REMARK                         _______ _______ _______ _____ _____    ______ ____
ROOT
ATOM      1  C   UNL     1      -1.264   1.910   0.081  0.00  0.00    +0.095 A 
ATOM      2  C   UNL     1      -1.918   2.285  -1.177  0.00  0.00    +0.009 A 
ATOM      3  C   UNL     1      -1.481   2.035  -2.498  0.00  0.00    +0.010 A 
ATOM      4  C   UNL     1      -2.221   2.453  -3.574  0.00  0.00    +0.007 A 
ATOM      5  C   UNL     1      -3.422   3.125  -3.404  0.00  0.00    -0.008 A 
ATOM      6  C   UNL     1      -3.882   3.381  -2.122  0.00  0.00    +0.138 A 
ATOM      7  C   UNL     1      -3.140   2.963  -1.032  0.00  0.00    +0.064 A 
ATOM      8  S   UNL     1      -3.369   3.088   0.723  0.00  0.00    -0.069 S 
ATOM      9  C   UNL     1      -1.890   2.258   1.267  0.00  0.00    +0.087 A 
ATOM     10  C   UNL     1      -4.218   3.574  -4.602  0.00  0.00    +0.047 C 
ENDROOT
BRANCH   9  11
ATOM     11  N   UNL     1      -1.467   2.020   2.561  0.00  0.00    -0.280 N 
ATOM     12  C   UNL     1      -2.215   2.437   3.602  0.00  0.00    +0.214 C 
ATOM     13  O   UNL     1      -3.259   3.021   3.403  0.00  0.00    -0.276 OA
ATOM     14  C   UNL     1      -1.755   2.177   5.013  0.00  0.00    +0.109 C 
ATOM     15  H   UNL     1      -0.521   1.490   2.742  0.00  0.00    +0.155 HD
ENDBRANCH   9  11
BRANCH   1  16
ATOM     16  C   UNL     1      -0.028   1.217   0.083  0.00  0.00    +0.342 C 
ATOM     17  O   UNL     1      -0.012   0.001   0.082  0.00  0.00    -0.245 OA
BRANCH  16  18
ATOM     18  O   UNL     1       1.132   1.907   0.081  0.00  0.00    -0.461 OA
BRANCH  18  20
ATOM     19  C   UNL     1       3.541   2.093   0.075  0.00  0.00    +0.048 C 
ATOM     20  C   UNL     1       2.340   1.145   0.077  0.00  0.00    +0.229 C 
ENDBRANCH  18  20
ENDBRANCH  16  18
ENDBRANCH   1  16
BRANCH   6  21
ATOM     21  O   UNL     1      -5.057   4.039  -1.936  0.00  0.00    -0.481 OA
BRANCH  21  22
ATOM     22  C   UNL     1      -4.995   5.464  -1.846  0.00  0.00    +0.325 C 
BRANCH  22  23
ATOM     23  C   UNL     1      -6.383   6.015  -1.643  0.00  0.00    +0.255 C 
ATOM     24  O   UNL     1      -7.332   5.262  -1.581  0.00  0.00    -0.272 OA
ATOM     25  N   UNL     1      -6.570   7.345  -1.529  0.00  0.00    -0.280 N 
ATOM     26  H   UNL     1      -5.703   8.023  -1.511  0.00  0.00    +0.155 HD
BRANCH  25  27
ATOM     27  C   UNL     1      -7.867   7.865  -1.433  0.00  0.00    +0.069 A 
ATOM     28  C   UNL     1      -8.853   7.154  -0.763  0.00  0.00    +0.027 A 
ATOM     29  C   UNL     1     -10.132   7.668  -0.670  0.00  0.00    +0.022 A 
ATOM     30  C   UNL     1     -10.431   8.891  -1.244  0.00  0.00    +0.044 A 
ATOM     31  C   UNL     1      -9.452   9.603  -1.913  0.00  0.00    +0.060 A 
ATOM     32  C   UNL     1      -8.168   9.096  -2.005  0.00  0.00    +0.146 A 
ATOM     33  F   UNL     1      -7.210   9.794  -2.653  0.00  0.00    -0.203 F 
ATOM     34 CL   UNL     1     -12.040   9.534  -1.125  0.00  0.00    -0.083 Cl
ENDBRANCH  25  27
ENDBRANCH  22  23
ENDBRANCH  21  22
ENDBRANCH   6  21
TORSDOF 8
