REMARK  Name = ZINC16921360
REMARK  8 active torsions:
REMARK  status: ('A' for Active; 'I' for Inactive)
REMARK    1  A    between atoms: C_1  and  C_2
REMARK    2  A    between atoms: C_2  and  C_10
REMARK    3  A    between atoms: C_3  and  C_4
REMARK    4  A    between atoms: N_14  and  C_18
REMARK    5  A    between atoms: C_18  and  C_19
REMARK    6  A    between atoms: N_21  and  C_22
REMARK    7  A    between atoms: C_25  and  O_30
REMARK    8  A    between atoms: C_27  and  C_28
REMARK                            x       y       z     vdW  Elec       q    Type
REMARK                         _______ _______ _______ _____ _____    ______ ____
ROOT
ATOM      1  C   UNL     1      -2.790   0.475   3.964  0.00  0.00    +0.023 C 
ATOM      2  C   UNL     1      -2.064   1.072   2.975  0.00  0.00    +0.079 C 
ATOM      3  C   UNL     1      -1.546   0.505   1.716  0.00  0.00    +0.261 C 
ATOM      4  O   UNL     1      -1.736  -0.659   1.414  0.00  0.00    -0.269 OA
ATOM      5  N   UNL     1      -0.866   1.324   0.932  0.00  0.00    -0.219 N 
ATOM      6  C   UNL     1      -0.654   2.612   1.273  0.00  0.00    +0.286 C 
ATOM      7  O   UNL     1      -0.048   3.467   0.655  0.00  0.00    -0.262 OA
ATOM      8  S   UNL     1      -1.480   2.757   2.849  0.00  0.00    -0.026 S 
ENDROOT
BRANCH   1  10
ATOM      9  C   UNL     1      -3.220   2.753   4.967  0.00  0.00    +0.044 C 
ATOM     10  C   UNL     1      -3.320   1.251   5.014  0.00  0.00    -0.049 C 
ATOM     11  C   UNL     1      -3.920   0.645   6.066  0.00  0.00    +0.011 C 
BRANCH  11  12
ATOM     12  C   UNL     1      -4.307   1.433   7.246  0.00  0.00    -0.025 A 
ATOM     13  C   UNL     1      -3.519   2.513   7.659  0.00  0.00    +0.008 A 
ATOM     14  C   UNL     1      -3.892   3.251   8.762  0.00  0.00    +0.001 A 
ATOM     15  C   UNL     1      -5.036   2.919   9.467  0.00  0.00    +0.000 A 
ATOM     16  C   UNL     1      -5.817   1.848   9.069  0.00  0.00    +0.001 A 
ATOM     17  C   UNL     1      -5.461   1.104   7.964  0.00  0.00    +0.008 A 
ENDBRANCH  11  12
ENDBRANCH   1  10
BRANCH   5  18
ATOM     18  C   UNL     1      -0.325   0.820  -0.333  0.00  0.00    +0.213 C 
BRANCH  18  19
ATOM     19  C   UNL     1      -1.342   1.014  -1.427  0.00  0.00    +0.235 C 
ATOM     20  O   UNL     1      -2.414   1.523  -1.176  0.00  0.00    -0.274 OA
ATOM     21  N   UNL     1      -1.062   0.621  -2.686  0.00  0.00    -0.283 N 
ATOM     22  H   UNL     1      -0.181   0.277  -2.901  0.00  0.00    +0.155 HD
BRANCH  21  23
ATOM     23  C   UNL     1      -2.038   0.709  -3.677  0.00  0.00    +0.048 A 
ATOM     24  C   UNL     1      -2.919   1.781  -3.694  0.00  0.00    +0.028 A 
ATOM     25  C   UNL     1      -3.885   1.869  -4.675  0.00  0.00    +0.047 A 
ATOM     26  C   UNL     1      -3.984   0.886  -5.654  0.00  0.00    +0.118 A 
ATOM     27  C   UNL     1      -3.115  -0.188  -5.651  0.00  0.00    +0.062 A 
ATOM     28  C   UNL     1      -2.129  -0.283  -4.665  0.00  0.00    +0.088 A 
BRANCH  28  29
ATOM     29  C   UNL     1      -1.194  -1.422  -4.660  0.00  0.00    +0.388 C 
ATOM     30  O   UNL     1      -0.407  -1.558  -3.744  0.00  0.00    -0.241 OA
ATOM     31  O   UNL     1      -1.211  -2.313  -5.670  0.00  0.00    -0.241 OA
ENDBRANCH  28  29
BRANCH  26  32
ATOM     32  O   UNL     1      -4.940   0.983  -6.616  0.00  0.00    -0.507 OA
ATOM     33  H   UNL     1      -4.655   1.463  -7.406  0.00  0.00    +0.292 HD
ENDBRANCH  26  32
ENDBRANCH  21  23
ENDBRANCH  18  19
ENDBRANCH   5  18
TORSDOF 7
