REMARK  Name = ZINC25600759
REMARK  6 active torsions:
REMARK  status: ('A' for Active; 'I' for Inactive)
REMARK    1  A    between atoms: C_1  and  C_2
REMARK    2  A    between atoms: C_4  and  C_8
REMARK    3  A    between atoms: C_5  and  C_7
REMARK    4  A    between atoms: C_10  and  C_18
REMARK    5  A    between atoms: C_12  and  C_17
REMARK    6  A    between atoms: N_20  and  C_21
REMARK                            x       y       z     vdW  Elec       q    Type
REMARK                         _______ _______ _______ _____ _____    ______ ____
ROOT
ATOM      1  C   UNL     1       3.518  -1.376   0.244  0.00  0.00    +0.079 A 
ATOM      2  C   UNL     1       2.284  -0.722   0.188  0.00  0.00    +0.042 A 
ATOM      3  C   UNL     1       2.255   0.669   0.184  0.00  0.00    +0.053 A 
ATOM      4  C   UNL     1       3.486   1.356   0.234  0.00  0.00    +0.076 A 
ATOM      5  C   UNL     1       3.858   2.769   0.241  0.00  0.00    +0.091 A 
ATOM      6  N   UNL     1       5.154   2.829   0.296  0.00  0.00    -0.080 NA
ATOM      7  O   UNL     1       5.689   1.522   0.339  0.00  0.00    -0.334 OA
ATOM      8  C   UNL     1       4.684   0.624   0.294  0.00  0.00    +0.260 A 
ATOM      9  N   UNL     1       4.656  -0.700   0.295  0.00  0.00    -0.210 NA
ATOM     10  C   UNL     1       2.912   3.942   0.194  0.00  0.00    +0.070 C 
ENDROOT
BRANCH   1  14
ATOM     11  C   UNL     1       2.125  -6.291   0.186  0.00  0.00    +0.086 C 
ATOM     12  C   UNL     1       2.922  -5.012   0.222  0.00  0.00    +0.103 A 
ATOM     13  C   UNL     1       2.408  -3.772   0.197  0.00  0.00    +0.054 A 
ATOM     14  C   UNL     1       3.555  -2.857   0.248  0.00  0.00    +0.041 A 
ATOM     15  C   UNL     1       4.658  -3.651   0.293  0.00  0.00    +0.111 A 
ATOM     16  O   UNL     1       4.260  -4.930   0.282  0.00  0.00    -0.464 OA
ATOM     17  C   UNL     1       6.086  -3.173   0.350  0.00  0.00    +0.087 C 
ENDBRANCH   1  14
BRANCH   3  18
ATOM     18  C   UNL     1       0.972   1.404   0.125  0.00  0.00    +0.249 C 
ATOM     19  O   UNL     1       0.889   2.521   0.598  0.00  0.00    -0.270 OA
ATOM     20  N   UNL     1      -0.104   0.836  -0.453  0.00  0.00    -0.280 N 
ATOM     21  H   UNL     1      -0.008  -0.136  -0.959  0.00  0.00    +0.155 HD
BRANCH  20  22
ATOM     22  C   UNL     1      -1.341   1.482  -0.411  0.00  0.00    +0.061 A 
ATOM     23  C   UNL     1      -1.617   2.389   0.588  0.00  0.00    +0.045 A 
ATOM     24  C   UNL     1      -2.845   3.044   0.639  0.00  0.00    +0.043 A 
ATOM     25  C   UNL     1      -3.810   2.796  -0.291  0.00  0.00    +0.030 A 
ATOM     26  C   UNL     1      -3.569   1.873  -1.322  0.00  0.00    +0.004 A 
ATOM     27  C   UNL     1      -2.322   1.204  -1.389  0.00  0.00    +0.092 A 
ATOM     28  N   UNL     1      -2.090   0.325  -2.367  0.00  0.00    -0.253 NA
ATOM     29  C   UNL     1      -2.997   0.063  -3.277  0.00  0.00    +0.111 A 
ATOM     30  C   UNL     1      -4.243   0.685  -3.270  0.00  0.00    +0.020 A 
ATOM     31  C   UNL     1      -4.545   1.595  -2.297  0.00  0.00    +0.011 A 
ATOM     32 CL   UNL     1      -3.154   4.186   1.909  0.00  0.00    -0.083 Cl
ENDBRANCH  20  22
ENDBRANCH   3  18
TORSDOF 3
