REMARK  Name = ZINC54235595
REMARK  7 active torsions:
REMARK  status: ('A' for Active; 'I' for Inactive)
REMARK    1  A    between atoms: C_1  and  C_2
REMARK    2  A    between atoms: C_8  and  C_10
REMARK    3  A    between atoms: N_13  and  C_16
REMARK    4  A    between atoms: C_16  and  C_18
REMARK    5  A    between atoms: C_16  and  C_19
REMARK    6  A    between atoms: N_21  and  C_22
REMARK    7  A    between atoms: C_25  and  C_28
REMARK                            x       y       z     vdW  Elec       q    Type
REMARK                         _______ _______ _______ _____ _____    ______ ____
ROOT
ATOM      1  C   UNL     1      -0.857  -4.837   4.985  0.00  0.00    +0.072 C 
ATOM      2  C   UNL     1       0.445  -4.695   5.779  0.00  0.00    -0.006 C 
ATOM      3  C   UNL     1       0.873  -6.069   6.297  0.00  0.00    -0.077 C 
ATOM      4  N   UNL     1       1.085  -6.979   5.165  0.00  0.00    +0.387 N 
ATOM      5  C   UNL     1      -0.177  -7.177   4.441  0.00  0.00    -0.077 C 
ATOM      6  C   UNL     1      -0.644  -5.845   3.851  0.00  0.00    -0.006 C 
ATOM      7  H   UNL     1       1.771  -6.583   4.541  0.00  0.00    -0.081 HD
ENDROOT
BRANCH   1  15
ATOM      8  C   UNL     1      -2.735   2.283   5.385  0.00  0.00    +0.066 C 
ATOM      9  C   UNL     1      -2.428   0.995   4.665  0.00  0.00    +0.047 A 
ATOM     10  C   UNL     1      -2.473   0.912   3.312  0.00  0.00    +0.071 A 
ATOM     11  S   UNL     1      -2.029  -0.800   3.070  0.00  0.00    -0.060 S 
ATOM     12  C   UNL     1      -1.835  -1.222   4.687  0.00  0.00    +0.165 A 
ATOM     13  N   UNL     1      -2.097  -0.100   5.323  0.00  0.00    -0.230 NA
ATOM     14  N   UNL     1      -1.480  -2.455   5.222  0.00  0.00    -0.264 N 
ATOM     15  C   UNL     1      -1.242  -3.500   4.405  0.00  0.00    +0.222 C 
ATOM     16  O   UNL     1      -1.338  -3.365   3.204  0.00  0.00    -0.275 OA
ATOM     17  H   UNL     1      -1.403  -2.563   6.183  0.00  0.00    +0.157 HD
ENDBRANCH   1  15
BRANCH   4  18
ATOM     18  C   UNL     1       1.570  -8.273   5.663  0.00  0.00    +0.016 C 
ATOM     19  C   UNL     1       1.737  -9.241   4.490  0.00  0.00    -0.004 C 
BRANCH  18  20
ATOM     20  C   UNL     1       2.897  -8.082   6.350  0.00  0.00    +0.199 C 
ATOM     21  O   UNL     1       3.621  -7.164   6.026  0.00  0.00    -0.278 OA
ATOM     22  N   UNL     1       3.281  -8.931   7.324  0.00  0.00    -0.314 N 
ATOM     23  H   UNL     1       2.702  -9.664   7.584  0.00  0.00    +0.149 HD
BRANCH  22  24
ATOM     24  C   UNL     1       4.571  -8.744   7.992  0.00  0.00    +0.073 C 
ATOM     25  C   UNL     1       5.672  -9.421   7.172  0.00  0.00    +0.022 C 
ATOM     26  C   UNL     1       5.371 -10.916   7.051  0.00  0.00    +0.005 C 
ATOM     27  C   UNL     1       5.318 -11.541   8.447  0.00  0.00    -0.014 C 
ATOM     28  C   UNL     1       4.218 -10.864   9.267  0.00  0.00    +0.005 C 
ATOM     29  C   UNL     1       4.518  -9.369   9.388  0.00  0.00    +0.022 C 
ATOM     30  C   UNL     1       5.017 -13.036   8.326  0.00  0.00    +0.007 C 
ENDBRANCH  22  24
ENDBRANCH  18  20
ENDBRANCH   4  18
TORSDOF 4
