REMARK  Name = ZINC05833199
REMARK  8 active torsions:
REMARK  status: ('A' for Active; 'I' for Inactive)
REMARK    1  A    between atoms: C_1  and  C_2
REMARK    2  A    between atoms: C_2  and  C_3
REMARK    3  A    between atoms: C_2  and  C_4
REMARK    4  A    between atoms: C_7  and  N_10
REMARK    5  A    between atoms: N_10  and  C_11
REMARK    6  A    between atoms: C_11  and  C_13
REMARK    7  A    between atoms: N_20  and  C_23
REMARK    8  A    between atoms: C_23  and  C_24
REMARK                            x       y       z     vdW  Elec       q    Type
REMARK                         _______ _______ _______ _____ _____    ______ ____
ROOT
ATOM      1  C   UNL     1      -1.075   3.102   0.018  0.00  0.00    +0.205 C 
ATOM      2  C   UNL     1      -1.347   1.613   0.122  0.00  0.00    +0.238 C 
ATOM      3  O   UNL     1      -2.479   1.181   0.139  0.00  0.00    -0.274 OA
ATOM      4  N   UNL     1      -0.281   0.789   0.200  0.00  0.00    -0.239 N 
ATOM      5  C   UNL     1       0.975   1.250   0.177  0.00  0.00    +0.315 C 
ATOM      6  O   UNL     1       1.875   0.437   0.246  0.00  0.00    -0.252 OA
ATOM      7  N   UNL     1       1.312   2.542   0.083  0.00  0.00    -0.220 N 
ATOM      8  C   UNL     1       0.384   3.518   0.001  0.00  0.00    +0.241 C 
ATOM      9  O   UNL     1       0.704   4.684  -0.083  0.00  0.00    -0.274 OA
ATOM     10  H   UNL     1      -0.429  -0.167   0.270  0.00  0.00    +0.159 HD
ENDROOT
BRANCH   1  11
ATOM     11  C   UNL     1      -1.744   3.788   1.181  0.00  0.00    +0.022 C 
ATOM     12  C   UNL     1      -2.759   4.606   0.971  0.00  0.00    +0.030 C 
BRANCH  11  13
ATOM     13  N   UNL     1      -1.294   3.558   2.476  0.00  0.00    -0.317 N 
ATOM     14  H   UNL     1      -0.614   2.886   2.641  0.00  0.00    +0.152 HD
BRANCH  13  18
ATOM     15  C   UNL     1      -2.861   5.756   5.646  0.00  0.00    -0.045 A 
ATOM     16  C   UNL     1      -2.652   4.396   5.786  0.00  0.00    +0.006 A 
ATOM     17  C   UNL     1      -2.133   3.664   4.737  0.00  0.00    +0.023 A 
ATOM     18  C   UNL     1      -1.820   4.296   3.539  0.00  0.00    +0.031 A 
ATOM     19  C   UNL     1      -2.026   5.663   3.404  0.00  0.00    +0.023 A 
ATOM     20  C   UNL     1      -2.552   6.388   4.456  0.00  0.00    +0.006 A 
BRANCH  15  22
ATOM     21  C   UNL     1      -2.434   7.641   7.200  0.00  0.00    +0.012 C 
ATOM     22  C   UNL     1      -3.429   6.551   6.794  0.00  0.00    +0.013 C 
ATOM     23  C   UNL     1      -4.746   7.199   6.364  0.00  0.00    +0.012 C 
ENDBRANCH  15  22
ENDBRANCH  13  18
ENDBRANCH  11  13
ENDBRANCH   1  11
BRANCH   7  24
ATOM     24  C   UNL     1       2.731   2.906   0.069  0.00  0.00    +0.153 C 
BRANCH  24  25
ATOM     25  C   UNL     1       3.230   2.925  -1.353  0.00  0.00    -0.030 A 
ATOM     26  C   UNL     1       3.763   1.780  -1.913  0.00  0.00    +0.005 A 
ATOM     27  C   UNL     1       4.217   1.796  -3.219  0.00  0.00    +0.000 A 
ATOM     28  C   UNL     1       4.148   2.960  -3.960  0.00  0.00    +0.000 A 
ATOM     29  C   UNL     1       3.620   4.107  -3.398  0.00  0.00    +0.000 A 
ATOM     30  C   UNL     1       3.161   4.090  -2.094  0.00  0.00    +0.005 A 
ENDBRANCH  24  25
ENDBRANCH   7  24
TORSDOF 6
