REMARK  Name = ZINC03437407
REMARK  7 active torsions:
REMARK  status: ('A' for Active; 'I' for Inactive)
REMARK    1  A    between atoms: C_4  and  C_7
REMARK    2  A    between atoms: N_9  and  N_24
REMARK    3  A    between atoms: C_10  and  S_12
REMARK    4  A    between atoms: S_12  and  C_13
REMARK    5  A    between atoms: C_13  and  C_14
REMARK    6  A    between atoms: N_16  and  C_17
REMARK    7  A    between atoms: C_17  and  C_18
REMARK                            x       y       z     vdW  Elec       q    Type
REMARK                         _______ _______ _______ _____ _____    ______ ____
ROOT
ATOM      1  C   UNL     1      -2.649   2.904   7.412  0.00  0.00    +0.092 A 
ATOM      2  C   UNL     1      -1.865   2.367   8.379  0.00  0.00    +0.138 A 
ATOM      3  N   UNL     1      -0.865   1.674   7.743  0.00  0.00    -0.251 N 
ATOM      4  C   UNL     1      -1.062   1.814   6.403  0.00  0.00    +0.187 A 
ATOM      5  N   UNL     1      -2.132   2.548   6.209  0.00  0.00    -0.221 NA
ENDROOT
BRANCH   1   9
ATOM      6  C   UNL     1      -6.116   5.285   8.036  0.00  0.00    +0.000 A 
ATOM      7  C   UNL     1      -5.700   4.998   6.748  0.00  0.00    +0.001 A 
ATOM      8  C   UNL     1      -4.575   4.226   6.540  0.00  0.00    +0.010 A 
ATOM      9  C   UNL     1      -3.859   3.735   7.630  0.00  0.00    +0.002 A 
ATOM     10  C   UNL     1      -4.286   4.023   8.925  0.00  0.00    +0.010 A 
ATOM     11  C   UNL     1      -5.409   4.800   9.121  0.00  0.00    +0.001 A 
ENDBRANCH   1   9
BRANCH   3  12
ATOM     12  N   UNL     1       0.143   0.974   8.343  0.00  0.00    -0.296 N 
ATOM     13  H   UNL     1       0.946   1.563   8.504  0.00  0.00    +0.163 HD
ATOM     14  H   UNL     1      -0.172   0.550   9.203  0.00  0.00    +0.163 HD
ENDBRANCH   3  12
BRANCH   4  15
ATOM     15  S   UNL     1      -0.052   1.119   5.138  0.00  0.00    -0.077 S 
BRANCH  15  16
ATOM     16  C   UNL     1      -0.927   1.718   3.671  0.00  0.00    +0.173 C 
BRANCH  16  17
ATOM     17  C   UNL     1      -0.222   1.232   2.431  0.00  0.00    +0.223 C 
ATOM     18  O   UNL     1       0.774   0.548   2.529  0.00  0.00    -0.275 OA
ATOM     19  N   UNL     1      -0.698   1.558   1.213  0.00  0.00    -0.314 N 
ATOM     20  H   UNL     1      -1.495   2.106   1.135  0.00  0.00    +0.149 HD
BRANCH  19  21
ATOM     21  C   UNL     1      -0.013   1.086   0.008  0.00  0.00    +0.107 C 
BRANCH  21  22
ATOM     22  C   UNL     1      -0.753   1.593  -1.232  0.00  0.00    +0.006 C 
ATOM     23  C   UNL     1      -2.147   0.964  -1.286  0.00  0.00    +0.005 C 
ATOM     24  C   UNL     1      -2.886   1.471  -2.526  0.00  0.00    +0.000 C 
ATOM     25  C   UNL     1      -2.103   1.083  -3.781  0.00  0.00    +0.000 C 
ATOM     26  C   UNL     1      -0.709   1.712  -3.727  0.00  0.00    +0.000 C 
ATOM     27  C   UNL     1       0.031   1.205  -2.487  0.00  0.00    +0.005 C 
ENDBRANCH  21  22
ENDBRANCH  19  21
ENDBRANCH  16  17
ENDBRANCH  15  16
ENDBRANCH   4  15
TORSDOF 7
