REMARK  Name = ZINC47146938
REMARK  6 active torsions:
REMARK  status: ('A' for Active; 'I' for Inactive)
REMARK    1  A    between atoms: C_1  and  C_2
REMARK    2  A    between atoms: C_6  and  C_8
REMARK    3  A    between atoms: C_8  and  O_9
REMARK    4  A    between atoms: O_9  and  C_10
REMARK    5  A    between atoms: C_15  and  C_16
REMARK    6  A    between atoms: N_32  and  C_35
REMARK                            x       y       z     vdW  Elec       q    Type
REMARK                         _______ _______ _______ _____ _____    ______ ____
ROOT
ATOM      1  C   UNL     1       4.072  -3.518   3.710  0.00  0.00    +0.075 C 
ATOM      2  C   UNL     1       4.833  -2.493   4.503  0.00  0.00    +0.033 A 
ATOM      3  C   UNL     1       5.957  -2.637   5.239  0.00  0.00    +0.088 A 
ATOM      4  N   UNL     1       6.414  -1.486   5.832  0.00  0.00    -0.311 N 
ATOM      5  H   UNL     1       7.223  -1.505   6.367  0.00  0.00    +0.170 HD
ATOM      6  C   UNL     1       5.740  -0.332   5.669  0.00  0.00    +0.289 A 
ATOM      7  O   UNL     1       6.003   0.767   6.125  0.00  0.00    -0.260 OA
ATOM      8  S   UNL     1       4.447  -0.772   4.688  0.00  0.00    -0.030 S 
ATOM      9  S   UNL     1       6.748  -4.230   5.412  0.00  0.00    -0.093 S 
ATOM     10  C   UNL     1       5.438  -5.308   4.777  0.00  0.00    +0.152 C 
ATOM     11  C   UNL     1       4.989  -4.680   3.419  0.00  0.00    +0.110 C 
ATOM     12  C   UNL     1       4.442  -5.885   2.721  0.00  0.00    +0.232 C 
ATOM     13  O   UNL     1       3.548  -5.910   1.902  0.00  0.00    -0.274 OA
ATOM     14  N   UNL     1       5.149  -6.946   3.190  0.00  0.00    -0.209 N 
ATOM     15  C   UNL     1       5.904  -6.662   4.317  0.00  0.00    +0.240 C 
ATOM     16  O   UNL     1       6.768  -7.344   4.824  0.00  0.00    -0.274 OA
ENDROOT
BRANCH   1  22
ATOM     17  C   UNL     1       2.938  -4.003   5.893  0.00  0.00    +0.125 A 
ATOM     18  C   UNL     1       1.842  -4.439   6.624  0.00  0.00    +0.046 A 
ATOM     19  C   UNL     1       0.704  -4.870   5.970  0.00  0.00    +0.004 A 
ATOM     20  C   UNL     1       0.657  -4.868   4.588  0.00  0.00    +0.001 A 
ATOM     21  C   UNL     1       1.748  -4.434   3.857  0.00  0.00    +0.008 A 
ATOM     22  C   UNL     1       2.886  -3.997   4.507  0.00  0.00    +0.003 A 
BRANCH  17  23
ATOM     23  O   UNL     1       4.058  -3.578   6.535  0.00  0.00    -0.487 OA
BRANCH  23  24
ATOM     24  C   UNL     1       4.040  -3.613   7.963  0.00  0.00    +0.264 C 
BRANCH  24  30
ATOM     25  C   UNL     1       8.738  -4.493   9.447  0.00  0.00    +0.044 C 
ATOM     26  C   UNL     1       7.605  -3.530   9.205  0.00  0.00    -0.050 A 
ATOM     27  C   UNL     1       7.774  -2.183   9.469  0.00  0.00    +0.003 A 
ATOM     28  C   UNL     1       6.735  -1.300   9.246  0.00  0.00    +0.001 A 
ATOM     29  C   UNL     1       5.526  -1.762   8.759  0.00  0.00    +0.007 A 
ATOM     30  C   UNL     1       5.358  -3.108   8.494  0.00  0.00    -0.010 A 
ATOM     31  C   UNL     1       6.399  -3.992   8.713  0.00  0.00    +0.010 A 
ENDBRANCH  24  30
ENDBRANCH  23  24
ENDBRANCH  17  23
ENDBRANCH   1  22
BRANCH  14  32
ATOM     32  C   UNL     1       5.106  -8.218   2.602  0.00  0.00    +0.044 A 
ATOM     33  C   UNL     1       4.317  -8.440   1.482  0.00  0.00    +0.024 A 
ATOM     34  C   UNL     1       4.276  -9.695   0.906  0.00  0.00    +0.002 A 
ATOM     35  C   UNL     1       5.020 -10.729   1.443  0.00  0.00    +0.000 A 
ATOM     36  C   UNL     1       5.808 -10.510   2.558  0.00  0.00    +0.002 A 
ATOM     37  C   UNL     1       5.857  -9.257   3.136  0.00  0.00    +0.024 A 
ENDBRANCH  14  32
TORSDOF 5
