REMARK  Name = ZINC65550472
REMARK  8 active torsions:
REMARK  status: ('A' for Active; 'I' for Inactive)
REMARK    1  A    between atoms: C_1  and  O_2
REMARK    2  A    between atoms: O_2  and  C_3
REMARK    3  A    between atoms: C_6  and  C_9
REMARK    4  A    between atoms: C_13  and  S_19
REMARK    5  A    between atoms: N_15  and  C_16
REMARK    6  A    between atoms: C_16  and  C_17
REMARK    7  A    between atoms: S_19  and  C_20
REMARK    8  A    between atoms: C_20  and  C_21
REMARK                            x       y       z     vdW  Elec       q    Type
REMARK                         _______ _______ _______ _____ _____    ______ ____
ROOT
ATOM      1  C   UNL     1       2.535  -2.521   4.084  0.00  0.00    +0.172 C 
ATOM      2  N   UNL     1       3.702  -1.714   4.526  0.00  0.00    -0.233 NA
ATOM      3  N   UNL     1       4.466  -2.617   5.390  0.00  0.00    -0.229 NA
ATOM      4  C   UNL     1       4.108  -3.994   4.995  0.00  0.00    +0.200 C 
ATOM      5  N   UNL     1       3.117  -3.876   3.897  0.00  0.00    -0.254 NA
ATOM      6  H   UNL     1       4.254  -1.414   3.737  0.00  0.00    +0.143 HD
ATOM      7  H   UNL     1       5.458  -2.459   5.291  0.00  0.00    +0.143 HD
ENDROOT
BRANCH   1  11
ATOM      8  C   UNL     1       0.968  -1.024   0.401  0.00  0.00    +0.120 A 
ATOM      9  C   UNL     1       0.159  -1.084   1.527  0.00  0.00    +0.046 A 
ATOM     10  C   UNL     1       0.668  -1.569   2.716  0.00  0.00    +0.010 A 
ATOM     11  C   UNL     1       1.982  -1.993   2.785  0.00  0.00    -0.015 A 
ATOM     12  C   UNL     1       2.790  -1.934   1.665  0.00  0.00    +0.010 A 
ATOM     13  C   UNL     1       2.284  -1.456   0.471  0.00  0.00    +0.046 A 
BRANCH   8  15
ATOM     14  C   UNL     1      -0.894  -0.121  -0.769  0.00  0.00    +0.277 C 
ATOM     15  O   UNL     1       0.469  -0.548  -0.770  0.00  0.00    -0.495 OA
ENDBRANCH   8  15
ENDBRANCH   1  11
BRANCH   5  16
ATOM     16  C   UNL     1       2.083  -4.913   4.002  0.00  0.00    +0.115 C 
BRANCH  16  17
ATOM     17  C   UNL     1       2.618  -6.214   3.461  0.00  0.00    -0.019 C 
ATOM     18  C   UNL     1       2.594  -7.292   4.204  0.00  0.00    +0.005 C 
ENDBRANCH  16  17
ENDBRANCH   5  16
BRANCH   4  19
ATOM     19  S   UNL     1       5.582  -4.878   4.415  0.00  0.00    -0.121 S 
BRANCH  19  20
ATOM     20  C   UNL     1       6.181  -3.872   3.030  0.00  0.00    +0.118 C 
BRANCH  20  21
ATOM     21  C   UNL     1       7.439  -4.513   2.440  0.00  0.00    +0.184 C 
ATOM     22  N   UNL     1       7.153  -5.892   2.024  0.00  0.00    -0.363 N 
ATOM     23  C   UNL     1       7.932  -6.677   2.712  0.00  0.00    +0.060 A 
ATOM     24  C   UNL     1       8.107  -8.135   2.740  0.00  0.00    +0.027 A 
ATOM     25  C   UNL     1       9.013  -8.680   3.577  0.00  0.00    +0.002 A 
ATOM     26  C   UNL     1       9.811  -7.906   4.438  0.00  0.00    +0.002 A 
ATOM     27  C   UNL     1       9.730  -6.562   4.492  0.00  0.00    +0.027 A 
ATOM     28  C   UNL     1       8.777  -5.858   3.623  0.00  0.00    +0.060 A 
ATOM     29  N   UNL     1       8.488  -4.598   3.463  0.00  0.00    -0.363 N 
ATOM     30  H   UNL     1       6.504  -6.168   1.358  0.00  0.00    +0.162 HD
ATOM     31  H   UNL     1       8.892  -3.853   3.934  0.00  0.00    +0.162 HD
ENDBRANCH  20  21
ENDBRANCH  19  20
ENDBRANCH   4  19
TORSDOF 7
