REMARK  Name = ZINC04299533
REMARK  12 active torsions:
REMARK  status: ('A' for Active; 'I' for Inactive)
REMARK    1  A    between atoms: C_1  and  C_2
REMARK    2  A    between atoms: C_2  and  O_3
REMARK    3  A    between atoms: O_3  and  C_4
REMARK    4  A    between atoms: C_4  and  C_6
REMARK    5  A    between atoms: C_8  and  C_27
REMARK    6  A    between atoms: C_9  and  C_26
REMARK    7  A    between atoms: C_10  and  N_11
REMARK    8  A    between atoms: C_14  and  N_63
REMARK    9  A    between atoms: C_17  and  N_63
REMARK   10  A    between atoms: C_23  and  O_25
REMARK   11  A    between atoms: C_27  and  O_29
REMARK   12  A    between atoms: O_29  and  C_30
REMARK                            x       y       z     vdW  Elec       q    Type
REMARK                         _______ _______ _______ _____ _____    ______ ____
ROOT
ATOM      1  C   UNL     1       1.699  -1.730   0.661  0.00  0.00    +0.098 A 
ATOM      2  C   UNL     1       1.726  -1.089  -0.578  0.00  0.00    +0.035 A 
ATOM      3  C   UNL     1       0.624  -0.310  -0.945  0.00  0.00    +0.079 A 
ATOM      4  C   UNL     1      -0.454  -0.193  -0.060  0.00  0.00    +0.028 A 
ATOM      5  C   UNL     1       0.572  -1.564   1.489  0.00  0.00    +0.113 A 
ATOM      6  C   UNL     1      -1.643   0.649  -0.446  0.00  0.00    +0.064 C 
ATOM      7  N   UNL     1      -0.512  -0.803   1.150  0.00  0.00    -0.346 N 
ATOM      8  H   UNL     1      -1.321  -0.699   1.774  0.00  0.00    +0.167 HD
ENDROOT
BRANCH   5   9
ATOM      9  N   UNL     1       0.529  -2.191   2.715  0.00  0.00    -0.316 N 
ATOM     10  C   UNL     1      -0.514  -3.224   2.742  0.00  0.00    +0.105 C 
ATOM     11  C   UNL     1      -0.437  -3.995   4.062  0.00  0.00    +0.003 C 
ATOM     12  C   UNL     1      -0.628  -3.021   5.228  0.00  0.00    -0.068 C 
ATOM     13  C   UNL     1       0.440  -1.927   5.149  0.00  0.00    +0.003 C 
ATOM     14  C   UNL     1       0.338  -1.216   3.798  0.00  0.00    +0.105 C 
BRANCH  12  15
ATOM     15  N   UNL     1      -0.492  -3.754   6.500  0.00  0.00    +0.384 N 
ATOM     16  H   UNL     1       0.503  -3.827   6.744  0.00  0.00    -0.085 HD
ATOM     17  H   UNL     1      -0.888  -4.695   6.393  0.00  0.00    -0.085 HD
BRANCH  15  18
ATOM     18  C   UNL     1      -1.206  -3.045   7.579  0.00  0.00    -0.042 C 
ATOM     19  C   UNL     1      -2.674  -3.478   7.590  0.00  0.00    -0.013 C 
ATOM     20  C   UNL     1      -3.412  -2.749   8.715  0.00  0.00    -0.001 C 
ATOM     21  C   UNL     1      -2.767  -3.098  10.058  0.00  0.00    +0.002 C 
ATOM     22  C   UNL     1      -1.299  -2.665  10.046  0.00  0.00    +0.030 C 
ATOM     23  C   UNL     1      -0.561  -3.394   8.922  0.00  0.00    +0.101 C 
BRANCH  23  24
ATOM     24  O   UNL     1      -0.640  -4.804   9.136  0.00  0.00    -0.393 OA
ATOM     25  H   UNL     1      -0.250  -5.098   9.971  0.00  0.00    +0.210 HD
ENDBRANCH  23  24
ENDBRANCH  15  18
ENDBRANCH  12  15
ENDBRANCH   5   9
BRANCH   1  26
ATOM     26  C   UNL     1       2.830  -2.569   1.095  0.00  0.00    +0.342 C 
ATOM     27  O   UNL     1       2.755  -3.202   2.130  0.00  0.00    -0.245 OA
BRANCH  26  28
ATOM     28  O   UNL     1       3.947  -2.634   0.345  0.00  0.00    -0.461 OA
BRANCH  28  30
ATOM     29  C   UNL     1       6.198  -3.426  -0.143  0.00  0.00    +0.048 C 
ATOM     30  C   UNL     1       5.022  -3.479   0.834  0.00  0.00    +0.229 C 
ENDBRANCH  28  30
ENDBRANCH  26  28
ENDBRANCH   1  26
BRANCH   3  31
ATOM     31  C   UNL     1       0.600   0.385  -2.245  0.00  0.00    +0.341 C 
ATOM     32  O   UNL     1      -0.303   1.154  -2.507  0.00  0.00    -0.245 OA
BRANCH  31  33
ATOM     33  O   UNL     1       1.580   0.166  -3.144  0.00  0.00    -0.464 OA
ATOM     34  C   UNL     1       1.492   0.884  -4.403  0.00  0.00    +0.280 C 
ENDBRANCH  31  33
ENDBRANCH   3  31
TORSDOF 9
