REMARK  Name = ZINC09357861
REMARK  14 active torsions:
REMARK  status: ('A' for Active; 'I' for Inactive)
REMARK    1  A    between atoms: C_1  and  C_2
REMARK    2  A    between atoms: C_2  and  C_3
REMARK    3  A    between atoms: C_3  and  C_4
REMARK    4  A    between atoms: C_4  and  C_5
REMARK    5  A    between atoms: C_5  and  O_6
REMARK    6  A    between atoms: O_6  and  C_7
REMARK    7  A    between atoms: C_11  and  C_13
REMARK    8  A    between atoms: C_15  and  C_29
REMARK    9  A    between atoms: N_19  and  C_20
REMARK   10  A    between atoms: C_20  and  C_21
REMARK   11  A    between atoms: C_21  and  C_22
REMARK   12  A    between atoms: C_22  and  N_23
REMARK   13  A    between atoms: C_29  and  C_31
REMARK   14  A    between atoms: C_38  and  C_41
REMARK                            x       y       z     vdW  Elec       q    Type
REMARK                         _______ _______ _______ _____ _____    ______ ____
ROOT
ATOM      1  C   UNL     1       0.634   3.394   0.062  0.00  0.00    +0.145 C 
ATOM      2  C   UNL     1      -0.877   3.389   0.066  0.00  0.00    +0.076 C 
ATOM      3  C   UNL     1      -1.264   2.098  -0.048  0.00  0.00    +0.249 C 
ATOM      4  C   UNL     1      -0.065   1.236  -0.117  0.00  0.00    +0.288 C 
ATOM      5  O   UNL     1      -0.081   0.026  -0.219  0.00  0.00    -0.266 OA
ATOM      6  N   UNL     1       1.047   1.991  -0.057  0.00  0.00    -0.283 N 
ATOM      7  O   UNL     1      -2.544   1.663  -0.087  0.00  0.00    -0.282 OA
ENDROOT
BRANCH   1  12
ATOM      8  C   UNL     1       2.223   5.769   2.535  0.00  0.00    +0.121 A 
ATOM      9  C   UNL     1       2.109   5.052   3.717  0.00  0.00    +0.045 A 
ATOM     10  C   UNL     1       1.519   3.803   3.711  0.00  0.00    +0.004 A 
ATOM     11  C   UNL     1       1.037   3.270   2.529  0.00  0.00    +0.006 A 
ATOM     12  C   UNL     1       1.155   3.981   1.349  0.00  0.00    -0.019 A 
ATOM     13  C   UNL     1       1.744   5.230   1.350  0.00  0.00    +0.051 A 
BRANCH   8  14
ATOM     14  O   UNL     1       2.803   6.998   2.538  0.00  0.00    -0.492 OA
BRANCH  14  15
ATOM     15  C   UNL     1       3.274   7.490   3.795  0.00  0.00    +0.229 C 
BRANCH  15  16
ATOM     16  C   UNL     1       3.890   8.877   3.601  0.00  0.00    +0.041 C 
BRANCH  16  17
ATOM     17  C   UNL     1       4.394   9.404   4.946  0.00  0.00    +0.003 C 
BRANCH  17  19
ATOM     18  C   UNL     1       5.514  11.317   6.097  0.00  0.00    +0.004 C 
ATOM     19  C   UNL     1       5.011  10.790   4.752  0.00  0.00    -0.003 C 
ENDBRANCH  17  19
ENDBRANCH  16  17
ENDBRANCH  15  16
ENDBRANCH  14  15
ENDBRANCH   8  14
ENDBRANCH   1  12
BRANCH   2  20
ATOM     20  C   UNL     1      -1.755   4.560   0.167  0.00  0.00    +0.195 C 
ATOM     21  O   UNL     1      -2.467   4.705   1.143  0.00  0.00    -0.287 OA
BRANCH  20  22
ATOM     22  C   UNL     1      -1.776   5.562  -0.917  0.00  0.00    +0.023 A 
ATOM     23  C   UNL     1      -1.047   5.346  -2.091  0.00  0.00    +0.015 A 
ATOM     24  C   UNL     1      -1.075   6.276  -3.103  0.00  0.00    +0.046 A 
ATOM     25  C   UNL     1      -1.820   7.449  -2.965  0.00  0.00    +0.124 A 
ATOM     26  C   UNL     1      -2.533   7.665  -1.788  0.00  0.00    -0.002 A 
ATOM     27  C   UNL     1      -2.519   6.738  -0.775  0.00  0.00    +0.019 A 
ATOM     28  C   UNL     1      -3.212   9.014  -1.923  0.00  0.00    +0.083 C 
ATOM     29  C   UNL     1      -2.457   9.634  -3.122  0.00  0.00    +0.175 C 
ATOM     30  O   UNL     1      -1.991   8.477  -3.837  0.00  0.00    -0.488 OA
ATOM     31  C   UNL     1      -1.279  10.484  -2.640  0.00  0.00    +0.052 C 
ENDBRANCH  20  22
ENDBRANCH   2  20
BRANCH   6  32
ATOM     32  C   UNL     1       2.427   1.500  -0.103  0.00  0.00    +0.111 C 
BRANCH  32  33
ATOM     33  C   UNL     1       2.902   1.450  -1.556  0.00  0.00    +0.040 C 
BRANCH  33  34
ATOM     34  C   UNL     1       4.343   0.936  -1.604  0.00  0.00    +0.124 C 
BRANCH  34  35
ATOM     35  N   UNL     1       4.798   0.888  -2.995  0.00  0.00    -0.337 N 
ATOM     36  C   UNL     1       4.684  -0.174  -3.851  0.00  0.00    +0.106 A 
ATOM     37  C   UNL     1       5.225   0.209  -5.023  0.00  0.00    +0.130 A 
ATOM     38  N   UNL     1       5.666   1.468  -4.884  0.00  0.00    -0.244 NA
ATOM     39  C   UNL     1       5.414   1.881  -3.672  0.00  0.00    +0.199 A 
ENDBRANCH  34  35
ENDBRANCH  33  34
ENDBRANCH  32  33
ENDBRANCH   6  32
TORSDOF 12
