REMARK  Name = ZINC00673723
REMARK  7 active torsions:
REMARK  status: ('A' for Active; 'I' for Inactive)
REMARK    1  A    between atoms: C_1  and  C_2
REMARK    2  A    between atoms: C_2  and  C_3
REMARK    3  A    between atoms: C_15  and  C_17
REMARK    4  A    between atoms: C_20  and  C_22
REMARK    5  A    between atoms: C_27  and  N_28
REMARK    6  A    between atoms: C_34  and  C_36
REMARK    7  A    between atoms: C_34  and  C_37
REMARK                            x       y       z     vdW  Elec       q    Type
REMARK                         _______ _______ _______ _____ _____    ______ ____
ROOT
ATOM      1  C   UNL     1      -0.014   1.209   0.009  0.00  0.00    +0.220 C 
ATOM      2  O   UNL     1       0.002  -0.004   0.002  0.00  0.00    -0.275 OA
ATOM      3  N   UNL     1      -1.191   1.867   0.018  0.00  0.00    -0.255 N 
ATOM      4  C   UNL     1      -1.197   3.260   0.031  0.00  0.00    +0.058 A 
ATOM      5  C   UNL     1      -0.734   3.987  -1.060  0.00  0.00    +0.025 A 
ATOM      6  C   UNL     1      -0.811   5.369  -1.038  0.00  0.00    +0.002 A 
ATOM      7  C   UNL     1      -1.349   6.023   0.056  0.00  0.00    +0.002 A 
ATOM      8  C   UNL     1      -1.791   5.302   1.151  0.00  0.00    +0.025 A 
ATOM      9  C   UNL     1      -1.691   3.922   1.139  0.00  0.00    +0.053 A 
ATOM     10  N   UNL     1      -2.061   3.138   2.227  0.00  0.00    -0.316 N 
ATOM     11  C   UNL     1      -3.066   2.225   2.216  0.00  0.00    +0.017 C 
ATOM     12  C   UNL     1      -3.261   1.297   1.267  0.00  0.00    +0.040 C 
ATOM     13  C   UNL     1      -2.427   1.115   0.020  0.00  0.00    +0.182 C 
ATOM     14  C   UNL     1      -4.325   0.370   1.382  0.00  0.00    +0.163 C 
ATOM     15  O   UNL     1      -4.482  -0.451   0.500  0.00  0.00    -0.292 OA
ATOM     16  C   UNL     1      -5.264   0.365   2.550  0.00  0.00    +0.086 C 
ATOM     17  C   UNL     1      -4.532   0.936   3.770  0.00  0.00    -0.023 C 
ATOM     18  C   UNL     1      -4.020   2.326   3.396  0.00  0.00    +0.058 C 
ATOM     19  C   UNL     1      -3.354   0.032   4.138  0.00  0.00    +0.011 C 
ATOM     20  C   UNL     1      -5.497   1.040   4.952  0.00  0.00    +0.011 C 
ATOM     21  H   UNL     1      -1.565   3.252   3.053  0.00  0.00    +0.152 HD
ENDROOT
BRANCH  13  22
ATOM     22  C   UNL     1      -3.248   1.538  -1.171  0.00  0.00    +0.131 A 
ATOM     23  C   UNL     1      -3.969   0.718  -1.960  0.00  0.00    +0.047 A 
ATOM     24  C   UNL     1      -4.578   1.522  -2.945  0.00  0.00    +0.050 A 
ATOM     25  C   UNL     1      -4.183   2.801  -2.705  0.00  0.00    +0.137 A 
ATOM     26  O   UNL     1      -3.376   2.795  -1.626  0.00  0.00    -0.457 OA
BRANCH  25  27
ATOM     27  C   UNL     1      -4.571   3.990  -3.492  0.00  0.00    +0.047 A 
ATOM     28  C   UNL     1      -4.447   3.982  -4.882  0.00  0.00    +0.014 A 
ATOM     29  C   UNL     1      -4.811   5.096  -5.611  0.00  0.00    +0.001 A 
ATOM     30  C   UNL     1      -5.298   6.219  -4.966  0.00  0.00    +0.002 A 
ATOM     31  C   UNL     1      -5.423   6.234  -3.588  0.00  0.00    +0.033 A 
ATOM     32  C   UNL     1      -5.068   5.125  -2.848  0.00  0.00    +0.137 A 
BRANCH  32  33
ATOM     33  N   UNL     1      -5.209   5.140  -1.375  0.00  0.00    +0.057 N 
ATOM     34  O   UNL     1      -5.643   6.130  -0.815  0.00  0.00    -0.126 OA
ATOM     35  O   UNL     1      -4.891   4.162  -0.722  0.00  0.00    -0.126 OA
ENDBRANCH  32  33
ENDBRANCH  25  27
ENDBRANCH  13  22
BRANCH   1  37
ATOM     36  C   UNL     1       2.457   1.002  -0.016  0.00  0.00    +0.013 C 
ATOM     37  C   UNL     1       1.280   1.980   0.001  0.00  0.00    +0.093 C 
ENDBRANCH   1  37
TORSDOF 4
