REMARK  Name = ZINC13769511
REMARK  7 active torsions:
REMARK  status: ('A' for Active; 'I' for Inactive)
REMARK    1  A    between atoms: C_1  and  C_2
REMARK    2  A    between atoms: C_2  and  O_3
REMARK    3  A    between atoms: O_3  and  C_4
REMARK    4  A    between atoms: C_4  and  C_6
REMARK    5  A    between atoms: C_7  and  N_26
REMARK    6  A    between atoms: C_22  and  C_24
REMARK    7  A    between atoms: C_22  and  C_25
REMARK                            x       y       z     vdW  Elec       q    Type
REMARK                         _______ _______ _______ _____ _____    ______ ____
ROOT
ATOM      1  C   UNL     1      -4.364   6.011   5.390  0.00  0.00    +0.119 A 
ATOM      2  C   UNL     1      -3.353   5.131   5.722  0.00  0.00    +0.055 A 
ATOM      3  C   UNL     1      -2.621   4.486   4.643  0.00  0.00    +0.031 A 
ATOM      4  C   UNL     1      -1.542   3.548   4.765  0.00  0.00    -0.028 A 
ATOM      5  C   UNL     1      -1.007   3.035   3.640  0.00  0.00    +0.004 A 
ATOM      6  C   UNL     1      -1.483   3.459   2.381  0.00  0.00    +0.104 A 
ATOM      7  C   UNL     1      -3.034   4.835   3.345  0.00  0.00    +0.089 A 
ATOM      8  S   UNL     1      -4.356   5.991   3.607  0.00  0.00    -0.062 S 
ATOM      9  N   UNL     1      -0.906   2.943   1.231  0.00  0.00    -0.312 N 
ATOM     10  C   UNL     1      -1.786   1.948   0.601  0.00  0.00    +0.134 C 
ATOM     11  C   UNL     1      -1.087   1.363  -0.629  0.00  0.00    +0.178 C 
ATOM     12  O   UNL     1      -0.739   2.423  -1.524  0.00  0.00    -0.377 OA
ATOM     13  C   UNL     1       0.119   3.409  -0.943  0.00  0.00    +0.178 C 
ATOM     14  C   UNL     1      -0.569   4.016   0.283  0.00  0.00    +0.134 C 
ATOM     15  C   UNL     1       0.092   2.001   3.579  0.00  0.00    +0.108 C 
ATOM     16  S   UNL     1       0.983   1.936   5.158  0.00  0.00    -0.149 S 
ATOM     17  C   UNL     1      -0.389   1.953   6.356  0.00  0.00    +0.015 C 
ATOM     18  C   UNL     1      -1.134   3.269   6.182  0.00  0.00    +0.053 C 
ATOM     19  C   UNL     1       0.163   1.853   7.780  0.00  0.00    +0.023 C 
ATOM     20  C   UNL     1      -1.334   0.781   6.082  0.00  0.00    +0.023 C 
ATOM     21  N   UNL     1      -2.489   4.350   2.206  0.00  0.00    -0.337 N 
ATOM     22  H   UNL     1      -2.815   4.636   1.276  0.00  0.00    +0.168 HD
ENDROOT
BRANCH   2  23
ATOM     23  N   UNL     1      -3.043   4.871   7.048  0.00  0.00    -0.356 N 
ATOM     24  H   UNL     1      -2.120   4.735   7.313  0.00  0.00    +0.142 HD
ATOM     25  H   UNL     1      -3.750   4.825   7.712  0.00  0.00    +0.142 HD
ENDBRANCH   2  23
BRANCH   1  26
ATOM     26  C   UNL     1      -5.203   6.749   6.255  0.00  0.00    +0.348 C 
ATOM     27  O   UNL     1      -5.075   6.646   7.461  0.00  0.00    -0.244 OA
BRANCH  26  28
ATOM     28  O   UNL     1      -6.146   7.568   5.743  0.00  0.00    -0.461 OA
BRANCH  28  30
ATOM     29  C   UNL     1      -7.962   9.154   5.915  0.00  0.00    +0.048 C 
ATOM     30  C   UNL     1      -6.959   8.284   6.676  0.00  0.00    +0.229 C 
ENDBRANCH  28  30
ENDBRANCH  26  28
ENDBRANCH   1  26
TORSDOF 4
