REMARK  Name = ZINC59775644
REMARK  7 active torsions:
REMARK  status: ('A' for Active; 'I' for Inactive)
REMARK    1  A    between atoms: C_2  and  C_3
REMARK    2  A    between atoms: C_3  and  N_4
REMARK    3  A    between atoms: C_5  and  C_22
REMARK    4  A    between atoms: C_8  and  S_9
REMARK    5  A    between atoms: S_9  and  C_10
REMARK    6  A    between atoms: C_10  and  C_11
REMARK    7  A    between atoms: N_13  and  C_14
REMARK                            x       y       z     vdW  Elec       q    Type
REMARK                         _______ _______ _______ _____ _____    ______ ____
ROOT
ATOM      1  N   UNL     1      -1.738  -1.933  -0.949  0.00  0.00    -0.298 N 
ATOM      2  C   UNL     1      -1.936  -1.694  -2.289  0.00  0.00    +0.165 A 
ATOM      3  N   UNL     1      -1.560  -2.775  -2.932  0.00  0.00    -0.128 NA
ATOM      4  N   UNL     1      -1.146  -3.661  -2.098  0.00  0.00    -0.122 NA
ATOM      5  C   UNL     1      -1.228  -3.198  -0.871  0.00  0.00    +0.193 A 
ENDROOT
BRANCH   2   6
ATOM      6  C   UNL     1      -2.470  -0.455  -2.891  0.00  0.00    +0.019 A 
ATOM      7  C   UNL     1      -3.030  -0.481  -4.169  0.00  0.00    +0.011 A 
ATOM      8  C   UNL     1      -3.528   0.679  -4.726  0.00  0.00    +0.001 A 
ATOM      9  C   UNL     1      -3.472   1.868  -4.019  0.00  0.00    +0.000 A 
ATOM     10  C   UNL     1      -2.918   1.901  -2.752  0.00  0.00    +0.001 A 
ATOM     11  C   UNL     1      -2.423   0.746  -2.182  0.00  0.00    +0.011 A 
ENDBRANCH   2   6
BRANCH   1  12
ATOM     12  C   UNL     1      -2.011  -1.019   0.163  0.00  0.00    +0.152 C 
BRANCH  12  14
ATOM     13  C   UNL     1      -0.731   1.007   0.631  0.00  0.00    +0.005 C 
ATOM     14  C   UNL     1      -0.743  -0.301   0.546  0.00  0.00    -0.013 C 
ENDBRANCH  12  14
ENDBRANCH   1  12
BRANCH   5  15
ATOM     15  S   UNL     1      -0.769  -4.051   0.601  0.00  0.00    -0.077 S 
BRANCH  15  16
ATOM     16  C   UNL     1      -0.177  -5.660   0.009  0.00  0.00    +0.173 C 
BRANCH  16  17
ATOM     17  C   UNL     1       0.253  -6.500   1.184  0.00  0.00    +0.228 C 
ATOM     18  O   UNL     1       0.168  -6.058   2.310  0.00  0.00    -0.275 OA
ATOM     19  N   UNL     1       0.732  -7.744   0.983  0.00  0.00    -0.284 N 
ATOM     20  H   UNL     1       0.866  -8.073   0.080  0.00  0.00    +0.155 HD
BRANCH  19  21
ATOM     21  C   UNL     1       1.037  -8.562   2.078  0.00  0.00    +0.048 A 
ATOM     22  C   UNL     1       0.309  -8.448   3.255  0.00  0.00    +0.025 A 
ATOM     23  C   UNL     1       0.612  -9.255   4.334  0.00  0.00    +0.017 A 
ATOM     24  C   UNL     1       1.639 -10.178   4.242  0.00  0.00    +0.019 A 
ATOM     25  C   UNL     1       2.366 -10.294   3.071  0.00  0.00    +0.032 A 
ATOM     26  C   UNL     1       2.064  -9.492   1.987  0.00  0.00    +0.040 A 
ATOM     27 BR   UNL     1       3.053  -9.657   0.383  0.00  0.00    -0.048 Br
ATOM     28 BR   UNL     1       2.050 -11.282   5.722  0.00  0.00    -0.050 Br
ENDBRANCH  19  21
ENDBRANCH  16  17
ENDBRANCH  15  16
ENDBRANCH   5  15
TORSDOF 7
