REMARK  Name = ZINC15127932
REMARK  10 active torsions:
REMARK  status: ('A' for Active; 'I' for Inactive)
REMARK    1  A    between atoms: C_1  and  C_2
REMARK    2  A    between atoms: C_2  and  C_3
REMARK    3  A    between atoms: C_3  and  N_4
REMARK    4  A    between atoms: N_4  and  C_5
REMARK    5  A    between atoms: C_6  and  N_21
REMARK    6  A    between atoms: N_7  and  C_14
REMARK    7  A    between atoms: C_14  and  C_15
REMARK    8  A    between atoms: C_22  and  C_24
REMARK    9  A    between atoms: C_24  and  S_25
REMARK   10  A    between atoms: S_25  and  C_26
REMARK                            x       y       z     vdW  Elec       q    Type
REMARK                         _______ _______ _______ _____ _____    ______ ____
ROOT
ATOM      1  C   UNL     1       1.160   2.937   0.045  0.00  0.00    +0.140 A 
ATOM      2  C   UNL     1       0.748   2.269   1.181  0.00  0.00    +0.128 A 
ATOM      3  N   UNL     1      -0.425   1.552   1.149  0.00  0.00    -0.276 N 
ATOM      4  C   UNL     1      -1.165   1.506   0.027  0.00  0.00    +0.331 A 
ATOM      5  O   UNL     1      -2.202   0.870   0.021  0.00  0.00    -0.246 OA
ATOM      6  N   UNL     1      -0.777   2.146  -1.090  0.00  0.00    -0.273 N 
ATOM      7  H   UNL     1      -1.342   2.090  -1.914  0.00  0.00    +0.173 HD
ATOM      8  C   UNL     1       0.364   2.863  -1.113  0.00  0.00    +0.277 A 
ATOM      9  O   UNL     1       0.704   3.443  -2.130  0.00  0.00    -0.266 OA
ENDROOT
BRANCH   1  10
ATOM     10  N   UNL     1       2.359   3.681   0.046  0.00  0.00    -0.264 N 
ATOM     11  C   UNL     1       2.319   5.023  -0.093  0.00  0.00    +0.230 C 
ATOM     12  O   UNL     1       1.252   5.598  -0.129  0.00  0.00    -0.274 OA
BRANCH  10  13
ATOM     13  C   UNL     1       3.646   2.998   0.198  0.00  0.00    +0.114 C 
BRANCH  13  15
ATOM     14  C   UNL     1       5.591   2.017  -1.024  0.00  0.00    +0.005 C 
ATOM     15  C   UNL     1       4.247   2.731  -1.183  0.00  0.00    +0.016 C 
ENDBRANCH  13  15
ENDBRANCH  10  13
BRANCH  11  16
ATOM     16  C   UNL     1       3.602   5.806  -0.205  0.00  0.00    +0.170 C 
BRANCH  16  17
ATOM     17  S   UNL     1       3.219   7.571  -0.380  0.00  0.00    -0.116 S 
BRANCH  17  18
ATOM     18  C   UNL     1       4.800   8.341  -0.497  0.00  0.00    +0.009 A 
ATOM     19  C   UNL     1       5.959   7.557  -0.436  0.00  0.00    +0.015 A 
ATOM     20  C   UNL     1       7.190   8.123  -0.530  0.00  0.00    +0.009 A 
ATOM     21  C   UNL     1       7.312   9.516  -0.678  0.00  0.00    -0.018 A 
ATOM     22  C   UNL     1       8.573  10.129  -0.770  0.00  0.00    +0.008 A 
ATOM     23  C   UNL     1       8.657  11.480  -0.912  0.00  0.00    +0.001 A 
ATOM     24  C   UNL     1       7.509  12.269  -0.968  0.00  0.00    +0.001 A 
ATOM     25  C   UNL     1       6.271  11.711  -0.882  0.00  0.00    +0.008 A 
ATOM     26  C   UNL     1       6.145  10.318  -0.735  0.00  0.00    -0.017 A 
ATOM     27  C   UNL     1       4.883   9.709  -0.642  0.00  0.00    +0.023 A 
ENDBRANCH  17  18
ENDBRANCH  16  17
ENDBRANCH  11  16
ENDBRANCH   1  10
BRANCH   2  28
ATOM     28  N   UNL     1       1.502   2.319   2.329  0.00  0.00    -0.343 N 
ATOM     29  H   UNL     1       2.349   2.791   2.333  0.00  0.00    +0.144 HD
ATOM     30  H   UNL     1       1.187   1.883   3.135  0.00  0.00    +0.144 HD
ENDBRANCH   2  28
BRANCH   3  31
ATOM     31  C   UNL     1      -0.874   0.838   2.347  0.00  0.00    +0.163 C 
BRANCH  31  32
ATOM     32  C   UNL     1      -1.744   1.746   3.177  0.00  0.00    -0.028 A 
ATOM     33  C   UNL     1      -1.178   2.544   4.153  0.00  0.00    +0.005 A 
ATOM     34  C   UNL     1      -1.975   3.381   4.911  0.00  0.00    +0.000 A 
ATOM     35  C   UNL     1      -3.341   3.412   4.699  0.00  0.00    +0.000 A 
ATOM     36  C   UNL     1      -3.908   2.611   3.726  0.00  0.00    +0.000 A 
ATOM     37  C   UNL     1      -3.110   1.778   2.965  0.00  0.00    +0.005 A 
ENDBRANCH  31  32
ENDBRANCH   3  31
TORSDOF 9
