REMARK  Name = ZINC01822313
REMARK  10 active torsions:
REMARK  status: ('A' for Active; 'I' for Inactive)
REMARK    1  A    between atoms: C_1  and  C_2
REMARK    2  A    between atoms: C_2  and  O_3
REMARK    3  A    between atoms: O_3  and  C_4
REMARK    4  A    between atoms: C_7  and  C_10
REMARK    5  A    between atoms: C_11  and  C_28
REMARK    6  A    between atoms: C_12  and  C_21
REMARK    7  A    between atoms: C_26  and  C_27
REMARK    8  A    between atoms: N_29  and  C_30
REMARK    9  A    between atoms: C_30  and  C_31
REMARK   10  A    between atoms: C_31  and  C_32
REMARK                            x       y       z     vdW  Elec       q    Type
REMARK                         _______ _______ _______ _____ _____    ______ ____
ROOT
ATOM      1  C   UNL     1       1.467  -6.773  -1.153  0.00  0.00    +0.141 C 
ATOM      2  C   UNL     1       1.785  -6.786  -2.469  0.00  0.00    +0.023 C 
ATOM      3  C   UNL     1       1.694  -8.046  -3.283  0.00  0.00    +0.088 C 
ATOM      4  C   UNL     1       0.850  -9.068  -2.568  0.00  0.00    +0.007 A 
ATOM      5  C   UNL     1       0.349 -10.149  -3.270  0.00  0.00    +0.008 A 
ATOM      6  C   UNL     1      -0.427 -11.095  -2.628  0.00  0.00    +0.001 A 
ATOM      7  C   UNL     1      -0.705 -10.963  -1.280  0.00  0.00    +0.004 A 
ATOM      8  C   UNL     1      -0.208  -9.886  -0.574  0.00  0.00    +0.046 A 
ATOM      9  C   UNL     1       0.574  -8.933  -1.217  0.00  0.00    +0.133 A 
ATOM     10  O   UNL     1       1.059  -7.882  -0.509  0.00  0.00    -0.455 OA
ENDROOT
BRANCH   3  11
ATOM     11  C   UNL     1       3.077  -8.605  -3.494  0.00  0.00    -0.032 A 
ATOM     12  C   UNL     1       3.904  -8.832  -2.409  0.00  0.00    +0.005 A 
ATOM     13  C   UNL     1       5.173  -9.345  -2.603  0.00  0.00    +0.000 A 
ATOM     14  C   UNL     1       5.615  -9.632  -3.881  0.00  0.00    +0.000 A 
ATOM     15  C   UNL     1       4.788  -9.406  -4.965  0.00  0.00    +0.003 A 
ATOM     16  C   UNL     1       3.517  -8.897  -4.771  0.00  0.00    -0.046 A 
ATOM     17  C   UNL     1       2.614  -8.656  -5.953  0.00  0.00    +0.044 C 
ENDBRANCH   3  11
BRANCH   1  21
ATOM     18  C   UNL     1       1.783  -3.132   1.007  0.00  0.00    +0.121 A 
ATOM     19  C   UNL     1       2.462  -4.261   1.449  0.00  0.00    +0.046 A 
ATOM     20  C   UNL     1       2.362  -5.444   0.752  0.00  0.00    +0.015 A 
ATOM     21  C   UNL     1       1.577  -5.508  -0.403  0.00  0.00    +0.018 A 
ATOM     22  C   UNL     1       0.896  -4.370  -0.844  0.00  0.00    +0.015 A 
ATOM     23  C   UNL     1       0.997  -3.192  -0.137  0.00  0.00    +0.046 A 
BRANCH  18  24
ATOM     24  O   UNL     1       1.885  -1.967   1.697  0.00  0.00    -0.492 OA
BRANCH  24  26
ATOM     25  C   UNL     1       2.700  -0.585   3.504  0.00  0.00    +0.048 C 
ATOM     26  C   UNL     1       2.710  -1.974   2.864  0.00  0.00    +0.225 C 
ENDBRANCH  24  26
ENDBRANCH  18  24
ENDBRANCH   1  21
BRANCH   2  27
ATOM     27  C   UNL     1       2.211  -5.592  -3.089  0.00  0.00    +0.086 C 
ATOM     28  N   UNL     1       2.535  -5.593  -4.350  0.00  0.00    -0.390 N 
ATOM     29  H   UNL     1       2.407  -6.393  -4.883  0.00  0.00    +0.159 HD
BRANCH  28  30
ATOM     30  C   UNL     1       3.095  -4.386  -4.963  0.00  0.00    +0.117 C 
BRANCH  30  31
ATOM     31  C   UNL     1       4.534  -4.659  -5.405  0.00  0.00    +0.058 C 
BRANCH  31  32
ATOM     32  C   UNL     1       5.150  -3.386  -5.925  0.00  0.00    -0.021 A 
ATOM     33  C   UNL     1       5.799  -2.343  -5.127  0.00  0.00    +0.003 A 
ATOM     34  C   UNL     1       6.048  -2.178  -3.763  0.00  0.00    +0.010 A 
ATOM     35  C   UNL     1       6.695  -1.059  -3.322  0.00  0.00    +0.001 A 
ATOM     36  C   UNL     1       7.108  -0.083  -4.219  0.00  0.00    +0.002 A 
ATOM     37  C   UNL     1       6.872  -0.225  -5.569  0.00  0.00    +0.026 A 
ATOM     38  C   UNL     1       6.215  -1.357  -6.040  0.00  0.00    +0.047 A 
ATOM     39  N   UNL     1       5.841  -1.782  -7.295  0.00  0.00    -0.360 N 
ATOM     40  C   UNL     1       5.213  -2.995  -7.208  0.00  0.00    +0.087 A 
ATOM     41  H   UNL     1       6.002  -1.296  -8.119  0.00  0.00    +0.165 HD
ENDBRANCH  31  32
ENDBRANCH  30  31
ENDBRANCH  28  30
ENDBRANCH   2  27
TORSDOF 8
