REMARK  Name = ZINC19826275
REMARK  9 active torsions:
REMARK  status: ('A' for Active; 'I' for Inactive)
REMARK    1  A    between atoms: C_1  and  C_2
REMARK    2  A    between atoms: C_12  and  C_14
REMARK    3  A    between atoms: C_14  and  C_16
REMARK    4  A    between atoms: C_14  and  N_26
REMARK    5  A    between atoms: N_20  and  C_21
REMARK    6  A    between atoms: N_29  and  C_32
REMARK    7  A    between atoms: C_32  and  C_33
REMARK    8  A    between atoms: C_36  and  O_39
REMARK    9  A    between atoms: O_39  and  C_40
REMARK                            x       y       z     vdW  Elec       q    Type
REMARK                         _______ _______ _______ _____ _____    ______ ____
ROOT
ATOM      1  C   UNL     1       0.086  -2.865   4.922  0.00  0.00    +0.162 C 
ENDROOT
BRANCH   1  13
ATOM      2  C   UNL     1      -0.018   1.503   0.010  0.00  0.00    +0.046 C 
ATOM      3  C   UNL     1       0.002  -0.004   0.002  0.00  0.00    -0.026 A 
ATOM      4  C   UNL     1      -0.006  -0.690  -1.194  0.00  0.00    +0.005 A 
ATOM      5  C   UNL     1       0.020  -2.077  -1.215  0.00  0.00    +0.001 A 
ATOM      6  C   UNL     1       0.040  -2.790  -0.050  0.00  0.00    +0.010 A 
ATOM      7  C   UNL     1       0.042  -2.116   1.175  0.00  0.00    -0.001 A 
ATOM      8  C   UNL     1       0.023  -0.709   1.201  0.00  0.00    +0.052 A 
ATOM      9  N   UNL     1       0.025  -0.049   2.412  0.00  0.00    -0.322 N 
ATOM     10  H   UNL     1       0.011   1.051   2.439  0.00  0.00    +0.169 HD
ATOM     11  C   UNL     1       0.045  -0.730   3.571  0.00  0.00    +0.254 A 
ATOM     12  O   UNL     1       0.046  -0.114   4.622  0.00  0.00    -0.268 OA
ATOM     13  C   UNL     1       0.064  -2.141   3.600  0.00  0.00    +0.042 A 
ATOM     14  C   UNL     1       0.064  -2.849   2.443  0.00  0.00    +0.021 A 
ENDBRANCH   1  13
BRANCH   1  15
ATOM     15  N   UNL     1       1.222  -2.387   5.722  0.00  0.00    -0.286 NA
ATOM     16  C   UNL     1       2.487  -2.550   4.992  0.00  0.00    +0.101 C 
ATOM     17  C   UNL     1       3.632  -1.970   5.825  0.00  0.00    +0.100 C 
ATOM     18  N   UNL     1       3.685  -2.655   7.124  0.00  0.00    -0.296 NA
ATOM     19  C   UNL     1       2.421  -2.492   7.854  0.00  0.00    +0.100 C 
ATOM     20  C   UNL     1       1.275  -3.072   7.021  0.00  0.00    +0.101 C 
BRANCH  18  21
ATOM     21  C   UNL     1       4.821  -2.178   7.924  0.00  0.00    +0.119 C 
BRANCH  21  22
ATOM     22  C   UNL     1       6.111  -2.581   7.257  0.00  0.00    -0.033 A 
ATOM     23  C   UNL     1       6.702  -3.790   7.572  0.00  0.00    +0.008 A 
ATOM     24  C   UNL     1       7.881  -4.165   6.957  0.00  0.00    +0.046 A 
ATOM     25  C   UNL     1       8.478  -3.321   6.032  0.00  0.00    +0.120 A 
ATOM     26  C   UNL     1       7.886  -2.105   5.723  0.00  0.00    +0.046 A 
ATOM     27  C   UNL     1       6.704  -1.738   6.336  0.00  0.00    +0.008 A 
BRANCH  25  28
ATOM     28  O   UNL     1       9.641  -3.684   5.430  0.00  0.00    -0.495 OA
ATOM     29  C   UNL     1      10.194  -4.950   5.798  0.00  0.00    +0.277 C 
ENDBRANCH  25  28
ENDBRANCH  21  22
ENDBRANCH  18  21
ENDBRANCH   1  15
BRANCH   1  30
ATOM     30  C   UNL     1      -1.198  -2.596   5.662  0.00  0.00    +0.173 A 
ATOM     31  N   UNL     1      -1.530  -1.488   6.279  0.00  0.00    -0.111 NA
ATOM     32  N   UNL     1      -2.702  -1.651   6.787  0.00  0.00    -0.023 NA
ATOM     33  N   UNL     1      -3.127  -2.834   6.511  0.00  0.00    -0.044 NA
ATOM     34  N   UNL     1      -2.231  -3.447   5.814  0.00  0.00    -0.224 N 
BRANCH  34  35
ATOM     35  C   UNL     1      -2.318  -4.812   5.290  0.00  0.00    +0.111 C 
ATOM     36  C   UNL     1      -3.556  -4.950   4.379  0.00  0.00    +0.027 C 
ATOM     37  C   UNL     1      -4.086  -6.376   4.674  0.00  0.00    +0.002 C 
ATOM     38  C   UNL     1      -3.856  -6.519   6.199  0.00  0.00    +0.002 C 
ATOM     39  C   UNL     1      -2.509  -5.809   6.446  0.00  0.00    +0.027 C 
ENDBRANCH  34  35
ENDBRANCH   1  30
TORSDOF 7
