REMARK  Name = ZINC00137122
REMARK  3 active torsions:
REMARK  status: ('A' for Active; 'I' for Inactive)
REMARK    1  A    between atoms: C_12  and  S_13
REMARK    2  A    between atoms: S_13  and  C_14
REMARK    3  A    between atoms: C_14  and  C_15
REMARK                            x       y       z     vdW  Elec       q    Type
REMARK                         _______ _______ _______ _____ _____    ______ ____
ROOT
ATOM      1  C   UNL     1       1.220  -0.662  -0.013  0.00  0.00    +0.002 A 
ATOM      2  C   UNL     1       0.002  -0.004   0.002  0.00  0.00    +0.001 A 
ATOM      3  C   UNL     1      -0.017   1.380   0.010  0.00  0.00    +0.017 A 
ATOM      4  C   UNL     1       1.171   2.074   0.002  0.00  0.00    +0.040 A 
ATOM      5  C   UNL     1       2.416   1.437  -0.013  0.00  0.00    +0.065 A 
ATOM      6  C   UNL     1       2.406   0.033  -0.021  0.00  0.00    +0.027 A 
ATOM      7  N   UNL     1       3.550   2.264  -0.019  0.00  0.00    -0.264 N 
ATOM      8  C   UNL     1       3.358   3.620  -0.010  0.00  0.00    +0.202 A 
ATOM      9  S   UNL     1       1.591   3.800   0.008  0.00  0.00    -0.048 S 
ATOM     10  N   UNL     1       4.506   4.230  -0.018  0.00  0.00    -0.121 NA
ATOM     11  N   UNL     1       5.506   3.248  -0.033  0.00  0.00    -0.121 NA
ATOM     12  C   UNL     1       4.924   2.078  -0.034  0.00  0.00    +0.197 A 
ENDROOT
BRANCH  12  13
ATOM     13  S   UNL     1       5.748   0.521  -0.050  0.00  0.00    -0.081 S 
BRANCH  13  14
ATOM     14  C   UNL     1       7.509   0.957  -0.065  0.00  0.00    +0.112 C 
BRANCH  14  15
ATOM     15  C   UNL     1       8.338  -0.302  -0.080  0.00  0.00    -0.033 A 
ATOM     16  C   UNL     1       8.734  -0.881   1.111  0.00  0.00    +0.008 A 
ATOM     17  C   UNL     1       9.490  -2.038   1.103  0.00  0.00    +0.050 A 
ATOM     18  C   UNL     1       9.863  -2.614  -0.101  0.00  0.00    +0.166 A 
ATOM     19  C   UNL     1       9.469  -2.028  -1.301  0.00  0.00    +0.167 A 
ATOM     20  C   UNL     1       8.706  -0.871  -1.285  0.00  0.00    +0.054 A 
ATOM     21  O   UNL     1       9.956  -2.776  -2.333  0.00  0.00    -0.453 OA
ATOM     22  C   UNL     1      10.993  -3.594  -1.760  0.00  0.00    +0.466 C 
ATOM     23  O   UNL     1      10.598  -3.730  -0.382  0.00  0.00    -0.453 OA
ENDBRANCH  14  15
ENDBRANCH  13  14
ENDBRANCH  12  13
TORSDOF 3
