REMARK  Name = ZINC21246981
REMARK  10 active torsions:
REMARK  status: ('A' for Active; 'I' for Inactive)
REMARK    1  A    between atoms: C_1  and  C_2
REMARK    2  A    between atoms: C_2  and  O_3
REMARK    3  A    between atoms: O_3  and  C_4
REMARK    4  A    between atoms: C_6  and  C_12
REMARK    5  A    between atoms: C_9  and  O_10
REMARK    6  A    between atoms: C_17  and  C_22
REMARK    7  A    between atoms: C_25  and  O_28
REMARK    8  A    between atoms: O_28  and  C_29
REMARK    9  A    between atoms: C_29  and  C_30
REMARK   10  A    between atoms: C_29  and  C_31
REMARK                            x       y       z     vdW  Elec       q    Type
REMARK                         _______ _______ _______ _____ _____    ______ ____
ROOT
ATOM      1  C   UNL     1       3.675   2.183  -0.019  0.00  0.00    +0.136 C 
ATOM      2  C   UNL     1       3.938   2.693   1.378  0.00  0.00    +0.036 C 
ATOM      3  C   UNL     1       3.879   3.972   1.777  0.00  0.00    +0.017 C 
ATOM      4  C   UNL     1       4.133   4.338   3.231  0.00  0.00    +0.059 C 
ATOM      5  C   UNL     1       5.166   3.386   3.833  0.00  0.00    +0.032 C 
ATOM      6  C   UNL     1       4.603   1.964   3.736  0.00  0.00    +0.088 C 
ATOM      7  C   UNL     1       4.282   1.673   2.300  0.00  0.00    +0.163 C 
ATOM      8  O   UNL     1       4.317   0.521   1.914  0.00  0.00    -0.292 OA
ATOM      9  N   UNL     1       3.583   5.023   0.972  0.00  0.00    -0.316 N 
ATOM     10  C   UNL     1       2.527   5.057   0.069  0.00  0.00    +0.052 A 
ATOM     11  C   UNL     1       1.496   5.974   0.173  0.00  0.00    +0.025 A 
ATOM     12  C   UNL     1       0.531   6.027  -0.819  0.00  0.00    +0.002 A 
ATOM     13  C   UNL     1       0.598   5.170  -1.903  0.00  0.00    +0.002 A 
ATOM     14  C   UNL     1       1.616   4.238  -1.997  0.00  0.00    +0.025 A 
ATOM     15  C   UNL     1       2.573   4.171  -0.998  0.00  0.00    +0.049 A 
ATOM     16  N   UNL     1       3.591   3.220  -1.026  0.00  0.00    -0.331 N 
ATOM     17  H   UNL     1       4.201   5.933   1.006  0.00  0.00    +0.152 HD
ATOM     18  H   UNL     1       4.339   3.266  -1.832  0.00  0.00    +0.147 HD
ENDROOT
BRANCH   1  21
ATOM     19  C   UNL     1       1.184  -0.648  -0.255  0.00  0.00    +0.163 A 
ATOM     20  C   UNL     1       2.377   0.058  -0.261  0.00  0.00    +0.055 A 
ATOM     21  C   UNL     1       2.377   1.418  -0.012  0.00  0.00    -0.018 A 
ATOM     22  C   UNL     1       1.189   2.077   0.244  0.00  0.00    +0.029 A 
ATOM     23  C   UNL     1      -0.005   1.379   0.252  0.00  0.00    +0.086 A 
ATOM     24  C   UNL     1      -0.012   0.015   0.003  0.00  0.00    +0.177 A 
ATOM     25 CL   UNL     1      -1.496   2.211   0.566  0.00  0.00    -0.080 Cl
BRANCH  24  26
ATOM     26  O   UNL     1      -1.185  -0.674   0.010  0.00  0.00    -0.502 OA
ATOM     27  H   UNL     1      -2.130  -0.148   0.214  0.00  0.00    +0.292 HD
ENDBRANCH  24  26
BRANCH  19  28
ATOM     28  O   UNL     1       1.183  -1.986  -0.499  0.00  0.00    -0.489 OA
BRANCH  28  30
ATOM     29  C   UNL     1       2.247  -4.096  -1.006  0.00  0.00    +0.048 C 
ATOM     30  C   UNL     1       2.447  -2.600  -0.756  0.00  0.00    +0.226 C 
ENDBRANCH  28  30
ENDBRANCH  19  28
ENDBRANCH   1  21
BRANCH   5  31
ATOM     31  C   UNL     1       5.407   3.743   5.277  0.00  0.00    -0.043 A 
ATOM     32  C   UNL     1       4.359   3.714   6.179  0.00  0.00    +0.007 A 
ATOM     33  C   UNL     1       4.579   4.034   7.505  0.00  0.00    +0.046 A 
ATOM     34  C   UNL     1       5.849   4.396   7.929  0.00  0.00    +0.121 A 
ATOM     35  C   UNL     1       6.897   4.430   7.021  0.00  0.00    +0.046 A 
ATOM     36  C   UNL     1       6.674   4.103   5.697  0.00  0.00    +0.007 A 
BRANCH  34  37
ATOM     37  O   UNL     1       6.066   4.717   9.231  0.00  0.00    -0.489 OA
BRANCH  37  38
ATOM     38  C   UNL     1       7.369   5.195   9.573  0.00  0.00    +0.167 C 
ATOM     39  C   UNL     1       7.281   6.059  10.833  0.00  0.00    +0.051 C 
ATOM     40  C   UNL     1       8.296   4.006   9.833  0.00  0.00    +0.051 C 
ENDBRANCH  37  38
ENDBRANCH  34  37
ENDBRANCH   5  31
TORSDOF 7
