REMARK  Name = ZINC39997845
REMARK  15 active torsions:
REMARK  status: ('A' for Active; 'I' for Inactive)
REMARK    1  A    between atoms: C_1  and  C_2
REMARK    2  A    between atoms: C_2  and  C_3
REMARK    3  A    between atoms: C_3  and  C_4
REMARK    4  A    between atoms: C_7  and  N_9
REMARK    5  A    between atoms: C_10  and  C_12
REMARK    6  A    between atoms: C_12  and  C_37
REMARK    7  A    between atoms: C_13  and  C_14
REMARK    8  A    between atoms: N_16  and  C_31
REMARK    9  A    between atoms: C_18  and  C_19
REMARK   10  A    between atoms: C_22  and  O_25
REMARK   11  A    between atoms: O_25  and  C_26
REMARK   12  A    between atoms: C_26  and  C_27
REMARK   13  A    between atoms: C_27  and  C_28
REMARK   14  A    between atoms: C_28  and  C_29
REMARK   15  A    between atoms: C_28  and  C_30
REMARK                            x       y       z     vdW  Elec       q    Type
REMARK                         _______ _______ _______ _____ _____    ______ ____
ROOT
ATOM      1  C   UNL     1       0.688 -10.686  -1.520  0.00  0.00    +0.022 A 
ATOM      2  C   UNL     1       1.832 -11.119  -0.870  0.00  0.00    +0.123 A 
ATOM      3  N   UNL     1       1.884 -12.458  -0.980  0.00  0.00    -0.239 N 
ATOM      4  N   UNL     1       0.778 -12.916  -1.700  0.00  0.00    -0.166 NA
ATOM      5  C   UNL     1       0.029 -11.892  -2.041  0.00  0.00    +0.100 A 
ENDROOT
BRANCH   5   6
ATOM      6  C   UNL     1      -1.238 -11.943  -2.807  0.00  0.00    +0.003 A 
ATOM      7  C   UNL     1      -2.263 -11.040  -2.524  0.00  0.00    +0.013 A 
ATOM      8  C   UNL     1      -3.441 -11.090  -3.240  0.00  0.00    +0.046 A 
ATOM      9  C   UNL     1      -3.607 -12.038  -4.241  0.00  0.00    +0.121 A 
ATOM     10  C   UNL     1      -2.588 -12.938  -4.525  0.00  0.00    +0.046 A 
ATOM     11  C   UNL     1      -1.406 -12.890  -3.817  0.00  0.00    +0.013 A 
BRANCH   9  12
ATOM     12  O   UNL     1      -4.769 -12.085  -4.944  0.00  0.00    -0.492 OA
BRANCH  12  13
ATOM     13  C   UNL     1      -4.873 -13.085  -5.959  0.00  0.00    +0.229 C 
BRANCH  13  14
ATOM     14  C   UNL     1      -6.241 -12.983  -6.637  0.00  0.00    +0.044 C 
BRANCH  14  15
ATOM     15  C   UNL     1      -6.352 -14.054  -7.724  0.00  0.00    -0.014 C 
ATOM     16  C   UNL     1      -6.322 -15.441  -7.079  0.00  0.00    +0.007 C 
ATOM     17  C   UNL     1      -7.667 -13.874  -8.485  0.00  0.00    +0.007 C 
ENDBRANCH  14  15
ENDBRANCH  13  14
ENDBRANCH  12  13
ENDBRANCH   9  12
ENDBRANCH   5   6
BRANCH   3  18
ATOM     18  C   UNL     1       2.895 -13.271  -0.451  0.00  0.00    +0.065 A 
ATOM     19  C   UNL     1       3.947 -12.703   0.255  0.00  0.00    +0.028 A 
ATOM     20  C   UNL     1       4.942 -13.508   0.775  0.00  0.00    +0.002 A 
ATOM     21  C   UNL     1       4.891 -14.877   0.593  0.00  0.00    +0.000 A 
ATOM     22  C   UNL     1       3.845 -15.446  -0.109  0.00  0.00    +0.002 A 
ATOM     23  C   UNL     1       2.844 -14.648  -0.627  0.00  0.00    +0.028 A 
ENDBRANCH   3  18
BRANCH   1  25
ATOM     24  C   UNL     1       0.736  -8.323  -0.833  0.00  0.00    +0.119 C 
ATOM     25  C   UNL     1       0.225  -9.306  -1.656  0.00  0.00    +0.036 C 
BRANCH  24  27
ATOM     26  N   UNL     1       0.872  -5.978  -0.281  0.00  0.00    -0.180 NA
ATOM     27  C   UNL     1       0.385  -6.915  -1.065  0.00  0.00    +0.290 C 
ATOM     28  O   UNL     1      -0.438  -6.583  -2.086  0.00  0.00    -0.264 OA
BRANCH  26  32
ATOM     29  C   UNL     1       0.127  -2.050  -0.622  0.00  0.00    +0.104 A 
ATOM     30  N   UNL     1      -0.428  -2.885  -1.479  0.00  0.00    -0.144 NA
ATOM     31  N   UNL     1      -0.234  -4.130  -1.427  0.00  0.00    -0.121 NA
ATOM     32  C   UNL     1       0.548  -4.677  -0.496  0.00  0.00    +0.218 A 
ATOM     33  S   UNL     1       1.053  -3.203   0.387  0.00  0.00    -0.031 S 
BRANCH  29  34
ATOM     34  C   UNL     1       0.018  -0.550  -0.524  0.00  0.00    +0.064 C 
BRANCH  34  36
ATOM     35  C   UNL     1      -1.263   1.341   0.488  0.00  0.00    +0.004 C 
ATOM     36  C   UNL     1      -1.153  -0.182   0.389  0.00  0.00    +0.003 C 
ENDBRANCH  34  36
ENDBRANCH  29  34
ENDBRANCH  26  32
ENDBRANCH  24  27
BRANCH  24  37
ATOM     37  C   UNL     1       1.607  -8.675   0.247  0.00  0.00    +0.105 C 
ATOM     38  N   UNL     1       2.299  -8.954   1.104  0.00  0.00    -0.191 NA
ENDBRANCH  24  37
ENDBRANCH   1  25
TORSDOF 12
