REMARK  Name = ZINC02321189
REMARK  6 active torsions:
REMARK  status: ('A' for Active; 'I' for Inactive)
REMARK    1  A    between atoms: C_1  and  O_2
REMARK    2  A    between atoms: O_2  and  C_3
REMARK    3  A    between atoms: C_6  and  C_9
REMARK    4  A    between atoms: C_9  and  C_11
REMARK    5  A    between atoms: N_29  and  C_32
REMARK    6  A    between atoms: C_37  and  C_38
REMARK                            x       y       z     vdW  Elec       q    Type
REMARK                         _______ _______ _______ _____ _____    ______ ____
ROOT
ATOM      1  C   UNL     1       4.977   0.100  -0.045  0.00  0.00    +0.141 C 
ATOM      2  C   UNL     1       5.330   0.560   1.385  0.00  0.00    +0.116 C 
ATOM      3  C   UNL     1       6.888   0.557   1.397  0.00  0.00    +0.113 C 
ATOM      4  C   UNL     1       7.296  -0.380   0.259  0.00  0.00    +0.100 C 
ATOM      5  C   UNL     1       6.037  -1.815  -1.374  0.00  0.00    +0.054 C 
ATOM      6  C   UNL     1       6.836  -2.866  -1.107  0.00  0.00    +0.022 C 
ATOM      7  C   UNL     1       7.671  -2.850   0.111  0.00  0.00    -0.019 A 
ATOM      8  C   UNL     1       7.913  -1.649   0.789  0.00  0.00    -0.021 A 
ATOM      9  C   UNL     1       8.696  -1.637   1.919  0.00  0.00    +0.006 A 
ATOM     10  C   UNL     1       9.246  -2.817   2.393  0.00  0.00    +0.000 A 
ATOM     11  C   UNL     1       9.011  -4.010   1.733  0.00  0.00    +0.001 A 
ATOM     12  C   UNL     1       8.228  -4.035   0.597  0.00  0.00    +0.008 A 
ATOM     13  C   UNL     1       7.228   1.989   1.033  0.00  0.00    +0.232 C 
ATOM     14  O   UNL     1       8.306   2.383   0.643  0.00  0.00    -0.274 OA
ATOM     15  N   UNL     1       6.136   2.747   1.215  0.00  0.00    -0.209 N 
ATOM     16  C   UNL     1       5.027   2.052   1.510  0.00  0.00    +0.232 C 
ATOM     17  O   UNL     1       3.959   2.528   1.832  0.00  0.00    -0.274 OA
ATOM     18  N   UNL     1       6.196  -0.480  -0.664  0.00  0.00    -0.384 NA
ATOM     19  H   UNL     1       6.437   0.170  -1.422  0.00  0.00    +0.127 HD
ENDROOT
BRANCH  15  20
ATOM     20  C   UNL     1       6.152   4.144   1.105  0.00  0.00    +0.056 A 
ATOM     21  C   UNL     1       5.909   4.748  -0.122  0.00  0.00    +0.024 A 
ATOM     22  C   UNL     1       5.921   6.125  -0.226  0.00  0.00    +0.002 A 
ATOM     23  C   UNL     1       6.185   6.902   0.887  0.00  0.00    +0.001 A 
ATOM     24  C   UNL     1       6.432   6.303   2.108  0.00  0.00    +0.014 A 
ATOM     25  C   UNL     1       6.417   4.926   2.220  0.00  0.00    +0.077 A 
BRANCH  25  26
ATOM     26  C   UNL     1       6.687   4.275   3.551  0.00  0.00    +0.419 C 
ATOM     27  F   UNL     1       6.925   5.262   4.514  0.00  0.00    -0.166 F 
ATOM     28  F   UNL     1       5.579   3.510   3.931  0.00  0.00    -0.166 F 
ATOM     29  F   UNL     1       7.810   3.447   3.446  0.00  0.00    -0.166 F 
ENDBRANCH  25  26
ENDBRANCH  15  20
BRANCH   1  30
ATOM     30  C   UNL     1       3.683  -0.673  -0.036  0.00  0.00    +0.183 C 
ATOM     31  O   UNL     1       3.702  -1.886  -0.043  0.00  0.00    -0.290 OA
BRANCH  30  35
ATOM     32  C   UNL     1      -0.017   1.387   0.010  0.00  0.00    +0.120 A 
ATOM     33  C   UNL     1       1.175   2.103   0.002  0.00  0.00    +0.046 A 
ATOM     34  C   UNL     1       2.376   1.441  -0.013  0.00  0.00    +0.015 A 
ATOM     35  C   UNL     1       2.400   0.041  -0.020  0.00  0.00    +0.019 A 
ATOM     36  C   UNL     1       1.197  -0.676  -0.013  0.00  0.00    +0.015 A 
ATOM     37  C   UNL     1       0.002  -0.004   0.002  0.00  0.00    +0.046 A 
BRANCH  32  39
ATOM     38  C   UNL     1      -1.149   3.474   0.026  0.00  0.00    +0.277 C 
ATOM     39  O   UNL     1      -1.202   2.046   0.019  0.00  0.00    -0.495 OA
ENDBRANCH  32  39
ENDBRANCH  30  35
ENDBRANCH   1  30
TORSDOF 5
