REMARK  Name = ZINC35378133
REMARK  7 active torsions:
REMARK  status: ('A' for Active; 'I' for Inactive)
REMARK    1  A    between atoms: C_1  and  C_2
REMARK    2  A    between atoms: C_2  and  C_3
REMARK    3  A    between atoms: C_6  and  C_21
REMARK    4  A    between atoms: C_8  and  S_9
REMARK    5  A    between atoms: S_9  and  N_12
REMARK    6  A    between atoms: N_12  and  C_13
REMARK    7  A    between atoms: C_18  and  C_19
REMARK                            x       y       z     vdW  Elec       q    Type
REMARK                         _______ _______ _______ _____ _____    ______ ____
ROOT
ATOM      1  C   UNL     1      -1.614  -0.591   0.013  0.00  0.00    -0.021 A 
ATOM      2  C   UNL     1      -2.247  -0.807   1.224  0.00  0.00    +0.006 A 
ATOM      3  C   UNL     1      -3.579  -1.167   1.255  0.00  0.00    +0.010 A 
ATOM      4  C   UNL     1      -4.287  -1.312   0.063  0.00  0.00    +0.004 A 
ATOM      5  C   UNL     1      -3.645  -1.092  -1.154  0.00  0.00    +0.039 A 
ATOM      6  C   UNL     1      -2.313  -0.728  -1.173  0.00  0.00    +0.112 A 
ENDROOT
BRANCH   4   7
ATOM      7  C   UNL     1      -5.719  -1.698   0.090  0.00  0.00    +0.091 A 
ATOM      8  C   UNL     1      -6.365  -1.921   1.328  0.00  0.00    +0.035 A 
ATOM      9  C   UNL     1      -7.682  -2.275   1.314  0.00  0.00    +0.073 A 
ATOM     10  C   UNL     1      -8.320  -2.398   0.060  0.00  0.00    +0.265 A 
ATOM     11  O   UNL     1      -9.498  -2.712  -0.002  0.00  0.00    -0.266 OA
ATOM     12  N   UNL     1      -7.620  -2.165  -1.066  0.00  0.00    -0.243 N 
ATOM     13  N   UNL     1      -6.382  -1.828  -1.035  0.00  0.00    -0.171 NA
ATOM     14  H   UNL     1      -8.065  -2.252  -1.924  0.00  0.00    +0.192 HD
ENDBRANCH   4   7
BRANCH   6  15
ATOM     15  S   UNL     1      -1.501  -0.443  -2.710  0.00  0.00    +0.073 S 
ATOM     16  O   UNL     1      -2.455  -0.712  -3.729  0.00  0.00    -0.150 OA
ATOM     17  O   UNL     1      -0.842   0.810  -2.596  0.00  0.00    -0.150 OA
BRANCH  15  18
ATOM     18  N   UNL     1      -0.315  -1.590  -2.857  0.00  0.00    -0.216 N 
ATOM     19  H   UNL     1       0.612  -1.320  -2.944  0.00  0.00    +0.174 HD
BRANCH  18  20
ATOM     20  C   UNL     1      -0.651  -2.946  -2.856  0.00  0.00    +0.051 A 
ATOM     21  C   UNL     1      -1.834  -3.371  -3.448  0.00  0.00    +0.026 A 
ATOM     22  C   UNL     1      -2.163  -4.712  -3.446  0.00  0.00    +0.017 A 
ATOM     23  C   UNL     1      -1.316  -5.632  -2.855  0.00  0.00    +0.018 A 
ATOM     24  C   UNL     1      -0.138  -5.213  -2.264  0.00  0.00    +0.020 A 
ATOM     25  C   UNL     1       0.199  -3.873  -2.268  0.00  0.00    -0.027 A 
ATOM     26  C   UNL     1       1.486  -3.417  -1.630  0.00  0.00    +0.046 C 
ATOM     27 BR   UNL     1      -1.771  -7.468  -2.853  0.00  0.00    -0.050 Br
ENDBRANCH  18  20
ENDBRANCH  15  18
ENDBRANCH   6  15
BRANCH   1  29
ATOM     28  C   UNL     1      -0.042   1.326   0.046  0.00  0.00    +0.009 C 
ATOM     29  C   UNL     1      -0.160  -0.198  -0.015  0.00  0.00    +0.034 C 
ENDBRANCH   1  29
TORSDOF 5
