REMARK  Name = ZINC04735443
REMARK  11 active torsions:
REMARK  status: ('A' for Active; 'I' for Inactive)
REMARK    1  A    between atoms: C_1  and  C_2
REMARK    2  A    between atoms: C_2  and  C_3
REMARK    3  A    between atoms: C_3  and  C_4
REMARK    4  A    between atoms: C_4  and  C_5
REMARK    5  A    between atoms: C_5  and  C_6
REMARK    6  A    between atoms: C_9  and  C_12
REMARK    7  A    between atoms: C_20  and  C_24
REMARK    8  A    between atoms: N_26  and  C_27
REMARK    9  A    between atoms: C_27  and  C_29
REMARK   10  A    between atoms: C_27  and  C_30
REMARK   11  A    between atoms: C_30  and  C_31
REMARK                            x       y       z     vdW  Elec       q    Type
REMARK                         _______ _______ _______ _____ _____    ______ ____
ROOT
ATOM      1  C   UNL     1      -6.203   8.151  -2.593  0.00  0.00    +0.247 C 
ATOM      2  O   UNL     1      -5.787   8.353  -3.717  0.00  0.00    -0.270 OA
ATOM      3  N   UNL     1      -5.360   8.204  -1.543  0.00  0.00    -0.298 N 
ATOM      4  C   UNL     1      -5.869   8.088  -0.169  0.00  0.00    +0.107 C 
ATOM      5  C   UNL     1      -5.386   9.298   0.638  0.00  0.00    +0.017 C 
ATOM      6  C   UNL     1      -3.873   9.419   0.515  0.00  0.00    -0.016 C 
ATOM      7  C   UNL     1      -3.444   9.588  -0.935  0.00  0.00    +0.017 C 
ATOM      8  C   UNL     1      -3.916   8.379  -1.751  0.00  0.00    +0.107 C 
ATOM      9  C   UNL     1      -2.222   8.601   2.187  0.00  0.00    +0.028 C 
ATOM     10  C   UNL     1      -2.639   9.898   2.943  0.00  0.00    +0.061 C 
ATOM     11  S   UNL     1      -3.289  10.857   1.501  0.00  0.00    -0.174 S 
ATOM     12  N   UNL     1      -3.204   8.230   1.129  0.00  0.00    +0.397 N 
ATOM     13  H   UNL     1      -2.712   7.714   0.390  0.00  0.00    -0.083 HD
ATOM     14  H   UNL     1      -3.924   7.628   1.546  0.00  0.00    -0.083 HD
ENDROOT
BRANCH   1  18
ATOM     15  C   UNL     1     -10.314   7.278  -1.976  0.00  0.00    -0.047 A 
ATOM     16  C   UNL     1      -9.941   8.185  -2.952  0.00  0.00    +0.004 A 
ATOM     17  C   UNL     1      -8.608   8.473  -3.158  0.00  0.00    +0.013 A 
ATOM     18  C   UNL     1      -7.634   7.848  -2.378  0.00  0.00    +0.037 A 
ATOM     19  C   UNL     1      -8.016   6.930  -1.399  0.00  0.00    +0.013 A 
ATOM     20  C   UNL     1      -9.353   6.654  -1.200  0.00  0.00    +0.004 A 
BRANCH  15  21
ATOM     21  C   UNL     1     -11.772   6.968  -1.757  0.00  0.00    +0.035 C 
BRANCH  21  22
ATOM     22  C   UNL     1     -12.183   5.793  -2.647  0.00  0.00    +0.005 C 
BRANCH  22  23
ATOM     23  C   UNL     1     -13.664   5.478  -2.424  0.00  0.00    +0.000 C 
BRANCH  23  25
ATOM     24  C   UNL     1     -15.555   3.989  -3.092  0.00  0.00    +0.004 C 
ATOM     25  C   UNL     1     -14.075   4.303  -3.314  0.00  0.00    -0.003 C 
ENDBRANCH  23  25
ENDBRANCH  22  23
ENDBRANCH  21  22
ENDBRANCH  15  21
ENDBRANCH   1  18
BRANCH   9  26
ATOM     26  C   UNL     1      -2.143   7.459   3.167  0.00  0.00    +0.200 C 
ATOM     27  O   UNL     1      -2.867   6.495   3.035  0.00  0.00    -0.278 OA
ATOM     28  N   UNL     1      -1.268   7.510   4.191  0.00  0.00    -0.314 N 
ATOM     29  H   UNL     1      -0.690   8.281   4.297  0.00  0.00    +0.149 HD
BRANCH  28  30
ATOM     30  C   UNL     1      -1.191   6.400   5.145  0.00  0.00    +0.070 C 
ATOM     31  C   UNL     1      -0.260   5.318   4.594  0.00  0.00    +0.028 C 
BRANCH  30  32
ATOM     32  C   UNL     1      -0.647   6.911   6.480  0.00  0.00    +0.018 C 
ATOM     33  C   UNL     1      -1.640   7.901   7.091  0.00  0.00    +0.005 C 
ENDBRANCH  30  32
ENDBRANCH  28  30
ENDBRANCH   9  26
TORSDOF 8
