REMARK  Name = ZINC09390946
REMARK  11 active torsions:
REMARK  status: ('A' for Active; 'I' for Inactive)
REMARK    1  A    between atoms: C_1  and  C_2
REMARK    2  A    between atoms: C_2  and  O_3
REMARK    3  A    between atoms: O_3  and  C_4
REMARK    4  A    between atoms: C_4  and  C_6
REMARK    5  A    between atoms: C_6  and  C_8
REMARK    6  A    between atoms: C_6  and  S_9
REMARK    7  A    between atoms: S_9  and  C_10
REMARK    8  A    between atoms: C_13  and  C_22
REMARK    9  A    between atoms: N_14  and  C_15
REMARK   10  A    between atoms: C_22  and  N_23
REMARK   11  A    between atoms: C_24  and  C_26
REMARK                            x       y       z     vdW  Elec       q    Type
REMARK                         _______ _______ _______ _____ _____    ______ ____
ROOT
ATOM      1  C   UNL     1      -5.219   3.421  -0.574  0.00  0.00    +0.197 A 
ATOM      2  N   UNL     1      -5.148   3.359   0.736  0.00  0.00    -0.122 NA
ATOM      3  N   UNL     1      -4.200   2.564   1.085  0.00  0.00    -0.132 NA
ATOM      4  C   UNL     1      -3.608   2.080   0.030  0.00  0.00    +0.156 A 
ATOM      5  N   UNL     1      -4.237   2.606  -1.067  0.00  0.00    -0.273 N 
ENDROOT
BRANCH   5   6
ATOM      6  C   UNL     1      -3.938   2.359  -2.415  0.00  0.00    +0.052 A 
ATOM      7  C   UNL     1      -4.862   1.711  -3.224  0.00  0.00    +0.026 A 
ATOM      8  C   UNL     1      -4.565   1.469  -4.552  0.00  0.00    +0.003 A 
ATOM      9  C   UNL     1      -3.350   1.871  -5.075  0.00  0.00    +0.020 A 
ATOM     10  C   UNL     1      -2.428   2.517  -4.271  0.00  0.00    +0.043 A 
ATOM     11  C   UNL     1      -2.721   2.766  -2.942  0.00  0.00    +0.046 A 
ATOM     12 CL   UNL     1      -0.903   3.021  -4.931  0.00  0.00    -0.083 Cl
ENDBRANCH   5   6
BRANCH   1  13
ATOM     13  S   UNL     1      -6.362   4.374  -1.518  0.00  0.00    -0.071 S 
BRANCH  13  14
ATOM     14  C   UNL     1      -7.302   5.152  -0.180  0.00  0.00    +0.160 C 
ATOM     15  C   UNL     1      -8.057   4.077   0.605  0.00  0.00    +0.031 C 
BRANCH  14  16
ATOM     16  C   UNL     1      -8.286   6.133  -0.763  0.00  0.00    +0.320 C 
ATOM     17  O   UNL     1      -8.681   5.992  -1.896  0.00  0.00    -0.250 OA
BRANCH  16  18
ATOM     18  O   UNL     1      -8.724   7.164  -0.023  0.00  0.00    -0.464 OA
BRANCH  18  20
ATOM     19  C   UNL     1     -10.053   9.172   0.340  0.00  0.00    +0.048 C 
ATOM     20  C   UNL     1      -9.671   8.069  -0.649  0.00  0.00    +0.229 C 
ENDBRANCH  18  20
ENDBRANCH  16  18
ENDBRANCH  14  16
ENDBRANCH  13  14
ENDBRANCH   1  13
BRANCH   4  21
ATOM     21  C   UNL     1      -2.449   1.117   0.020  0.00  0.00    +0.181 C 
BRANCH  21  22
ATOM     22  N   UNL     1      -1.191   1.867   0.018  0.00  0.00    -0.308 N 
ATOM     23  C   UNL     1      -0.014   1.209   0.009  0.00  0.00    +0.220 C 
ATOM     24  O   UNL     1       0.002  -0.004   0.002  0.00  0.00    -0.275 OA
ATOM     25  H   UNL     1      -1.204   2.837   0.023  0.00  0.00    +0.149 HD
BRANCH  23  26
ATOM     26  C   UNL     1       1.280   1.980   0.001  0.00  0.00    +0.048 C 
ATOM     27  C   UNL     1       1.337   2.867  -1.245  0.00  0.00    +0.019 C 
ATOM     28  C   UNL     1       2.652   3.650  -1.253  0.00  0.00    -0.009 C 
ATOM     29  C   UNL     1       3.828   2.672  -1.270  0.00  0.00    +0.007 C 
ATOM     30  C   UNL     1       3.771   1.784  -0.024  0.00  0.00    -0.009 C 
ATOM     31  C   UNL     1       2.457   1.002  -0.016  0.00  0.00    +0.019 C 
ATOM     32  C   UNL     1       3.852   2.658   1.229  0.00  0.00    +0.007 C 
ATOM     33  C   UNL     1       2.676   3.637   1.245  0.00  0.00    -0.009 C 
ATOM     34  C   UNL     1       2.733   4.524   0.000  0.00  0.00    +0.007 C 
ATOM     35  C   UNL     1       1.361   2.854   1.254  0.00  0.00    +0.019 C 
ENDBRANCH  23  26
ENDBRANCH  21  22
ENDBRANCH   4  21
TORSDOF 9
