REMARK  Name = ZINC06115911
REMARK  5 active torsions:
REMARK  status: ('A' for Active; 'I' for Inactive)
REMARK    1  A    between atoms: C_4  and  C_7
REMARK    2  A    between atoms: C_10  and  C_27
REMARK    3  A    between atoms: C_15  and  N_17
REMARK    4  A    between atoms: N_17  and  S_18
REMARK    5  A    between atoms: S_18  and  C_21
REMARK                            x       y       z     vdW  Elec       q    Type
REMARK                         _______ _______ _______ _____ _____    ______ ____
ROOT
ATOM      1  C   UNL     1       3.711  -0.707  -0.038  0.00  0.00    +0.147 C 
ATOM      2  C   UNL     1       3.791  -1.597  -1.284  0.00  0.00    +0.087 C 
ATOM      3  C   UNL     1       2.966  -2.841  -1.112  0.00  0.00    +0.055 C 
ATOM      4  N   UNL     1       2.819  -3.434   0.042  0.00  0.00    -0.217 NA
ATOM      5  C   UNL     1       3.373  -2.865   1.145  0.00  0.00    +0.228 A 
ATOM      6  N   UNL     1       3.812  -1.568   1.141  0.00  0.00    -0.221 N 
ATOM      7  N   UNL     1       4.320  -1.311   2.410  0.00  0.00    -0.130 NA
ATOM      8  C   UNL     1       4.158  -2.413   3.114  0.00  0.00    +0.255 A 
ATOM      9  N   UNL     1       3.575  -3.346   2.348  0.00  0.00    -0.293 N 
ATOM     10  H   UNL     1       3.339  -4.241   2.639  0.00  0.00    +0.172 HD
ENDROOT
BRANCH   3  11
ATOM     11  C   UNL     1       2.298  -3.414  -2.291  0.00  0.00    -0.003 A 
ATOM     12  C   UNL     1       2.440  -2.807  -3.543  0.00  0.00    +0.011 A 
ATOM     13  C   UNL     1       1.811  -3.349  -4.643  0.00  0.00    +0.020 A 
ATOM     14  C   UNL     1       1.039  -4.493  -4.511  0.00  0.00    +0.041 A 
ATOM     15  C   UNL     1       0.894  -5.099  -3.274  0.00  0.00    +0.020 A 
ATOM     16  C   UNL     1       1.523  -4.572  -2.166  0.00  0.00    +0.011 A 
ATOM     17 CL   UNL     1       0.250  -5.168  -5.902  0.00  0.00    -0.084 Cl
ENDBRANCH   3  11
BRANCH   1  21
ATOM     18  C   UNL     1      -0.017   1.378   0.010  0.00  0.00    +0.000 A 
ATOM     19  C   UNL     1       1.171   2.086   0.002  0.00  0.00    +0.000 A 
ATOM     20  C   UNL     1       2.377   1.411  -0.013  0.00  0.00    +0.006 A 
ATOM     21  C   UNL     1       2.396   0.029  -0.020  0.00  0.00    -0.023 A 
ATOM     22  C   UNL     1       1.208  -0.679  -0.012  0.00  0.00    +0.006 A 
ATOM     23  C   UNL     1       0.002  -0.004   0.002  0.00  0.00    +0.000 A 
ENDBRANCH   1  21
BRANCH   8  24
ATOM     24  N   UNL     1       4.534  -2.582   4.447  0.00  0.00    -0.058 NA
BRANCH  24  25
ATOM     25  S   UNL     1       5.247  -1.334   5.271  0.00  0.00    +0.094 S 
ATOM     26  O   UNL     1       6.509  -1.111   4.656  0.00  0.00    -0.148 OA
ATOM     27  O   UNL     1       4.267  -0.313   5.390  0.00  0.00    -0.148 OA
BRANCH  25  28
ATOM     28  C   UNL     1       5.577  -1.909   6.903  0.00  0.00    +0.110 A 
ATOM     29  C   UNL     1       4.626  -1.756   7.895  0.00  0.00    +0.029 A 
ATOM     30  C   UNL     1       4.885  -2.207   9.176  0.00  0.00    +0.002 A 
ATOM     31  C   UNL     1       6.094  -2.811   9.465  0.00  0.00    +0.000 A 
ATOM     32  C   UNL     1       7.044  -2.965   8.473  0.00  0.00    +0.002 A 
ATOM     33  C   UNL     1       6.784  -2.518   7.191  0.00  0.00    +0.029 A 
ENDBRANCH  25  28
ENDBRANCH  24  25
ENDBRANCH   8  24
TORSDOF 5
