REMARK  Name = ZINC66927043
REMARK  10 active torsions:
REMARK  status: ('A' for Active; 'I' for Inactive)
REMARK    1  A    between atoms: C_1  and  C_2
REMARK    2  A    between atoms: C_2  and  N_3
REMARK    3  A    between atoms: N_3  and  C_4
REMARK    4  A    between atoms: N_3  and  C_6
REMARK    5  A    between atoms: C_4  and  C_5
REMARK    6  A    between atoms: C_9  and  C_13
REMARK    7  A    between atoms: C_13  and  N_14
REMARK    8  A    between atoms: N_17  and  C_18
REMARK    9  A    between atoms: C_18  and  C_20
REMARK   10  A    between atoms: C_18  and  C_21
REMARK                            x       y       z     vdW  Elec       q    Type
REMARK                         _______ _______ _______ _____ _____    ______ ____
ROOT
ATOM      1  N   UNL     1      -5.340  -2.021   4.688  0.00  0.00    -0.295 N 
ATOM      2  C   UNL     1      -6.152  -2.329   5.719  0.00  0.00    +0.300 C 
ATOM      3  O   UNL     1      -5.762  -2.190   6.862  0.00  0.00    -0.253 OA
ATOM      4  N   UNL     1      -7.395  -2.792   5.482  0.00  0.00    -0.293 N 
ATOM      5  H   UNL     1      -5.650  -2.131   3.776  0.00  0.00    +0.151 HD
ATOM      6  H   UNL     1      -7.706  -2.902   4.569  0.00  0.00    +0.151 HD
ENDROOT
BRANCH   4   7
ATOM      7  C   UNL     1      -8.278  -3.127   6.602  0.00  0.00    +0.102 C 
ATOM      8  C   UNL     1      -8.997  -1.864   7.080  0.00  0.00    +0.033 C 
BRANCH   7   9
ATOM      9  C   UNL     1      -9.295  -4.144   6.153  0.00  0.00    -0.027 A 
ATOM     10  C   UNL     1      -9.868  -4.045   4.899  0.00  0.00    +0.007 A 
ATOM     11  C   UNL     1     -10.799  -4.973   4.482  0.00  0.00    +0.024 A 
ATOM     12  C   UNL     1     -11.169  -6.020   5.324  0.00  0.00    +0.037 A 
ATOM     13  C   UNL     1     -10.586  -6.109   6.582  0.00  0.00    -0.017 A 
ATOM     14  C   UNL     1      -9.653  -5.184   6.993  0.00  0.00    +0.011 A 
ATOM     15  C   UNL     1     -11.184  -7.330   7.242  0.00  0.00    +0.133 C 
ATOM     16  C   UNL     1     -12.142  -7.877   6.206  0.00  0.00    +0.222 C 
ATOM     17  O   UNL     1     -12.841  -8.862   6.319  0.00  0.00    -0.275 OA
ATOM     18  N   UNL     1     -12.072  -7.067   5.136  0.00  0.00    -0.285 N 
ATOM     19  H   UNL     1     -12.591  -7.195   4.326  0.00  0.00    +0.155 HD
ENDBRANCH   7   9
ENDBRANCH   4   7
BRANCH   1  20
ATOM     20  C   UNL     1      -3.988  -1.518   4.946  0.00  0.00    +0.141 C 
BRANCH  20  24
ATOM     21  C   UNL     1      -2.017  -0.760   1.228  0.00  0.00    +0.065 A 
ATOM     22  C   UNL     1      -2.758   0.242   1.841  0.00  0.00    +0.026 A 
ATOM     23  C   UNL     1      -3.394  -0.007   3.042  0.00  0.00    +0.007 A 
ATOM     24  C   UNL     1      -3.293  -1.251   3.635  0.00  0.00    -0.027 A 
ATOM     25  C   UNL     1      -2.556  -2.252   3.030  0.00  0.00    +0.045 A 
ATOM     26  C   UNL     1      -1.921  -2.013   1.825  0.00  0.00    +0.145 A 
ATOM     27  F   UNL     1      -1.206  -2.992   1.230  0.00  0.00    -0.204 F 
BRANCH  21  28
ATOM     28  N   UNL     1      -1.372  -0.511   0.012  0.00  0.00    -0.328 N 
BRANCH  28  30
ATOM     29  C   UNL     1      -0.019   1.526   0.010  0.00  0.00    +0.024 C 
ATOM     30  C   UNL     1       0.002  -0.004   0.002  0.00  0.00    +0.102 C 
ENDBRANCH  28  30
BRANCH  28  31
ATOM     31  C   UNL     1      -2.072  -0.758  -1.251  0.00  0.00    +0.102 C 
ATOM     32  C   UNL     1      -1.816  -2.197  -1.703  0.00  0.00    +0.024 C 
ENDBRANCH  28  31
ENDBRANCH  21  28
ENDBRANCH  20  24
ENDBRANCH   1  20
TORSDOF 7
