REMARK  Name = ZINC34750100
REMARK  8 active torsions:
REMARK  status: ('A' for Active; 'I' for Inactive)
REMARK    1  A    between atoms: C_1  and  C_2
REMARK    2  A    between atoms: C_2  and  C_4
REMARK    3  A    between atoms: C_4  and  N_5
REMARK    4  A    between atoms: C_18  and  S_20
REMARK    5  A    between atoms: S_20  and  C_21
REMARK    6  A    between atoms: C_21  and  C_22
REMARK    7  A    between atoms: C_31  and  C_33
REMARK    8  A    between atoms: C_31  and  C_34
REMARK                            x       y       z     vdW  Elec       q    Type
REMARK                         _______ _______ _______ _____ _____    ______ ____
ROOT
ATOM      1  N   UNL     1      -1.045  -0.371   2.404  0.00  0.00    +0.384 N 
ATOM      2  C   UNL     1      -1.348  -0.225   3.833  0.00  0.00    -0.059 C 
ATOM      3  C   UNL     1      -2.686  -0.904   4.143  0.00  0.00    +0.088 C 
ATOM      4  N   UNL     1      -2.621  -2.297   3.674  0.00  0.00    -0.318 N 
ATOM      5  C   UNL     1      -2.167  -2.546   2.297  0.00  0.00    +0.088 C 
ATOM      6  C   UNL     1      -0.854  -1.789   2.075  0.00  0.00    -0.059 C 
ATOM      7  C   UNL     1      -2.977  -3.344   4.505  0.00  0.00    +0.134 A 
ATOM      8  C   UNL     1      -4.341  -3.733   4.629  0.00  0.00    +0.051 A 
ATOM      9  C   UNL     1      -5.519  -3.166   3.975  0.00  0.00    -0.020 A 
ATOM     10  C   UNL     1      -6.713  -3.724   4.268  0.00  0.00    +0.021 A 
ATOM     11  S   UNL     1      -6.347  -5.022   5.414  0.00  0.00    -0.071 S 
ATOM     12  C   UNL     1      -4.587  -4.812   5.502  0.00  0.00    +0.115 A 
ATOM     13  N   UNL     1      -3.609  -5.410   6.155  0.00  0.00    -0.215 NA
ATOM     14  C   UNL     1      -2.356  -5.004   6.001  0.00  0.00    +0.191 A 
ATOM     15  N   UNL     1      -2.053  -3.997   5.189  0.00  0.00    -0.206 NA
ATOM     16  C   UNL     1      -8.043  -3.308   3.721  0.00  0.00    +0.203 C 
ATOM     17  O   UNL     1      -7.881  -2.028   3.091  0.00  0.00    -0.368 OA
ATOM     18  C   UNL     1      -6.762  -1.968   2.202  0.00  0.00    +0.068 C 
ATOM     19  C   UNL     1      -5.454  -1.995   2.998  0.00  0.00    +0.071 C 
ATOM     20  C   UNL     1      -6.804  -3.168   1.253  0.00  0.00    +0.041 C 
ATOM     21  C   UNL     1      -6.832  -0.677   1.384  0.00  0.00    +0.041 C 
ATOM     22  H   UNL     1      -1.811  -0.001   1.861  0.00  0.00    -0.081 HD
ENDROOT
BRANCH   1  23
ATOM     23  C   UNL     1       0.182   0.373   2.087  0.00  0.00    -0.048 C 
BRANCH  23  25
ATOM     24  C   UNL     1      -0.670   2.682   1.216  0.00  0.00    +0.036 C 
ATOM     25  C   UNL     1      -0.052   1.845   2.307  0.00  0.00    -0.096 C 
ATOM     26  C   UNL     1       0.280   2.398   3.448  0.00  0.00    +0.005 C 
ENDBRANCH  23  25
ENDBRANCH   1  23
BRANCH  14  27
ATOM     27  S   UNL     1      -1.068  -5.819   6.885  0.00  0.00    -0.081 S 
BRANCH  27  28
ATOM     28  C   UNL     1      -1.931  -7.100   7.836  0.00  0.00    +0.112 C 
BRANCH  28  29
ATOM     29  C   UNL     1      -0.931  -7.882   8.648  0.00  0.00    -0.037 A 
ATOM     30  C   UNL     1      -0.331  -9.005   8.110  0.00  0.00    +0.006 A 
ATOM     31  C   UNL     1       0.586  -9.723   8.854  0.00  0.00    +0.020 A 
ATOM     32  C   UNL     1       0.904  -9.318  10.138  0.00  0.00    +0.041 A 
ATOM     33  C   UNL     1       0.303  -8.194  10.676  0.00  0.00    +0.020 A 
ATOM     34  C   UNL     1      -0.610  -7.473   9.929  0.00  0.00    +0.006 A 
ATOM     35 CL   UNL     1       2.055 -10.219  11.073  0.00  0.00    -0.084 Cl
ENDBRANCH  28  29
ENDBRANCH  27  28
ENDBRANCH  14  27
TORSDOF 5
