REMARK  Name = ZINC00802302
REMARK  6 active torsions:
REMARK  status: ('A' for Active; 'I' for Inactive)
REMARK    1  A    between atoms: C_1  and  C_2
REMARK    2  A    between atoms: C_2  and  O_3
REMARK    3  A    between atoms: O_3  and  C_4
REMARK    4  A    between atoms: C_6  and  C_18
REMARK    5  A    between atoms: C_13  and  C_17
REMARK    6  A    between atoms: C_15  and  C_16
REMARK                            x       y       z     vdW  Elec       q    Type
REMARK                         _______ _______ _______ _____ _____    ______ ____
ROOT
ATOM      1  C   UNL     1      -1.192   2.556   5.461  0.00  0.00    +0.128 C 
ATOM      2  C   UNL     1      -0.164   1.798   5.882  0.00  0.00    +0.028 C 
ATOM      3  C   UNL     1       0.349   0.691   5.011  0.00  0.00    +0.053 C 
ATOM      4  C   UNL     1       1.292   1.123   3.881  0.00  0.00    +0.092 C 
ATOM      5  C   UNL     1       0.727   2.338   3.181  0.00  0.00    +0.168 C 
ATOM      6  O   UNL     1       1.442   3.251   2.823  0.00  0.00    -0.292 OA
ATOM      7  C   UNL     1      -0.716   2.366   2.953  0.00  0.00    +0.069 A 
ATOM      8  C   UNL     1      -1.679   2.421   4.077  0.00  0.00    +0.068 A 
ATOM      9  C   UNL     1      -2.896   2.364   3.529  0.00  0.00    +0.113 A 
ATOM     10  O   UNL     1      -2.759   2.322   2.188  0.00  0.00    -0.464 OA
ATOM     11  C   UNL     1      -1.465   2.325   1.830  0.00  0.00    +0.113 A 
ATOM     12  C   UNL     1      -0.939   2.293   0.418  0.00  0.00    +0.087 C 
ATOM     13  C   UNL     1      -4.202   2.354   4.281  0.00  0.00    +0.087 C 
ENDROOT
BRANCH   3  14
ATOM     14  C   UNL     1      -0.836  -0.009   4.396  0.00  0.00    -0.036 A 
ATOM     15  C   UNL     1      -0.781  -0.433   3.081  0.00  0.00    +0.008 A 
ATOM     16  C   UNL     1      -1.865  -1.075   2.513  0.00  0.00    +0.050 A 
ATOM     17  C   UNL     1      -3.010  -1.295   3.260  0.00  0.00    +0.166 A 
ATOM     18  C   UNL     1      -3.066  -0.868   4.584  0.00  0.00    +0.167 A 
ATOM     19  C   UNL     1      -1.974  -0.230   5.149  0.00  0.00    +0.053 A 
ATOM     20  O   UNL     1      -4.287  -1.199   5.098  0.00  0.00    -0.453 OA
ATOM     21  C   UNL     1      -5.125  -1.465   3.958  0.00  0.00    +0.466 C 
ATOM     22  O   UNL     1      -4.196  -1.893   2.944  0.00  0.00    -0.453 OA
ENDBRANCH   3  14
BRANCH   1  23
ATOM     23  O   UNL     1      -1.779   3.442   6.307  0.00  0.00    -0.492 OA
BRANCH  23  25
ATOM     24  C   UNL     1      -2.035   4.561   8.434  0.00  0.00    +0.048 C 
ATOM     25  C   UNL     1      -1.253   3.518   7.634  0.00  0.00    +0.225 C 
ENDBRANCH  23  25
ENDBRANCH   1  23
TORSDOF 3
