REMARK  Name = ZINC12131980
REMARK  13 active torsions:
REMARK  status: ('A' for Active; 'I' for Inactive)
REMARK    1  A    between atoms: C_1  and  C_2
REMARK    2  A    between atoms: C_2  and  C_3
REMARK    3  A    between atoms: C_2  and  C_4
REMARK    4  A    between atoms: C_4  and  C_5
REMARK    5  A    between atoms: C_8  and  C_11
REMARK    6  A    between atoms: C_11  and  C_13
REMARK    7  A    between atoms: C_11  and  N_14
REMARK    8  A    between atoms: C_15  and  C_17
REMARK    9  A    between atoms: C_17  and  S_18
REMARK   10  A    between atoms: S_18  and  C_19
REMARK   11  A    between atoms: C_22  and  C_30
REMARK   12  A    between atoms: N_23  and  C_24
REMARK   13  A    between atoms: C_30  and  N_69
REMARK                            x       y       z     vdW  Elec       q    Type
REMARK                         _______ _______ _______ _____ _____    ______ ____
ROOT
ATOM      1  S   UNL     1      -1.611   4.162   9.623  0.00  0.00    -0.076 S 
ENDROOT
BRANCH   1   2
ATOM      2  C   UNL     1      -0.283   4.950  10.472  0.00  0.00    +0.197 A 
ATOM      3  N   UNL     1       0.814   5.428   9.933  0.00  0.00    -0.122 NA
ATOM      4  N   UNL     1       1.563   5.938  10.845  0.00  0.00    -0.135 NA
ATOM      5  C   UNL     1       1.000   5.808  12.013  0.00  0.00    +0.122 A 
ATOM      6  N   UNL     1      -0.198   5.174  11.819  0.00  0.00    -0.276 N 
BRANCH   6   7
ATOM      7  C   UNL     1      -1.140   4.825  12.798  0.00  0.00    +0.050 A 
ATOM      8  C   UNL     1      -1.795   5.816  13.517  0.00  0.00    +0.026 A 
ATOM      9  C   UNL     1      -2.726   5.470  14.477  0.00  0.00    +0.002 A 
ATOM     10  C   UNL     1      -2.999   4.138  14.729  0.00  0.00    +0.000 A 
ATOM     11  C   UNL     1      -2.345   3.149  14.017  0.00  0.00    +0.002 A 
ATOM     12  C   UNL     1      -1.416   3.489  13.053  0.00  0.00    +0.026 A 
ENDBRANCH   6   7
BRANCH   5  13
ATOM     13  C   UNL     1       1.563   6.270  13.332  0.00  0.00    -0.001 C 
BRANCH  13  18
ATOM     14  C   UNL     1       3.385   4.698  12.961  0.00  0.00    -0.078 C 
ATOM     15  C   UNL     1       4.429   4.004  13.872  0.00  0.00    -0.020 C 
ATOM     16  C   UNL     1       4.469   4.924  15.114  0.00  0.00    -0.020 C 
ATOM     17  C   UNL     1       3.130   5.685  15.094  0.00  0.00    -0.078 C 
ATOM     18  N   UNL     1       2.393   5.183  13.933  0.00  0.00    +0.384 N 
ATOM     19  H   UNL     1       1.780   4.411  14.219  0.00  0.00    -0.081 HD
ENDBRANCH  13  18
ENDBRANCH   5  13
ENDBRANCH   1   2
BRANCH   1  20
ATOM     20  C   UNL     1      -0.993   4.248   7.924  0.00  0.00    +0.173 C 
BRANCH  20  22
ATOM     21  N   UNL     1      -1.744   3.565   5.669  0.00  0.00    -0.308 N 
ATOM     22  C   UNL     1      -1.994   3.615   6.992  0.00  0.00    +0.224 C 
ATOM     23  O   UNL     1      -3.023   3.151   7.433  0.00  0.00    -0.275 OA
ATOM     24  H   UNL     1      -0.920   3.936   5.316  0.00  0.00    +0.149 HD
BRANCH  21  25
ATOM     25  C   UNL     1      -2.717   2.949   4.763  0.00  0.00    +0.100 C 
ATOM     26  C   UNL     1      -3.777   3.982   4.375  0.00  0.00    +0.033 C 
BRANCH  25  30
ATOM     27  C   UNL     1      -0.718   1.572   1.248  0.00  0.00    -0.047 A 
ATOM     28  C   UNL     1      -0.360   2.779   1.819  0.00  0.00    +0.004 A 
ATOM     29  C   UNL     1      -1.010   3.227   2.953  0.00  0.00    +0.006 A 
ATOM     30  C   UNL     1      -2.012   2.463   3.523  0.00  0.00    -0.027 A 
ATOM     31  C   UNL     1      -2.366   1.254   2.955  0.00  0.00    +0.006 A 
ATOM     32  C   UNL     1      -1.719   0.808   1.818  0.00  0.00    +0.004 A 
BRANCH  27  33
ATOM     33  C   UNL     1      -0.013   1.086   0.008  0.00  0.00    +0.038 C 
BRANCH  33  35
ATOM     34  C   UNL     1      -0.666   3.119  -1.289  0.00  0.00    +0.007 C 
ATOM     35  C   UNL     1      -0.753   1.593  -1.232  0.00  0.00    -0.013 C 
ATOM     36  C   UNL     1      -0.111   0.998  -2.487  0.00  0.00    +0.007 C 
ENDBRANCH  33  35
ENDBRANCH  27  33
ENDBRANCH  25  30
ENDBRANCH  21  25
ENDBRANCH  20  22
ENDBRANCH   1  20
TORSDOF 10
