REMARK  Name = ZINC43769601
REMARK  7 active torsions:
REMARK  status: ('A' for Active; 'I' for Inactive)
REMARK    1  A    between atoms: C_1  and  C_2
REMARK    2  A    between atoms: C_6  and  C_8
REMARK    3  A    between atoms: C_19  and  S_24
REMARK    4  A    between atoms: S_24  and  N_27
REMARK    5  A    between atoms: N_27  and  C_28
REMARK    6  A    between atoms: C_30  and  C_35
REMARK    7  A    between atoms: C_33  and  C_34
REMARK                            x       y       z     vdW  Elec       q    Type
REMARK                         _______ _______ _______ _____ _____    ______ ____
ROOT
ATOM      1  C   UNL     1       0.556  -2.873   2.705  0.00  0.00    +0.105 C 
ATOM      2  C   UNL     1      -0.868  -3.324   2.977  0.00  0.00    +0.029 C 
ATOM      3  C   UNL     1      -1.896  -2.235   3.310  0.00  0.00    +0.033 C 
ATOM      4  C   UNL     1      -2.875  -2.999   4.203  0.00  0.00    -0.030 C 
ATOM      5  C   UNL     1      -2.256  -4.016   4.790  0.00  0.00    -0.023 C 
ATOM      6  C   UNL     1      -0.822  -4.030   4.365  0.00  0.00    +0.049 C 
ATOM      7  C   UNL     1      -0.039  -5.275   4.215  0.00  0.00    -0.018 A 
ATOM      8  C   UNL     1      -0.337  -6.426   4.912  0.00  0.00    +0.034 A 
ATOM      9  C   UNL     1       0.434  -7.561   4.747  0.00  0.00    +0.109 A 
ATOM     10  C   UNL     1       1.512  -7.545   3.880  0.00  0.00    +0.030 A 
ATOM     11  C   UNL     1       1.816  -6.399   3.174  0.00  0.00    +0.025 A 
ATOM     12  C   UNL     1       1.043  -5.255   3.327  0.00  0.00    +0.031 A 
ATOM     13  N   UNL     1       1.352  -4.113   2.574  0.00  0.00    -0.336 N 
ATOM     14  H   UNL     1       2.098  -4.137   1.955  0.00  0.00    +0.147 HD
ENDROOT
BRANCH   1  20
ATOM     15  C   UNL     1       0.818   1.533   0.347  0.00  0.00    +0.044 C 
ATOM     16  C   UNL     1       0.740   0.029   0.297  0.00  0.00    -0.050 A 
ATOM     17  C   UNL     1       0.724  -0.622  -0.922  0.00  0.00    +0.003 A 
ATOM     18  C   UNL     1       0.653  -2.002  -0.967  0.00  0.00    +0.001 A 
ATOM     19  C   UNL     1       0.598  -2.730   0.206  0.00  0.00    +0.005 A 
ATOM     20  C   UNL     1       0.616  -2.079   1.425  0.00  0.00    -0.027 A 
ATOM     21  C   UNL     1       0.691  -0.699   1.471  0.00  0.00    +0.008 A 
ENDBRANCH   1  20
BRANCH   9  22
ATOM     22  S   UNL     1       0.044  -9.029   5.640  0.00  0.00    +0.072 S 
ATOM     23  O   UNL     1       1.244  -9.786   5.721  0.00  0.00    -0.150 OA
ATOM     24  O   UNL     1      -0.679  -8.623   6.793  0.00  0.00    -0.150 OA
BRANCH  22  25
ATOM     25  N   UNL     1      -1.006  -9.906   4.707  0.00  0.00    -0.216 N 
ATOM     26  H   UNL     1      -1.893 -10.114   5.040  0.00  0.00    +0.174 HD
BRANCH  25  27
ATOM     27  C   UNL     1      -0.615 -10.345   3.440  0.00  0.00    +0.051 A 
ATOM     28  C   UNL     1       0.699 -10.736   3.213  0.00  0.00    +0.028 A 
ATOM     29  C   UNL     1       1.082 -11.171   1.960  0.00  0.00    -0.049 A 
ATOM     30  C   UNL     1       0.159 -11.216   0.930  0.00  0.00    +0.004 A 
ATOM     31  C   UNL     1      -1.149 -10.828   1.152  0.00  0.00    +0.005 A 
ATOM     32  C   UNL     1      -1.540 -10.398   2.405  0.00  0.00    -0.028 A 
ATOM     33  C   UNL     1      -2.968  -9.980   2.648  0.00  0.00    +0.046 C 
ATOM     34  C   UNL     1       2.506 -11.595   1.713  0.00  0.00    +0.044 C 
ENDBRANCH  25  27
ENDBRANCH  22  25
ENDBRANCH   9  22
TORSDOF 4
