REMARK  Name = ZINC08790760
REMARK  4 active torsions:
REMARK  status: ('A' for Active; 'I' for Inactive)
REMARK    1  A    between atoms: C_1  and  C_2
REMARK    2  A    between atoms: C_16  and  C_18
REMARK    3  A    between atoms: C_18  and  C_19
REMARK    4  A    between atoms: N_31  and  C_34
REMARK                            x       y       z     vdW  Elec       q    Type
REMARK                         _______ _______ _______ _____ _____    ______ ____
ROOT
ATOM      1  C   UNL     1       3.264   1.994   2.794  0.00  0.00    +0.046 C 
ATOM      2  C   UNL     1       2.046   1.250   2.309  0.00  0.00    -0.028 A 
ATOM      3  C   UNL     1       0.804   1.847   2.377  0.00  0.00    +0.025 A 
ATOM      4  C   UNL     1      -0.320   1.173   1.935  0.00  0.00    +0.042 A 
ATOM      5  C   UNL     1      -0.198  -0.107   1.421  0.00  0.00    +0.024 A 
ATOM      6  C   UNL     1       1.040  -0.705   1.351  0.00  0.00    -0.026 A 
ATOM      7  C   UNL     1       2.178  -0.037   1.794  0.00  0.00    +0.039 A 
ATOM      8  N   UNL     1       3.307  -0.841   1.624  0.00  0.00    -0.286 N 
ATOM      9  C   UNL     1       3.003  -2.036   1.081  0.00  0.00    +0.211 C 
ATOM     10  O   UNL     1       3.778  -2.931   0.819  0.00  0.00    -0.277 OA
ATOM     11  C   UNL     1       1.515  -2.044   0.861  0.00  0.00    +0.050 C 
ATOM     12  C   UNL     1       1.167  -2.253  -0.619  0.00  0.00    +0.088 C 
ATOM     13  C   UNL     1       0.831  -3.766  -0.731  0.00  0.00    +0.074 C 
ATOM     14  C   UNL     1       1.030  -4.324   0.694  0.00  0.00    -0.053 C 
ATOM     15  C   UNL     1      -0.643  -3.772  -1.068  0.00  0.00    +0.228 C 
ATOM     16  O   UNL     1      -1.320  -4.764  -1.234  0.00  0.00    -0.275 OA
ATOM     17  N   UNL     1      -1.084  -2.512  -1.156  0.00  0.00    -0.210 N 
ATOM     18  C   UNL     1      -0.152  -1.580  -0.927  0.00  0.00    +0.229 C 
ATOM     19  O   UNL     1      -0.336  -0.382  -0.963  0.00  0.00    -0.275 OA
ATOM     20 CL   UNL     1      -1.879   1.933   2.017  0.00  0.00    -0.084 Cl
ATOM     21  H   UNL     1       4.206  -0.571   1.868  0.00  0.00    +0.155 HD
ATOM     22  N   UNL     1       0.883  -3.150   1.558  0.00  0.00    +0.394 N 
ATOM     23  H   UNL     1      -0.111  -2.948   1.716  0.00  0.00    -0.083 HD
ATOM     24  H   UNL     1       1.347  -3.313   2.460  0.00  0.00    -0.083 HD
ENDROOT
BRANCH  17  25
ATOM     25  C   UNL     1      -2.414  -2.195  -1.462  0.00  0.00    +0.044 A 
ATOM     26  C   UNL     1      -3.428  -2.506  -0.566  0.00  0.00    +0.024 A 
ATOM     27  C   UNL     1      -4.737  -2.187  -0.868  0.00  0.00    +0.002 A 
ATOM     28  C   UNL     1      -5.041  -1.568  -2.067  0.00  0.00    +0.000 A 
ATOM     29  C   UNL     1      -4.034  -1.260  -2.964  0.00  0.00    +0.002 A 
ATOM     30  C   UNL     1      -2.722  -1.572  -2.665  0.00  0.00    +0.024 A 
ENDBRANCH  17  25
BRANCH  14  31
ATOM     31  C   UNL     1       2.433  -4.915   0.843  0.00  0.00    +0.022 C 
BRANCH  31  32
ATOM     32  C   UNL     1       2.398  -6.383   0.502  0.00  0.00    -0.024 A 
ATOM     33  C   UNL     1       2.264  -7.401   1.367  0.00  0.00    +0.087 A 
ATOM     34  N   UNL     1       2.275  -8.591   0.692  0.00  0.00    -0.360 N 
ATOM     35  H   UNL     1       2.192  -9.466   1.103  0.00  0.00    +0.165 HD
ATOM     36  C   UNL     1       2.421  -8.362  -0.658  0.00  0.00    +0.047 A 
ATOM     37  C   UNL     1       2.498  -6.969  -0.837  0.00  0.00    +0.003 A 
ATOM     38  C   UNL     1       2.644  -6.439  -2.120  0.00  0.00    +0.010 A 
ATOM     39  C   UNL     1       2.708  -7.277  -3.197  0.00  0.00    +0.001 A 
ATOM     40  C   UNL     1       2.628  -8.652  -3.027  0.00  0.00    +0.002 A 
ATOM     41  C   UNL     1       2.491  -9.197  -1.768  0.00  0.00    +0.026 A 
ENDBRANCH  31  32
ENDBRANCH  14  31
TORSDOF 3
