REMARK  Name = ZINC30735430
REMARK  11 active torsions:
REMARK  status: ('A' for Active; 'I' for Inactive)
REMARK    1  A    between atoms: C_1  and  C_2
REMARK    2  A    between atoms: C_2  and  N_3
REMARK    3  A    between atoms: C_4  and  C_23
REMARK    4  A    between atoms: C_7  and  S_8
REMARK    5  A    between atoms: S_8  and  C_9
REMARK    6  A    between atoms: C_9  and  C_10
REMARK    7  A    between atoms: N_12  and  N_13
REMARK    8  A    between atoms: C_14  and  C_15
REMARK    9  A    between atoms: C_18  and  O_22
REMARK   10  A    between atoms: C_20  and  O_21
REMARK   11  A    between atoms: C_26  and  C_29
REMARK                            x       y       z     vdW  Elec       q    Type
REMARK                         _______ _______ _______ _____ _____    ______ ____
ROOT
ATOM      1  C   UNL     1       0.617  -5.547  -2.550  0.00  0.00    +0.174 C 
ENDROOT
BRANCH   1   2
ATOM      2  C   UNL     1      -0.185  -6.577  -1.799  0.00  0.00    +0.242 C 
ATOM      3  O   UNL     1      -1.386  -6.447  -1.686  0.00  0.00    -0.273 OA
ATOM      4  N   UNL     1       0.431  -7.644  -1.252  0.00  0.00    -0.206 N 
ATOM      5  H   UNL     1       1.520  -7.762  -1.354  0.00  0.00    +0.177 HD
BRANCH   4   6
ATOM      6  N   UNL     1      -0.315  -8.602  -0.553  0.00  0.00    -0.188 NA
ATOM      7  C   UNL     1       0.290  -9.553   0.091  0.00  0.00    +0.142 C 
BRANCH   7   8
ATOM      8  C   UNL     1       1.681  -9.369   0.541  0.00  0.00    +0.036 A 
ATOM      9  C   UNL     1       2.223  -8.084   0.635  0.00  0.00    +0.016 A 
ATOM     10  C   UNL     1       3.524  -7.916   1.057  0.00  0.00    +0.046 A 
ATOM     11  C   UNL     1       4.300  -9.021   1.389  0.00  0.00    +0.120 A 
ATOM     12  C   UNL     1       3.771 -10.300   1.298  0.00  0.00    +0.091 A 
ATOM     13  C   UNL     1       2.464 -10.481   0.881  0.00  0.00    +0.129 A 
BRANCH  13  14
ATOM     14  O   UNL     1       1.943 -11.732   0.798  0.00  0.00    -0.506 OA
ATOM     15  H   UNL     1       2.559 -12.604   1.065  0.00  0.00    +0.292 HD
ENDBRANCH  13  14
BRANCH  11  16
ATOM     16  O   UNL     1       5.582  -8.847   1.804  0.00  0.00    -0.507 OA
ATOM     17  H   UNL     1       6.198  -9.719   2.067  0.00  0.00    +0.292 HD
ENDBRANCH  11  16
ENDBRANCH   7   8
ENDBRANCH   4   6
ENDBRANCH   1   2
BRANCH   1  18
ATOM     18  S   UNL     1      -0.487  -4.249  -3.160  0.00  0.00    -0.077 S 
BRANCH  18  23
ATOM     19  N   UNL     1       0.408  -2.044  -4.630  0.00  0.00    -0.302 N 
ATOM     20  C   UNL     1       1.619  -1.593  -5.103  0.00  0.00    +0.165 A 
ATOM     21  N   UNL     1       2.528  -2.460  -4.723  0.00  0.00    -0.128 NA
ATOM     22  N   UNL     1       1.976  -3.412  -4.059  0.00  0.00    -0.122 NA
ATOM     23  C   UNL     1       0.680  -3.211  -3.974  0.00  0.00    +0.192 A 
BRANCH  20  24
ATOM     24  C   UNL     1       1.853  -0.360  -5.885  0.00  0.00    +0.019 A 
ATOM     25  C   UNL     1       0.797   0.248  -6.566  0.00  0.00    +0.012 A 
ATOM     26  C   UNL     1       1.021   1.401  -7.290  0.00  0.00    +0.004 A 
ATOM     27  C   UNL     1       2.290   1.948  -7.350  0.00  0.00    -0.050 A 
ATOM     28  C   UNL     1       3.342   1.347  -6.683  0.00  0.00    +0.004 A 
ATOM     29  C   UNL     1       3.131   0.196  -5.951  0.00  0.00    +0.012 A 
ATOM     30  C   UNL     1       2.528   3.205  -8.147  0.00  0.00    +0.044 C 
ENDBRANCH  20  24
BRANCH  19  32
ATOM     31  C   UNL     1      -1.608  -2.011  -6.014  0.00  0.00    +0.027 C 
ATOM     32  C   UNL     1      -0.901  -1.408  -4.799  0.00  0.00    +0.122 C 
ENDBRANCH  19  32
ENDBRANCH  18  23
ENDBRANCH   1  18
TORSDOF 9
