REMARK  Name = ZINC06322047
REMARK  10 active torsions:
REMARK  status: ('A' for Active; 'I' for Inactive)
REMARK    1  A    between atoms: C_1  and  C_2
REMARK    2  A    between atoms: C_5  and  C_39
REMARK    3  A    between atoms: C_9  and  C_14
REMARK    4  A    between atoms: C_14  and  C_16
REMARK    5  A    between atoms: C_14  and  N_70
REMARK    6  A    between atoms: N_20  and  C_21
REMARK    7  A    between atoms: C_26  and  C_27
REMARK    8  A    between atoms: C_26  and  N_70
REMARK    9  A    between atoms: C_33  and  C_34
REMARK   10  A    between atoms: C_33  and  N_70
REMARK                            x       y       z     vdW  Elec       q    Type
REMARK                         _______ _______ _______ _____ _____    ______ ____
ROOT
ATOM      1  C   UNL     1       5.566  -1.834  -2.370  0.00  0.00    +0.040 C 
ENDROOT
BRANCH   1  10
ATOM      2  C   UNL     1       5.228  -4.974  -6.510  0.00  0.00    +0.044 C 
ATOM      3  C   UNL     1       5.468  -3.579  -7.025  0.00  0.00    -0.041 A 
ATOM      4  C   UNL     1       5.555  -3.349  -8.369  0.00  0.00    +0.004 A 
ATOM      5  C   UNL     1       5.775  -2.067  -8.854  0.00  0.00    +0.005 A 
ATOM      6  C   UNL     1       5.911  -1.002  -7.989  0.00  0.00    -0.026 A 
ATOM      7  C   UNL     1       5.826  -1.211  -6.617  0.00  0.00    +0.052 A 
ATOM      8  C   UNL     1       5.602  -2.513  -6.130  0.00  0.00    +0.002 A 
ATOM      9  C   UNL     1       5.514  -2.723  -4.683  0.00  0.00    +0.018 A 
ATOM     10  C   UNL     1       5.652  -1.652  -3.863  0.00  0.00    +0.011 A 
ATOM     11  C   UNL     1       5.869  -0.367  -4.404  0.00  0.00    +0.251 A 
ATOM     12  O   UNL     1       5.985   0.583  -3.649  0.00  0.00    -0.268 OA
ATOM     13  N   UNL     1       5.958  -0.164  -5.730  0.00  0.00    -0.322 N 
ATOM     14  H   UNL     1       6.112   0.732  -6.067  0.00  0.00    +0.169 HD
ATOM     15  C   UNL     1       6.149   0.385  -8.529  0.00  0.00    +0.046 C 
ENDBRANCH   1  10
BRANCH   1  16
ATOM     16  C   UNL     1       6.889  -1.476  -1.744  0.00  0.00    +0.143 A 
ATOM     17  N   UNL     1       7.313  -0.273  -1.443  0.00  0.00    -0.115 NA
ATOM     18  N   UNL     1       8.488  -0.382  -0.926  0.00  0.00    -0.023 NA
ATOM     19  N   UNL     1       8.825  -1.624  -0.888  0.00  0.00    -0.044 NA
ATOM     20  N   UNL     1       7.863  -2.331  -1.379  0.00  0.00    -0.227 N 
BRANCH  20  21
ATOM     21  C   UNL     1       7.838  -3.789  -1.516  0.00  0.00    +0.111 C 
ATOM     22  C   UNL     1       8.028  -4.454  -0.137  0.00  0.00    +0.027 C 
ATOM     23  C   UNL     1       8.897  -5.702  -0.434  0.00  0.00    +0.002 C 
ATOM     24  C   UNL     1       9.874  -5.188  -1.521  0.00  0.00    +0.002 C 
ATOM     25  C   UNL     1       9.010  -4.257  -2.396  0.00  0.00    +0.027 C 
ENDBRANCH  20  21
ENDBRANCH   1  16
BRANCH   1  26
ATOM     26  N   UNL     1       4.526  -0.934  -1.829  0.00  0.00    +0.397 N 
ATOM     27  H   UNL     1       4.886   0.028  -1.829  0.00  0.00    -0.079 HD
BRANCH  26  28
ATOM     28  C   UNL     1       3.316  -0.994  -2.676  0.00  0.00    -0.041 C 
BRANCH  28  29
ATOM     29  C   UNL     1       2.362   0.087  -2.238  0.00  0.00    -0.064 A 
ATOM     30  C   UNL     1       2.441   1.348  -2.798  0.00  0.00    +0.002 A 
ATOM     31  C   UNL     1       1.565   2.339  -2.396  0.00  0.00    +0.000 A 
ATOM     32  C   UNL     1       0.611   2.069  -1.433  0.00  0.00    +0.000 A 
ATOM     33  C   UNL     1       0.532   0.808  -0.872  0.00  0.00    +0.000 A 
ATOM     34  C   UNL     1       1.407  -0.183  -1.275  0.00  0.00    +0.002 A 
ENDBRANCH  28  29
ENDBRANCH  26  28
BRANCH  26  35
ATOM     35  C   UNL     1       4.192  -1.322  -0.443  0.00  0.00    -0.001 C 
BRANCH  35  36
ATOM     36  C   UNL     1       5.299  -0.860   0.469  0.00  0.00    +0.089 A 
ATOM     37  C   UNL     1       5.441   0.382   0.967  0.00  0.00    +0.042 A 
ATOM     38  C   UNL     1       6.607   0.371   1.766  0.00  0.00    +0.041 A 
ATOM     39  C   UNL     1       7.108  -0.875   1.709  0.00  0.00    +0.195 A 
ATOM     40  O   UNL     1       6.309  -1.618   0.926  0.00  0.00    -0.470 OA
ENDBRANCH  35  36
ENDBRANCH  26  35
ENDBRANCH   1  26
TORSDOF 8
