REMARK  Name = ZINC66975758
REMARK  7 active torsions:
REMARK  status: ('A' for Active; 'I' for Inactive)
REMARK    1  A    between atoms: N_3  and  C_6
REMARK    2  A    between atoms: C_6  and  C_7
REMARK    3  A    between atoms: C_7  and  C_8
REMARK    4  A    between atoms: C_8  and  N_9
REMARK    5  A    between atoms: C_15  and  N_18
REMARK    6  A    between atoms: C_19  and  C_21
REMARK    7  A    between atoms: C_21  and  C_22
REMARK                            x       y       z     vdW  Elec       q    Type
REMARK                         _______ _______ _______ _____ _____    ______ ____
ROOT
ATOM      1  N   UNL     1       6.075   0.590   2.771  0.00  0.00    -0.299 N 
ATOM      2  C   UNL     1       7.403   0.570   3.005  0.00  0.00    +0.302 C 
ATOM      3  O   UNL     1       8.182   0.471   2.076  0.00  0.00    -0.253 OA
ATOM      4  N   UNL     1       7.866   0.658   4.267  0.00  0.00    -0.286 N 
ATOM      5  C   UNL     1       6.939   0.660   5.407  0.00  0.00    +0.111 C 
ATOM      6  C   UNL     1       7.226   1.890   6.274  0.00  0.00    +0.041 C 
ATOM      7  C   UNL     1       8.705   1.898   6.667  0.00  0.00    +0.076 C 
ATOM      8  C   UNL     1       9.569   1.983   5.407  0.00  0.00    +0.041 C 
ATOM      9  C   UNL     1       9.309   0.749   4.530  0.00  0.00    +0.111 C 
ATOM     10  H   UNL     1       5.452   0.594   3.514  0.00  0.00    +0.150 HD
ENDROOT
BRANCH   7  11
ATOM     11  N   UNL     1       8.976   3.055   7.524  0.00  0.00    -0.312 N 
ATOM     12  C   UNL     1      10.011   3.027   8.386  0.00  0.00    +0.214 C 
ATOM     13  O   UNL     1      10.718   2.044   8.454  0.00  0.00    -0.276 OA
ATOM     14  H   UNL     1       8.411   3.841   7.470  0.00  0.00    +0.149 HD
BRANCH  12  15
ATOM     15  C   UNL     1      10.290   4.217   9.268  0.00  0.00    +0.099 C 
BRANCH  15  16
ATOM     16  C   UNL     1      11.510   3.927  10.145  0.00  0.00    -0.002 C 
ATOM     17  C   UNL     1      11.187   2.780  11.105  0.00  0.00    +0.004 C 
ATOM     18  C   UNL     1      12.406   2.490  11.982  0.00  0.00    +0.000 C 
ATOM     19  C   UNL     1      12.765   3.742  12.786  0.00  0.00    +0.000 C 
ATOM     20  C   UNL     1      13.088   4.889  11.826  0.00  0.00    +0.000 C 
ATOM     21  C   UNL     1      11.868   5.179  10.949  0.00  0.00    +0.004 C 
ENDBRANCH  15  16
ENDBRANCH  12  15
ENDBRANCH   7  11
BRANCH   1  22
ATOM     22  C   UNL     1       5.574   0.605   1.395  0.00  0.00    +0.107 C 
BRANCH  22  23
ATOM     23  C   UNL     1       4.044   0.627   1.409  0.00  0.00    +0.040 C 
BRANCH  23  24
ATOM     24  C   UNL     1       3.521   0.643  -0.028  0.00  0.00    +0.124 C 
BRANCH  24  27
ATOM     25  C   UNL     1      -0.015   1.344   0.010  0.00  0.00    +0.101 A 
ATOM     26  C   UNL     1       1.260   1.777   0.000  0.00  0.00    +0.104 A 
ATOM     27  N   UNL     1       2.056   0.664  -0.014  0.00  0.00    -0.338 N 
ATOM     28  C   UNL     1       1.239  -0.411  -0.013  0.00  0.00    +0.173 A 
ATOM     29  N   UNL     1       0.002   0.003   0.001  0.00  0.00    -0.352 N 
ATOM     30  H   UNL     1      -0.782  -0.569   0.005  0.00  0.00    +0.166 HD
ENDBRANCH  24  27
ENDBRANCH  23  24
ENDBRANCH  22  23
ENDBRANCH   1  22
TORSDOF 7
