REMARK  Name = ZINC63140397
REMARK  13 active torsions:
REMARK  status: ('A' for Active; 'I' for Inactive)
REMARK    1  A    between atoms: C_1  and  C_2
REMARK    2  A    between atoms: C_2  and  O_3
REMARK    3  A    between atoms: O_3  and  C_4
REMARK    4  A    between atoms: C_4  and  C_5
REMARK    5  A    between atoms: C_4  and  O_38
REMARK    6  A    between atoms: C_5  and  C_6
REMARK    7  A    between atoms: C_6  and  C_7
REMARK    8  A    between atoms: C_7  and  N_8
REMARK    9  A    between atoms: C_28  and  C_30
REMARK   10  A    between atoms: C_35  and  O_36
REMARK   11  A    between atoms: O_36  and  C_37
REMARK   12  A    between atoms: O_38  and  C_39
REMARK   13  A    between atoms: C_39  and  C_40
REMARK                            x       y       z     vdW  Elec       q    Type
REMARK                         _______ _______ _______ _____ _____    ______ ____
ROOT
ATOM      1  N   UNL     1       4.738  -2.945   2.929  0.00  0.00    -0.291 N 
ATOM      2  C   UNL     1       5.486  -4.057   2.316  0.00  0.00    +0.203 C 
ATOM      3  C   UNL     1       6.485  -3.481   1.334  0.00  0.00    +0.234 C 
ATOM      4  O   UNL     1       6.648  -3.968   0.235  0.00  0.00    -0.274 OA
ATOM      5  N   UNL     1       7.197  -2.381   1.745  0.00  0.00    -0.279 N 
ATOM      6  C   UNL     1       6.956  -1.959   3.109  0.00  0.00    +0.167 C 
ATOM      7  C   UNL     1       5.471  -1.873   3.353  0.00  0.00    +0.237 C 
ATOM      8  O   UNL     1       4.960  -0.915   3.895  0.00  0.00    -0.274 OA
ATOM      9  C   UNL     1       7.692  -0.749   3.623  0.00  0.00    +0.065 C 
ATOM     10  C   UNL     1       8.402  -0.061   2.489  0.00  0.00    -0.034 C 
ATOM     11  C   UNL     1       8.560   1.220   2.186  0.00  0.00    -0.001 A 
ATOM     12  C   UNL     1       8.135   2.450   2.873  0.00  0.00    +0.010 A 
ATOM     13  C   UNL     1       8.463   3.621   2.265  0.00  0.00    +0.001 A 
ATOM     14  C   UNL     1       9.162   3.691   1.056  0.00  0.00    +0.002 A 
ATOM     15  C   UNL     1       9.595   2.611   0.358  0.00  0.00    +0.026 A 
ATOM     16  C   UNL     1       9.313   1.323   0.899  0.00  0.00    +0.043 A 
ATOM     17  N   UNL     1       9.614   0.141   0.453  0.00  0.00    -0.375 N 
ATOM     18  C   UNL     1       9.118  -0.862   1.404  0.00  0.00    +0.131 C 
ATOM     19  C   UNL     1       8.062  -1.748   0.760  0.00  0.00    +0.137 C 
ATOM     20  H   UNL     1      10.087  -0.049  -0.372  0.00  0.00    +0.160 HD
ENDROOT
BRANCH  19  21
ATOM     21  C   UNL     1       8.720  -2.817  -0.074  0.00  0.00    +0.017 A 
ATOM     22  C   UNL     1       8.702  -2.727  -1.452  0.00  0.00    +0.009 A 
ATOM     23  C   UNL     1       9.305  -3.707  -2.218  0.00  0.00    +0.001 A 
ATOM     24  C   UNL     1       9.929  -4.779  -1.607  0.00  0.00    +0.004 A 
ATOM     25  C   UNL     1       9.950  -4.873  -0.229  0.00  0.00    +0.046 A 
ATOM     26  C   UNL     1       9.350  -3.888   0.542  0.00  0.00    +0.125 A 
BRANCH  26  27
ATOM     27  O   UNL     1       9.375  -3.975   1.898  0.00  0.00    -0.495 OA
ATOM     28  C   UNL     1      10.041  -5.106   2.463  0.00  0.00    +0.277 C 
ENDBRANCH  26  27
ENDBRANCH  19  21
BRANCH   1  29
ATOM     29  C   UNL     1       3.280  -2.984   3.071  0.00  0.00    +0.108 C 
BRANCH  29  30
ATOM     30  C   UNL     1       2.630  -2.386   1.822  0.00  0.00    +0.024 C 
BRANCH  30  31
ATOM     31  C   UNL     1       1.108  -2.427   1.970  0.00  0.00    +0.063 C 
BRANCH  31  32
ATOM     32  C   UNL     1       0.458  -1.829   0.721  0.00  0.00    +0.250 C 
BRANCH  32  33
ATOM     33  O   UNL     1       0.791  -0.443   0.627  0.00  0.00    -0.352 OA
BRANCH  33  35
ATOM     34  C   UNL     1       1.099   1.564  -0.683  0.00  0.00    +0.034 C 
ATOM     35  C   UNL     1       0.808   0.062  -0.709  0.00  0.00    +0.159 C 
ENDBRANCH  33  35
ENDBRANCH  32  33
BRANCH  32  36
ATOM     36  O   UNL     1      -0.962  -1.974   0.807  0.00  0.00    -0.352 OA
BRANCH  36  37
ATOM     37  C   UNL     1      -1.645  -1.748  -0.427  0.00  0.00    +0.159 C 
ATOM     38  C   UNL     1      -3.126  -2.093  -0.261  0.00  0.00    +0.034 C 
ENDBRANCH  36  37
ENDBRANCH  32  36
ENDBRANCH  31  32
ENDBRANCH  30  31
ENDBRANCH  29  30
ENDBRANCH   1  29
TORSDOF 10
