REMARK  Name = ZINC10243443
REMARK  8 active torsions:
REMARK  status: ('A' for Active; 'I' for Inactive)
REMARK    1  A    between atoms: C_1  and  C_2
REMARK    2  A    between atoms: C_3  and  C_11
REMARK    3  A    between atoms: C_7  and  N_8
REMARK    4  A    between atoms: N_13  and  C_14
REMARK    5  A    between atoms: C_15  and  N_31
REMARK    6  A    between atoms: C_17  and  S_22
REMARK    7  A    between atoms: S_22  and  C_23
REMARK    8  A    between atoms: C_23  and  C_24
REMARK                            x       y       z     vdW  Elec       q    Type
REMARK                         _______ _______ _______ _____ _____    ______ ____
ROOT
ATOM      1  C   UNL     1      -4.262  -0.954  -0.627  0.00  0.00    +0.139 A 
ATOM      2  C   UNL     1      -3.746   0.337  -0.664  0.00  0.00    +0.146 A 
ATOM      3  N   UNL     1      -2.437   0.523  -0.865  0.00  0.00    -0.207 NA
ATOM      4  C   UNL     1      -1.621  -0.497  -1.030  0.00  0.00    +0.171 A 
ATOM      5  N   UNL     1      -2.075  -1.781  -1.008  0.00  0.00    -0.300 N 
ATOM      6  H   UNL     1      -1.454  -2.516  -1.135  0.00  0.00    +0.171 HD
ATOM      7  C   UNL     1      -3.384  -2.034  -0.803  0.00  0.00    +0.275 A 
ATOM      8  O   UNL     1      -3.799  -3.183  -0.778  0.00  0.00    -0.266 OA
ENDROOT
BRANCH   1  11
ATOM      9  C   UNL     1      -6.357  -1.862  -1.324  0.00  0.00    +0.249 C 
ATOM     10  O   UNL     1      -5.799  -2.398  -2.262  0.00  0.00    -0.270 OA
ATOM     11  N   UNL     1      -5.637  -1.173  -0.416  0.00  0.00    -0.274 N 
ATOM     12  H   UNL     1      -6.066  -0.828   0.382  0.00  0.00    +0.155 HD
BRANCH   9  15
ATOM     13  C   UNL     1      -7.918  -3.092  -3.427  0.00  0.00    +0.047 C 
ATOM     14  C   UNL     1      -8.588  -2.556  -2.188  0.00  0.00    -0.008 A 
ATOM     15  C   UNL     1      -7.824  -1.965  -1.180  0.00  0.00    +0.042 A 
ATOM     16  C   UNL     1      -8.453  -1.466  -0.038  0.00  0.00    +0.013 A 
ATOM     17  C   UNL     1      -9.823  -1.565   0.090  0.00  0.00    +0.003 A 
ATOM     18  C   UNL     1     -10.573  -2.158  -0.909  0.00  0.00    +0.033 A 
ATOM     19  C   UNL     1      -9.956  -2.655  -2.044  0.00  0.00    +0.130 A 
BRANCH  19  20
ATOM     20  N   UNL     1     -10.767  -3.288  -3.108  0.00  0.00    +0.057 N 
ATOM     21  O   UNL     1     -11.983  -3.275  -3.037  0.00  0.00    -0.126 OA
ATOM     22  O   UNL     1     -10.218  -3.821  -4.056  0.00  0.00    -0.126 OA
ENDBRANCH  19  20
ENDBRANCH   9  15
ENDBRANCH   1  11
BRANCH   2  23
ATOM     23  N   UNL     1      -4.584   1.425  -0.493  0.00  0.00    -0.341 N 
ATOM     24  H   UNL     1      -4.222   2.325  -0.519  0.00  0.00    +0.144 HD
ATOM     25  H   UNL     1      -5.533   1.288  -0.347  0.00  0.00    +0.144 HD
ENDBRANCH   2  23
BRANCH   4  26
ATOM     26  S   UNL     1       0.095  -0.194  -1.292  0.00  0.00    -0.083 S 
BRANCH  26  27
ATOM     27  C   UNL     1       0.107   1.615  -1.232  0.00  0.00    +0.112 C 
BRANCH  27  28
ATOM     28  C   UNL     1       1.514   2.115  -1.438  0.00  0.00    -0.037 A 
ATOM     29  C   UNL     1       2.345   2.309  -0.350  0.00  0.00    +0.005 A 
ATOM     30  C   UNL     1       3.637   2.763  -0.539  0.00  0.00    +0.015 A 
ATOM     31  C   UNL     1       4.095   3.033  -1.816  0.00  0.00    +0.018 A 
ATOM     32  C   UNL     1       3.261   2.844  -2.904  0.00  0.00    +0.015 A 
ATOM     33  C   UNL     1       1.972   2.385  -2.714  0.00  0.00    +0.005 A 
ATOM     34 BR   UNL     1       5.860   3.660  -2.075  0.00  0.00    -0.050 Br
ENDBRANCH  27  28
ENDBRANCH  26  27
ENDBRANCH   4  26
TORSDOF 7
