REMARK  Name = ZINC63110586
REMARK  11 active torsions:
REMARK  status: ('A' for Active; 'I' for Inactive)
REMARK    1  A    between atoms: C_1  and  C_2
REMARK    2  A    between atoms: C_2  and  C_3
REMARK    3  A    between atoms: C_3  and  C_5
REMARK    4  A    between atoms: C_3  and  N_31
REMARK    5  A    between atoms: C_7  and  C_22
REMARK    6  A    between atoms: N_9  and  C_12
REMARK    7  A    between atoms: C_22  and  S_23
REMARK    8  A    between atoms: S_23  and  C_24
REMARK    9  A    between atoms: N_31  and  C_32
REMARK   10  A    between atoms: C_32  and  C_33
REMARK   11  A    between atoms: C_33  and  C_34
REMARK                            x       y       z     vdW  Elec       q    Type
REMARK                         _______ _______ _______ _____ _____    ______ ____
ROOT
ATOM      1  C   UNL     1       0.948  -1.961  -1.245  0.00  0.00    +0.110 C 
ATOM      2  C   UNL     1      -0.344  -2.638  -1.652  0.00  0.00    +0.058 C 
ATOM      3  N   UNL     1      -0.119  -3.249  -2.749  0.00  0.00    -0.182 NA
ATOM      4  N   UNL     1       1.189  -3.102  -3.199  0.00  0.00    -0.162 N 
ATOM      5  C   UNL     1       1.915  -2.338  -2.351  0.00  0.00    +0.244 C 
ATOM      6  O   UNL     1       3.082  -2.021  -2.452  0.00  0.00    -0.273 OA
ENDROOT
BRANCH   4   7
ATOM      7  C   UNL     1       1.714  -3.699  -4.430  0.00  0.00    +0.249 C 
ATOM      8  N   UNL     1       0.922  -3.286  -5.597  0.00  0.00    -0.315 N 
ATOM      9  C   UNL     1       0.263  -4.283  -6.314  0.00  0.00    +0.043 A 
ATOM     10  C   UNL     1      -0.537  -4.079  -7.453  0.00  0.00    +0.024 A 
ATOM     11  C   UNL     1      -1.148  -5.132  -8.092  0.00  0.00    +0.002 A 
ATOM     12  C   UNL     1      -0.996  -6.429  -7.637  0.00  0.00    +0.001 A 
ATOM     13  C   UNL     1      -0.213  -6.660  -6.518  0.00  0.00    +0.016 A 
ATOM     14  C   UNL     1       0.397  -5.605  -5.879  0.00  0.00    +0.032 A 
ATOM     15  S   UNL     1       1.451  -5.518  -4.447  0.00  0.00    -0.080 S 
ATOM     16  H   UNL     1       0.861  -2.354  -5.858  0.00  0.00    +0.149 HD
ENDBRANCH   4   7
BRANCH   1  17
ATOM     17  C   UNL     1       0.765  -0.443  -1.183  0.00  0.00    -0.054 C 
BRANCH  17  18
ATOM     18  N   UNL     1       2.079   0.205  -1.074  0.00  0.00    +0.382 N 
ATOM     19  H   UNL     1       2.509  -0.052  -0.199  0.00  0.00    -0.085 HD
ATOM     20  H   UNL     1       2.666  -0.095  -1.838  0.00  0.00    -0.085 HD
BRANCH  18  21
ATOM     21  C   UNL     1       1.912   1.663  -1.128  0.00  0.00    -0.076 C 
BRANCH  21  22
ATOM     22  C   UNL     1       3.287   2.334  -1.144  0.00  0.00    +0.038 C 
BRANCH  22  23
ATOM     23  C   UNL     1       3.115   3.830  -1.199  0.00  0.00    +0.057 A 
ATOM     24  H   UNL     1       3.459   6.807  -0.332  0.00  0.00    +0.166 HD
ATOM     25  C   UNL     1       3.640   4.719  -0.335  0.00  0.00    +0.107 A 
ATOM     26  N   UNL     1       3.240   5.960  -0.752  0.00  0.00    -0.351 N 
ATOM     27  C   UNL     1       2.484   5.786  -1.857  0.00  0.00    +0.196 A 
ATOM     28  N   UNL     1       2.418   4.510  -2.122  0.00  0.00    -0.241 NA
ENDBRANCH  22  23
ENDBRANCH  21  22
ENDBRANCH  18  21
ENDBRANCH  17  18
BRANCH  17  30
ATOM     29  C   UNL     1       0.649  -0.499   1.312  0.00  0.00    +0.002 C 
ATOM     30  C   UNL     1      -0.085  -0.081   0.036  0.00  0.00    -0.018 C 
ENDBRANCH  17  30
ENDBRANCH   1  17
BRANCH   2  31
ATOM     31  C   UNL     1      -1.650  -2.597  -0.902  0.00  0.00    +0.127 C 
BRANCH  31  32
ATOM     32  S   UNL     1      -2.841  -3.707  -1.702  0.00  0.00    -0.119 S 
BRANCH  32  33
ATOM     33  C   UNL     1      -4.296  -3.549  -0.721  0.00  0.00    +0.008 A 
ATOM     34  C   UNL     1      -4.306  -2.698   0.378  0.00  0.00    +0.016 A 
ATOM     35  C   UNL     1      -5.448  -2.577   1.145  0.00  0.00    +0.021 A 
ATOM     36  C   UNL     1      -6.581  -3.302   0.821  0.00  0.00    +0.041 A 
ATOM     37  C   UNL     1      -6.574  -4.151  -0.272  0.00  0.00    +0.021 A 
ATOM     38  C   UNL     1      -5.438  -4.272  -1.047  0.00  0.00    +0.016 A 
ATOM     39 CL   UNL     1      -8.014  -3.147   1.789  0.00  0.00    -0.084 Cl
ENDBRANCH  32  33
ENDBRANCH  31  32
ENDBRANCH   2  31
TORSDOF 10
