REMARK  Name = ZINC11782711
REMARK  10 active torsions:
REMARK  status: ('A' for Active; 'I' for Inactive)
REMARK    1  A    between atoms: C_1  and  C_2
REMARK    2  A    between atoms: C_2  and  C_3
REMARK    3  A    between atoms: C_3  and  C_4
REMARK    4  A    between atoms: C_4  and  C_19
REMARK    5  A    between atoms: N_7  and  C_11
REMARK    6  A    between atoms: C_11  and  C_12
REMARK    7  A    between atoms: C_12  and  C_13
REMARK    8  A    between atoms: C_18  and  N_72
REMARK    9  A    between atoms: C_25  and  C_27
REMARK   10  A    between atoms: C_28  and  C_29
REMARK                            x       y       z     vdW  Elec       q    Type
REMARK                         _______ _______ _______ _____ _____    ______ ____
ROOT
ATOM      1  C   UNL     1       3.924  -2.272  -0.379  0.00  0.00    +0.115 C 
ATOM      2  C   UNL     1       2.822  -1.232  -0.422  0.00  0.00    +0.247 C 
ATOM      3  O   UNL     1       2.672  -0.358  -1.249  0.00  0.00    -0.273 OA
ATOM      4  N   UNL     1       2.045  -1.480   0.651  0.00  0.00    -0.224 N 
ATOM      5  C   UNL     1       2.494  -2.526   1.354  0.00  0.00    +0.309 C 
ATOM      6  O   UNL     1       1.956  -2.943   2.361  0.00  0.00    -0.252 OA
ATOM      7  N   UNL     1       3.606  -3.064   0.822  0.00  0.00    -0.285 N 
ATOM      8  H   UNL     1       4.101  -3.825   1.163  0.00  0.00    +0.151 HD
ENDROOT
BRANCH   1   9
ATOM      9  C   UNL     1       5.294  -1.605  -0.236  0.00  0.00    +0.024 C 
ATOM     10  C   UNL     1       6.370  -2.680  -0.071  0.00  0.00    +0.025 C 
ATOM     11  C   UNL     1       7.743  -2.010   0.037  0.00  0.00    +0.108 C 
ATOM     12  N   UNL     1       7.704  -1.024   1.125  0.00  0.00    -0.298 N 
ATOM     13  C   UNL     1       6.652   0.001   1.111  0.00  0.00    +0.108 C 
ATOM     14  C   UNL     1       5.291  -0.691   0.992  0.00  0.00    +0.025 C 
ATOM     15  C   UNL     1       8.616  -1.059   2.116  0.00  0.00    +0.239 C 
ATOM     16  O   UNL     1       8.626  -0.187   2.965  0.00  0.00    -0.271 OA
BRANCH  15  17
ATOM     17  C   UNL     1       9.595  -2.145   2.172  0.00  0.00    +0.068 C 
ATOM     18  C   UNL     1      10.432  -2.245   3.225  0.00  0.00    +0.016 C 
BRANCH  18  19
ATOM     19  C   UNL     1      11.416  -3.338   3.282  0.00  0.00    +0.010 A 
ATOM     20  C   UNL     1      11.483  -4.278   2.248  0.00  0.00    +0.011 A 
ATOM     21  C   UNL     1      12.411  -5.295   2.305  0.00  0.00    +0.001 A 
ATOM     22  C   UNL     1      13.269  -5.396   3.388  0.00  0.00    +0.003 A 
ATOM     23  C   UNL     1      13.208  -4.475   4.417  0.00  0.00    +0.039 A 
ATOM     24  C   UNL     1      12.287  -3.445   4.373  0.00  0.00    +0.131 A 
ATOM     25  F   UNL     1      12.227  -2.546   5.380  0.00  0.00    -0.205 F 
ENDBRANCH  18  19
ENDBRANCH  15  17
ENDBRANCH   1   9
BRANCH   1  26
ATOM     26  C   UNL     1       3.879  -3.150  -1.630  0.00  0.00    +0.035 C 
BRANCH  26  28
ATOM     27  C   UNL     1       2.438  -4.638  -3.028  0.00  0.00    +0.004 C 
ATOM     28  C   UNL     1       2.483  -3.759  -1.776  0.00  0.00    -0.001 C 
ENDBRANCH  26  28
ENDBRANCH   1  26
BRANCH   4  29
ATOM     29  C   UNL     1       0.852  -0.704   1.000  0.00  0.00    +0.116 C 
BRANCH  29  30
ATOM     30  C   UNL     1       1.247   0.452   1.920  0.00  0.00    +0.004 C 
BRANCH  30  31
ATOM     31  C   UNL     1      -0.012   1.191   2.379  0.00  0.00    -0.068 C 
ATOM     32  C   UNL     1      -0.879   0.260   3.252  0.00  0.00    -0.017 C 
ATOM     33  C   UNL     1      -1.419   1.213   4.350  0.00  0.00    -0.020 C 
ATOM     34  C   UNL     1      -0.213   2.162   4.562  0.00  0.00    -0.079 C 
ATOM     35  C   UNL     1       1.822   2.500   3.279  0.00  0.00    -0.096 C 
ATOM     36  N   UNL     1       0.344   2.355   3.211  0.00  0.00    +0.380 N 
ATOM     37  H   UNL     1      -0.057   3.204   2.796  0.00  0.00    -0.082 HD
ENDBRANCH  30  31
ENDBRANCH  29  30
ENDBRANCH   4  29
TORSDOF 8
