REMARK  Name = ZINC20114588
REMARK  11 active torsions:
REMARK  status: ('A' for Active; 'I' for Inactive)
REMARK    1  A    between atoms: C_1  and  C_2
REMARK    2  A    between atoms: C_4  and  O_9
REMARK    3  A    between atoms: O_9  and  C_10
REMARK    4  A    between atoms: C_10  and  C_11
REMARK    5  A    between atoms: C_11  and  O_12
REMARK    6  A    between atoms: O_12  and  C_13
REMARK    7  A    between atoms: C_16  and  C_21
REMARK    8  A    between atoms: C_18  and  O_19
REMARK    9  A    between atoms: O_19  and  C_20
REMARK   10  A    between atoms: C_32  and  S_33
REMARK   11  A    between atoms: S_33  and  C_34
REMARK                            x       y       z     vdW  Elec       q    Type
REMARK                         _______ _______ _______ _____ _____    ______ ____
ROOT
ATOM      1  C   UNL     1       0.708  -4.444  -5.988  0.00  0.00    +0.162 A 
ATOM      2  C   UNL     1      -0.204  -5.169  -6.745  0.00  0.00    +0.050 A 
ATOM      3  C   UNL     1       0.184  -5.740  -7.935  0.00  0.00    +0.012 A 
ATOM      4  C   UNL     1       1.502  -5.590  -8.387  0.00  0.00    -0.021 A 
ATOM      5  C   UNL     1       2.421  -4.857  -7.623  0.00  0.00    +0.057 A 
ATOM      6  C   UNL     1       2.021  -4.284  -6.433  0.00  0.00    +0.162 A 
ENDROOT
BRANCH   4   7
ATOM      7  C   UNL     1       1.919  -6.197  -9.654  0.00  0.00    +0.024 C 
ATOM      8  C   UNL     1       1.421  -7.425 -10.025  0.00  0.00    +0.079 C 
ATOM      9  C   UNL     1       1.670  -7.999 -11.379  0.00  0.00    +0.137 C 
ATOM     10  N   UNL     1       2.763  -7.788 -12.060  0.00  0.00    -0.284 NA
ATOM     11  N   UNL     1       0.604  -8.793 -11.849  0.00  0.00    -0.211 N 
ATOM     12  C   UNL     1      -0.256  -9.352 -10.925  0.00  0.00    +0.183 C 
ATOM     13  N   UNL     1      -0.255  -9.143  -9.627  0.00  0.00    -0.152 NA
ATOM     14  C   UNL     1       0.611  -8.255  -9.099  0.00  0.00    +0.273 C 
ATOM     15  O   UNL     1       0.725  -8.132  -7.890  0.00  0.00    -0.268 OA
ATOM     16  S   UNL     1      -1.260 -10.300 -11.858  0.00  0.00    +0.048 S 
ATOM     17  N   UNL     1      -0.672  -9.910 -13.379  0.00  0.00    -0.185 NA
ATOM     18  C   UNL     1       0.316  -9.092 -13.141  0.00  0.00    +0.175 C 
ATOM     19  H   UNL     1       3.466  -7.232 -11.688  0.00  0.00    +0.188 HD
BRANCH  18  20
ATOM     20  S   UNL     1       1.251  -8.395 -14.462  0.00  0.00    -0.093 S 
ATOM     21  C   UNL     1       0.490  -9.091 -15.954  0.00  0.00    +0.093 C 
ENDBRANCH  18  20
ENDBRANCH   4   7
BRANCH   6  22
ATOM     22  O   UNL     1       2.908  -3.569  -5.691  0.00  0.00    -0.491 OA
ATOM     23  C   UNL     1       4.235  -3.446  -6.206  0.00  0.00    +0.277 C 
ENDBRANCH   6  22
BRANCH   1  24
ATOM     24  O   UNL     1       0.319  -3.883  -4.814  0.00  0.00    -0.485 OA
BRANCH  24  25
ATOM     25  C   UNL     1      -1.039  -4.085  -4.418  0.00  0.00    +0.270 C 
BRANCH  25  26
ATOM     26  C   UNL     1      -1.290  -3.384  -3.081  0.00  0.00    +0.270 C 
BRANCH  26  27
ATOM     27  O   UNL     1      -1.151  -1.972  -3.249  0.00  0.00    -0.489 OA
BRANCH  27  31
ATOM     28  C   UNL     1      -1.290   2.466  -1.222  0.00  0.00    +0.045 C 
ATOM     29  C   UNL     1      -1.420   0.967  -1.122  0.00  0.00    -0.029 A 
ATOM     30  C   UNL     1      -1.224   0.181  -2.242  0.00  0.00    +0.050 A 
ATOM     31  C   UNL     1      -1.343  -1.197  -2.149  0.00  0.00    +0.121 A 
ATOM     32  C   UNL     1      -1.659  -1.785  -0.933  0.00  0.00    +0.047 A 
ATOM     33  C   UNL     1      -1.853  -0.996   0.184  0.00  0.00    +0.024 A 
ATOM     34  C   UNL     1      -1.729   0.379   0.091  0.00  0.00    +0.044 A 
ATOM     35 CL   UNL     1      -1.967   1.369   1.498  0.00  0.00    -0.083 Cl
ENDBRANCH  27  31
ENDBRANCH  26  27
ENDBRANCH  25  26
ENDBRANCH  24  25
ENDBRANCH   1  24
TORSDOF 8
