REMARK  Name = ZINC13633052
REMARK  7 active torsions:
REMARK  status: ('A' for Active; 'I' for Inactive)
REMARK    1  A    between atoms: C_1  and  C_2
REMARK    2  A    between atoms: C_2  and  O_3
REMARK    3  A    between atoms: O_3  and  C_4
REMARK    4  A    between atoms: C_7  and  C_10
REMARK    5  A    between atoms: C_11  and  C_28
REMARK    6  A    between atoms: C_12  and  C_21
REMARK    7  A    between atoms: C_26  and  C_27
REMARK                            x       y       z     vdW  Elec       q    Type
REMARK                         _______ _______ _______ _____ _____    ______ ____
ROOT
ATOM      1  C   UNL     1      -0.496   0.816  -0.093  0.00  0.00    +0.140 C 
ATOM      2  C   UNL     1      -1.519  -0.069  -0.226  0.00  0.00    +0.009 C 
ATOM      3  C   UNL     1      -1.283  -1.551  -0.156  0.00  0.00    +0.086 C 
ATOM      4  C   UNL     1       0.054  -1.836   0.476  0.00  0.00    +0.007 A 
ATOM      5  C   UNL     1       0.323  -3.105   0.956  0.00  0.00    +0.008 A 
ATOM      6  C   UNL     1       1.545  -3.383   1.537  0.00  0.00    +0.001 A 
ATOM      7  C   UNL     1       2.504  -2.393   1.641  0.00  0.00    +0.004 A 
ATOM      8  C   UNL     1       2.241  -1.124   1.165  0.00  0.00    +0.046 A 
ATOM      9  C   UNL     1       1.012  -0.841   0.579  0.00  0.00    +0.133 A 
ATOM     10  O   UNL     1       0.771   0.410   0.116  0.00  0.00    -0.455 OA
ENDROOT
BRANCH   2  11
ATOM     11  C   UNL     1      -2.819   0.410  -0.435  0.00  0.00    +0.028 C 
ATOM     12  C   UNL     1      -3.791   0.211   0.523  0.00  0.00    +0.077 C 
ATOM     13  C   UNL     1      -5.167   0.570   0.505  0.00  0.00    +0.256 C 
ATOM     14  O   UNL     1      -5.652   1.141  -0.457  0.00  0.00    -0.269 OA
ATOM     15  N   UNL     1      -5.905   0.267   1.558  0.00  0.00    -0.270 N 
ATOM     16  C   UNL     1      -5.367  -0.366   2.624  0.00  0.00    +0.118 C 
ATOM     17  S   UNL     1      -6.125  -0.852   4.080  0.00  0.00    -0.027 S 
ATOM     18  S   UNL     1      -3.664  -0.575   2.123  0.00  0.00    -0.061 S 
ATOM     19  H   UNL     1      -6.846   0.502   1.567  0.00  0.00    +0.156 HD
ENDBRANCH   2  11
BRANCH   3  20
ATOM     20  C   UNL     1      -1.311  -2.132  -1.547  0.00  0.00    -0.032 A 
ATOM     21  C   UNL     1      -0.415  -1.685  -2.500  0.00  0.00    +0.005 A 
ATOM     22  C   UNL     1      -0.441  -2.218  -3.775  0.00  0.00    +0.000 A 
ATOM     23  C   UNL     1      -1.363  -3.197  -4.097  0.00  0.00    +0.000 A 
ATOM     24  C   UNL     1      -2.258  -3.643  -3.144  0.00  0.00    +0.003 A 
ATOM     25  C   UNL     1      -2.229  -3.114  -1.867  0.00  0.00    -0.046 A 
ATOM     26  C   UNL     1      -3.202  -3.604  -0.826  0.00  0.00    +0.044 C 
ENDBRANCH   3  20
BRANCH   1  30
ATOM     27  C   UNL     1      -1.319   4.973  -0.330  0.00  0.00    +0.121 A 
ATOM     28  C   UNL     1      -2.072   4.164   0.513  0.00  0.00    +0.046 A 
ATOM     29  C   UNL     1      -1.809   2.815   0.594  0.00  0.00    +0.015 A 
ATOM     30  C   UNL     1      -0.781   2.258  -0.175  0.00  0.00    +0.018 A 
ATOM     31  C   UNL     1      -0.022   3.077  -1.018  0.00  0.00    +0.015 A 
ATOM     32  C   UNL     1      -0.296   4.424  -1.095  0.00  0.00    +0.046 A 
BRANCH  27  33
ATOM     33  O   UNL     1      -1.582   6.302  -0.405  0.00  0.00    -0.492 OA
BRANCH  33  35
ATOM     34  C   UNL     1      -1.211   8.539  -1.242  0.00  0.00    +0.048 C 
ATOM     35  C   UNL     1      -0.769   7.075  -1.291  0.00  0.00    +0.225 C 
ENDBRANCH  33  35
ENDBRANCH  27  33
ENDBRANCH   1  30
TORSDOF 5
