REMARK  Name = ZINC13023911
REMARK  15 active torsions:
REMARK  status: ('A' for Active; 'I' for Inactive)
REMARK    1  A    between atoms: C_1  and  C_2
REMARK    2  A    between atoms: C_2  and  C_3
REMARK    3  A    between atoms: C_3  and  C_5
REMARK    4  A    between atoms: C_3  and  C_6
REMARK    5  A    between atoms: C_11  and  N_12
REMARK    6  A    between atoms: C_13  and  C_15
REMARK    7  A    between atoms: C_15  and  C_17
REMARK    8  A    between atoms: C_15  and  S_18
REMARK    9  A    between atoms: S_18  and  C_19
REMARK   10  A    between atoms: C_23  and  C_35
REMARK   11  A    between atoms: N_29  and  C_30
REMARK   12  A    between atoms: C_30  and  C_31
REMARK   13  A    between atoms: C_31  and  C_32
REMARK   14  A    between atoms: C_32  and  O_33
REMARK   15  A    between atoms: O_33  and  C_34
REMARK                            x       y       z     vdW  Elec       q    Type
REMARK                         _______ _______ _______ _____ _____    ______ ____
ROOT
ATOM      1  C   UNL     1       8.335  -1.083   1.401  0.00  0.00    +0.173 A 
ATOM      2  N   UNL     1       7.951   0.167   1.309  0.00  0.00    -0.223 NA
ATOM      3  C   UNL     1       8.825   1.190   1.455  0.00  0.00    +0.080 A 
ATOM      4  C   UNL     1       8.412   2.522   1.362  0.00  0.00    +0.043 A 
ATOM      5  C   UNL     1       9.346   3.538   1.514  0.00  0.00    +0.065 A 
ATOM      6  C   UNL     1      10.692   3.236   1.760  0.00  0.00    +0.016 A 
ATOM      7  C   UNL     1      11.107   1.939   1.852  0.00  0.00    +0.016 A 
ATOM      8  C   UNL     1      10.186   0.902   1.703  0.00  0.00    +0.065 A 
ATOM      9  C   UNL     1      10.591  -0.510   1.796  0.00  0.00    +0.262 A 
ATOM     10  O   UNL     1      11.748  -0.822   2.007  0.00  0.00    -0.267 OA
ATOM     11  N   UNL     1       9.629  -1.448   1.638  0.00  0.00    -0.287 N 
ENDROOT
BRANCH   5  12
ATOM     12  C   UNL     1       8.917   4.951   1.417  0.00  0.00    +0.387 C 
ATOM     13  O   UNL     1       7.752   5.218   1.205  0.00  0.00    -0.241 OA
ATOM     14  O   UNL     1       9.819   5.941   1.564  0.00  0.00    -0.241 OA
ENDBRANCH   5  12
BRANCH   1  15
ATOM     15  S   UNL     1       7.127  -2.350   1.203  0.00  0.00    -0.075 S 
BRANCH  15  16
ATOM     16  C   UNL     1       5.652  -1.337   0.925  0.00  0.00    +0.137 C 
ATOM     17  C   UNL     1       5.804  -0.566  -0.388  0.00  0.00    +0.029 C 
BRANCH  16  19
ATOM     18  N   UNL     1       3.210  -1.712   1.046  0.00  0.00    -0.284 N 
ATOM     19  C   UNL     1       4.439  -2.228   0.846  0.00  0.00    +0.230 C 
ATOM     20  O   UNL     1       4.568  -3.409   0.603  0.00  0.00    -0.274 OA
ATOM     21  H   UNL     1       3.101  -0.758   1.184  0.00  0.00    +0.155 HD
BRANCH  18  27
ATOM     22  C   UNL     1       0.950  -2.183   1.754  0.00  0.00    -0.023 A 
ATOM     23  C   UNL     1      -0.151  -3.017   1.766  0.00  0.00    +0.006 A 
ATOM     24  C   UNL     1      -0.121  -4.214   1.074  0.00  0.00    +0.000 A 
ATOM     25  C   UNL     1       1.015  -4.584   0.376  0.00  0.00    +0.002 A 
ATOM     26  C   UNL     1       2.120  -3.757   0.366  0.00  0.00    +0.023 A 
ATOM     27  C   UNL     1       2.091  -2.552   1.056  0.00  0.00    +0.037 A 
BRANCH  22  28
ATOM     28  C   UNL     1       0.914  -0.876   2.504  0.00  0.00    +0.017 C 
ATOM     29  C   UNL     1       0.542  -1.137   3.966  0.00  0.00    +0.012 C 
BRANCH  28  31
ATOM     30  C   UNL     1      -0.078   1.416   2.551  0.00  0.00    +0.004 C 
ATOM     31  C   UNL     1      -0.128   0.047   1.870  0.00  0.00    +0.004 C 
ENDBRANCH  28  31
ENDBRANCH  22  28
ENDBRANCH  18  27
ENDBRANCH  16  19
ENDBRANCH  15  16
ENDBRANCH   1  15
BRANCH  11  32
ATOM     32  C   UNL     1       9.979  -2.868   1.722  0.00  0.00    +0.129 C 
BRANCH  32  33
ATOM     33  C   UNL     1      10.355  -3.384   0.332  0.00  0.00    +0.050 C 
BRANCH  33  34
ATOM     34  C   UNL     1      10.720  -4.867   0.419  0.00  0.00    +0.161 C 
BRANCH  34  35
ATOM     35  O   UNL     1      11.072  -5.348  -0.880  0.00  0.00    -0.383 OA
ATOM     36  C   UNL     1      11.432  -6.731  -0.909  0.00  0.00    +0.193 C 
ENDBRANCH  34  35
ENDBRANCH  33  34
ENDBRANCH  32  33
ENDBRANCH  11  32
TORSDOF 11
