REMARK  Name = ZINC63294442
REMARK  6 active torsions:
REMARK  status: ('A' for Active; 'I' for Inactive)
REMARK    1  A    between atoms: C_1  and  C_2
REMARK    2  A    between atoms: C_2  and  C_4
REMARK    3  A    between atoms: C_2  and  N_10
REMARK    4  A    between atoms: C_11  and  C_13
REMARK    5  A    between atoms: C_16  and  C_20
REMARK    6  A    between atoms: C_20  and  C_21
REMARK                            x       y       z     vdW  Elec       q    Type
REMARK                         _______ _______ _______ _____ _____    ______ ____
ROOT
ATOM      1  C   UNL     1       0.780  -1.133   3.576  0.00  0.00    +0.297 C 
ATOM      2  N   UNL     1       1.163  -2.558   3.404  0.00  0.00    -0.265 NA
ATOM      3  C   UNL     1       2.310  -2.703   4.339  0.00  0.00    +0.154 C 
ATOM      4  N   UNL     1       3.015  -1.405   4.229  0.00  0.00    -0.181 NA
ATOM      5  O   UNL     1       2.027  -0.431   3.737  0.00  0.00    -0.270 OA
ATOM      6  H   UNL     1       0.404  -3.170   3.664  0.00  0.00    +0.126 HD
ATOM      7  H   UNL     1       3.802  -1.472   3.601  0.00  0.00    +0.156 HD
ENDROOT
BRANCH   1   9
ATOM      8  N   UNL     1       0.711  -0.489   1.189  0.00  0.00    -0.305 N 
ATOM      9  C   UNL     1       0.051  -0.633   2.355  0.00  0.00    +0.259 C 
ATOM     10  O   UNL     1      -1.129  -0.361   2.423  0.00  0.00    -0.271 OA
ATOM     11  H   UNL     1       1.654  -0.707   1.135  0.00  0.00    +0.149 HD
BRANCH   8  13
ATOM     12  C   UNL     1      -0.019   1.526   0.010  0.00  0.00    +0.033 C 
ATOM     13  C   UNL     1       0.002  -0.004   0.002  0.00  0.00    +0.100 C 
BRANCH  13  14
ATOM     14  C   UNL     1       0.707  -0.490  -1.238  0.00  0.00    -0.027 A 
ATOM     15  C   UNL     1       2.089  -0.511  -1.284  0.00  0.00    +0.005 A 
ATOM     16  C   UNL     1       2.736  -0.957  -2.421  0.00  0.00    +0.000 A 
ATOM     17  C   UNL     1       2.002  -1.382  -3.512  0.00  0.00    +0.000 A 
ATOM     18  C   UNL     1       0.620  -1.362  -3.466  0.00  0.00    +0.000 A 
ATOM     19  C   UNL     1      -0.027  -0.920  -2.327  0.00  0.00    +0.005 A 
ENDBRANCH  13  14
ENDBRANCH   8  13
ENDBRANCH   1   9
BRANCH   3  20
ATOM     20  C   UNL     1       3.220  -3.852   3.900  0.00  0.00    +0.070 C 
BRANCH  20  21
ATOM     21  C   UNL     1       4.303  -4.056   4.928  0.00  0.00    -0.039 C 
ATOM     22  C   UNL     1       4.295  -4.939   5.953  0.00  0.00    -0.001 A 
ATOM     23  C   UNL     1       3.314  -5.935   6.400  0.00  0.00    +0.010 A 
ATOM     24  C   UNL     1       3.595  -6.690   7.487  0.00  0.00    +0.001 A 
ATOM     25  C   UNL     1       4.796  -6.546   8.195  0.00  0.00    +0.002 A 
ATOM     26  C   UNL     1       5.745  -5.653   7.845  0.00  0.00    +0.026 A 
ATOM     27  C   UNL     1       5.556  -4.807   6.718  0.00  0.00    +0.043 A 
ATOM     28  N   UNL     1       6.313  -3.878   6.186  0.00  0.00    -0.380 N 
ATOM     29  C   UNL     1       5.620  -3.320   5.020  0.00  0.00    +0.144 C 
ATOM     30  H   UNL     1       7.188  -3.607   6.508  0.00  0.00    +0.160 HD
ENDBRANCH  20  21
ENDBRANCH   3  20
TORSDOF 5
