REMARK  Name = ZINC15012273
REMARK  7 active torsions:
REMARK  status: ('A' for Active; 'I' for Inactive)
REMARK    1  A    between atoms: C_4  and  N_7
REMARK    2  A    between atoms: C_8  and  C_10
REMARK    3  A    between atoms: C_10  and  C_29
REMARK    4  A    between atoms: C_11  and  C_12
REMARK    5  A    between atoms: C_15  and  O_19
REMARK    6  A    between atoms: O_19  and  C_20
REMARK    7  A    between atoms: C_20  and  C_21
REMARK                            x       y       z     vdW  Elec       q    Type
REMARK                         _______ _______ _______ _____ _____    ______ ____
ROOT
ATOM      1  C   UNL     1      -0.162   4.137  -0.190  0.00  0.00    -0.021 A 
ATOM      2  C   UNL     1       0.955   3.347   0.122  0.00  0.00    +0.031 A 
ATOM      3  C   UNL     1       0.893   1.981  -0.035  0.00  0.00    +0.084 A 
ATOM      4  C   UNL     1      -0.273   1.383  -0.503  0.00  0.00    +0.153 A 
ATOM      5  C   UNL     1      -1.382   2.162  -0.820  0.00  0.00    +0.061 A 
ATOM      6  C   UNL     1      -1.334   3.529  -0.661  0.00  0.00    +0.027 A 
ATOM      7 BR   UNL     1      -2.960   1.341  -1.462  0.00  0.00    -0.046 Br
ATOM      8 CL   UNL     1       2.274   1.002   0.350  0.00  0.00    -0.080 Cl
ENDROOT
BRANCH   1  10
ATOM      9  C   UNL     1      -1.164   6.263   0.540  0.00  0.00    +0.114 C 
ATOM     10  C   UNL     1      -0.102   5.590  -0.025  0.00  0.00    +0.032 C 
BRANCH   9  12
ATOM     11  N   UNL     1      -3.357   6.158   1.609  0.00  0.00    -0.281 N 
ATOM     12  C   UNL     1      -2.255   5.512   1.178  0.00  0.00    +0.259 C 
ATOM     13  O   UNL     1      -2.164   4.307   1.317  0.00  0.00    -0.269 OA
ATOM     14  H   UNL     1      -3.401   7.126   1.560  0.00  0.00    +0.155 HD
BRANCH  11  18
ATOM     15  C   UNL     1      -6.569   4.001   3.151  0.00  0.00    +0.000 A 
ATOM     16  C   UNL     1      -5.274   3.574   3.387  0.00  0.00    +0.002 A 
ATOM     17  C   UNL     1      -4.207   4.287   2.877  0.00  0.00    +0.023 A 
ATOM     18  C   UNL     1      -4.435   5.434   2.127  0.00  0.00    +0.034 A 
ATOM     19  C   UNL     1      -5.736   5.863   1.897  0.00  0.00    +0.023 A 
ATOM     20  C   UNL     1      -6.799   5.142   2.405  0.00  0.00    +0.002 A 
ENDBRANCH  11  18
ENDBRANCH   9  12
BRANCH   9  21
ATOM     21  C   UNL     1      -1.204   7.694   0.507  0.00  0.00    +0.104 C 
ATOM     22  N   UNL     1      -1.236   8.830   0.480  0.00  0.00    -0.191 NA
ENDBRANCH   9  21
ENDBRANCH   1  10
BRANCH   4  23
ATOM     23  O   UNL     1      -0.328   0.036  -0.657  0.00  0.00    -0.485 OA
BRANCH  23  24
ATOM     24  C   UNL     1      -0.772  -0.728   0.466  0.00  0.00    +0.264 C 
BRANCH  24  25
ATOM     25  C   UNL     1      -0.767  -2.193   0.110  0.00  0.00    -0.010 A 
ATOM     26  C   UNL     1      -1.897  -2.776  -0.433  0.00  0.00    +0.008 A 
ATOM     27  C   UNL     1      -1.891  -4.117  -0.765  0.00  0.00    +0.020 A 
ATOM     28  C   UNL     1      -0.758  -4.880  -0.541  0.00  0.00    +0.041 A 
ATOM     29  C   UNL     1       0.370  -4.297   0.009  0.00  0.00    +0.020 A 
ATOM     30  C   UNL     1       0.365  -2.954   0.334  0.00  0.00    +0.008 A 
ATOM     31 CL   UNL     1      -0.752  -6.567  -0.951  0.00  0.00    -0.084 Cl
ENDBRANCH  24  25
ENDBRANCH  23  24
ENDBRANCH   4  23
TORSDOF 7
