REMARK  Name = ZINC13500513
REMARK  15 active torsions:
REMARK  status: ('A' for Active; 'I' for Inactive)
REMARK    1  A    between atoms: C_1  and  C_2
REMARK    2  A    between atoms: C_2  and  O_3
REMARK    3  A    between atoms: O_3  and  C_4
REMARK    4  A    between atoms: C_11  and  C_16
REMARK    5  A    between atoms: C_16  and  N_17
REMARK    6  A    between atoms: N_17  and  C_18
REMARK    7  A    between atoms: N_17  and  C_26
REMARK    8  A    between atoms: C_18  and  C_19
REMARK    9  A    between atoms: C_19  and  C_20
REMARK   10  A    between atoms: C_26  and  C_28
REMARK   11  A    between atoms: C_26  and  C_39
REMARK   12  A    between atoms: N_32  and  C_33
REMARK   13  A    between atoms: C_33  and  C_34
REMARK   14  A    between atoms: C_39  and  C_40
REMARK   15  A    between atoms: C_39  and  C_41
REMARK                            x       y       z     vdW  Elec       q    Type
REMARK                         _______ _______ _______ _____ _____    ______ ____
ROOT
ATOM      1  N   UNL     1      -2.310   4.461   1.271  0.00  0.00    -0.288 NA
ENDROOT
BRANCH   1   2
ATOM      2  C   UNL     1      -2.119   4.117  -0.144  0.00  0.00    +0.125 C 
BRANCH   2  10
ATOM      3  C   UNL     1       2.038  -0.452  -0.665  0.00  0.00    +0.121 A 
ATOM      4  C   UNL     1       3.148   0.374  -0.833  0.00  0.00    +0.047 A 
ATOM      5  C   UNL     1       3.009   1.744  -0.834  0.00  0.00    +0.030 A 
ATOM      6  C   UNL     1       1.752   2.315  -0.665  0.00  0.00    +0.049 A 
ATOM      7  C   UNL     1       0.629   1.485  -0.494  0.00  0.00    +0.002 A 
ATOM      8  C   UNL     1       0.782   0.095  -0.496  0.00  0.00    +0.055 A 
ATOM      9  C   UNL     1      -0.687   2.100  -0.311  0.00  0.00    +0.020 A 
ATOM     10  C   UNL     1      -0.778   3.453  -0.323  0.00  0.00    +0.031 A 
ATOM     11  C   UNL     1       0.379   4.241  -0.498  0.00  0.00    +0.254 A 
ATOM     12  O   UNL     1       0.276   5.456  -0.501  0.00  0.00    -0.268 OA
ATOM     13  N   UNL     1       1.593   3.686  -0.661  0.00  0.00    -0.322 N 
ATOM     14  H   UNL     1       2.466   4.342  -0.794  0.00  0.00    +0.169 HD
BRANCH   3  15
ATOM     15  O   UNL     1       2.194  -1.803  -0.668  0.00  0.00    -0.492 OA
BRANCH  15  17
ATOM     16  C   UNL     1       3.496  -3.833  -0.823  0.00  0.00    +0.048 C 
ATOM     17  C   UNL     1       3.520  -2.303  -0.848  0.00  0.00    +0.225 C 
ENDBRANCH  15  17
ENDBRANCH   3  15
ENDBRANCH   2  10
ENDBRANCH   1   2
BRANCH   1  18
ATOM     18  C   UNL     1      -1.351   5.489   1.697  0.00  0.00    +0.090 C 
BRANCH  18  19
ATOM     19  C   UNL     1      -1.521   5.756   3.193  0.00  0.00    +0.050 C 
BRANCH  19  20
ATOM     20  C   UNL     1      -0.433   6.688   3.664  0.00  0.00    -0.046 A 
ATOM     21  C   UNL     1       0.762   6.174   4.132  0.00  0.00    +0.003 A 
ATOM     22  C   UNL     1       1.761   7.029   4.559  0.00  0.00    +0.000 A 
ATOM     23  C   UNL     1       1.561   8.396   4.528  0.00  0.00    +0.000 A 
ATOM     24  C   UNL     1       0.364   8.909   4.065  0.00  0.00    +0.000 A 
ATOM     25  C   UNL     1      -0.633   8.055   3.633  0.00  0.00    +0.003 A 
ENDBRANCH  19  20
ENDBRANCH  18  19
ENDBRANCH   1  18
BRANCH   1  26
ATOM     26  C   UNL     1      -3.691   4.891   1.526  0.00  0.00    +0.129 C 
BRANCH  26  27
ATOM     27  C   UNL     1      -4.620   4.197   0.564  0.00  0.00    +0.169 A 
ATOM     28  N   UNL     1      -4.695   2.908   0.341  0.00  0.00    -0.112 NA
ATOM     29  N   UNL     1      -5.607   2.710  -0.547  0.00  0.00    -0.023 NA
ATOM     30  N   UNL     1      -6.115   3.840  -0.897  0.00  0.00    -0.043 NA
ATOM     31  N   UNL     1      -5.536   4.780  -0.231  0.00  0.00    -0.220 N 
BRANCH  31  32
ATOM     32  C   UNL     1      -5.821   6.215  -0.323  0.00  0.00    +0.221 C 
BRANCH  32  33
ATOM     33  C   UNL     1      -4.947   6.833  -1.384  0.00  0.00    +0.126 A 
ATOM     34  C   UNL     1      -5.256   6.950  -2.688  0.00  0.00    +0.046 A 
ATOM     35  C   UNL     1      -4.160   7.588  -3.312  0.00  0.00    +0.041 A 
ATOM     36  C   UNL     1      -3.243   7.814  -2.354  0.00  0.00    +0.195 A 
ATOM     37  O   UNL     1      -3.725   7.355  -1.188  0.00  0.00    -0.466 OA
ENDBRANCH  32  33
ENDBRANCH  31  32
ENDBRANCH  26  27
BRANCH  26  38
ATOM     38  C   UNL     1      -4.081   4.529   2.961  0.00  0.00    +0.008 C 
ATOM     39  C   UNL     1      -5.482   5.066   3.260  0.00  0.00    +0.009 C 
ATOM     40  C   UNL     1      -4.072   3.008   3.124  0.00  0.00    +0.009 C 
ENDBRANCH  26  38
ENDBRANCH   1  26
TORSDOF 12
