REMARK  Name = ZINC59170649
REMARK  12 active torsions:
REMARK  status: ('A' for Active; 'I' for Inactive)
REMARK    1  A    between atoms: C_1  and  C_2
REMARK    2  A    between atoms: C_2  and  C_3
REMARK    3  A    between atoms: C_8  and  N_9
REMARK    4  A    between atoms: C_10  and  C_12
REMARK    5  A    between atoms: C_17  and  N_33
REMARK    6  A    between atoms: N_22  and  C_23
REMARK    7  A    between atoms: C_26  and  S_29
REMARK    8  A    between atoms: S_29  and  N_32
REMARK    9  A    between atoms: N_33  and  C_34
REMARK   10  A    between atoms: N_33  and  C_36
REMARK   11  A    between atoms: C_34  and  C_35
REMARK   12  A    between atoms: C_36  and  C_37
REMARK                            x       y       z     vdW  Elec       q    Type
REMARK                         _______ _______ _______ _____ _____    ______ ____
ROOT
ATOM      1  C   UNL     1       4.896  -0.289   1.144  0.00  0.00    +0.098 A 
ATOM      2  C   UNL     1       6.281  -0.388   1.138  0.00  0.00    +0.030 A 
ATOM      3  C   UNL     1       6.978  -0.104   2.339  0.00  0.00    +0.018 A 
ATOM      4  C   UNL     1       8.377   0.007   2.338  0.00  0.00    +0.013 A 
ATOM      5  C   UNL     1       9.035   0.322   3.489  0.00  0.00    +0.024 A 
ATOM      6  C   UNL     1       8.327   0.525   4.676  0.00  0.00    +0.033 A 
ATOM      7  C   UNL     1       6.944   0.400   4.700  0.00  0.00    +0.070 A 
ATOM      8  C   UNL     1       6.263   0.074   3.540  0.00  0.00    +0.139 A 
ATOM      9  O   UNL     1       4.917  -0.094   3.562  0.00  0.00    -0.438 OA
ATOM     10  C   UNL     1       4.252   0.144   2.399  0.00  0.00    +0.212 A 
ATOM     11  N   UNL     1       3.076   0.735   2.393  0.00  0.00    -0.325 N 
ATOM     12  H   UNL     1       2.671   1.000   1.552  0.00  0.00    +0.169 HD
ENDROOT
BRANCH  11  13
ATOM     13  C   UNL     1       2.425   0.976   3.571  0.00  0.00    +0.042 A 
ATOM     14  C   UNL     1       2.360  -0.017   4.552  0.00  0.00    +0.027 A 
ATOM     15  C   UNL     1       1.702   0.233   5.738  0.00  0.00    +0.030 A 
ATOM     16  C   UNL     1       1.107   1.462   5.957  0.00  0.00    +0.105 A 
ATOM     17  C   UNL     1       1.167   2.450   4.990  0.00  0.00    +0.030 A 
ATOM     18  C   UNL     1       1.827   2.217   3.802  0.00  0.00    +0.027 A 
BRANCH  16  19
ATOM     19  S   UNL     1       0.267   1.772   7.475  0.00  0.00    +0.056 S 
ATOM     20  O   UNL     1      -0.672   2.806   7.216  0.00  0.00    -0.153 OA
ATOM     21  O   UNL     1      -0.118   0.505   7.992  0.00  0.00    -0.153 OA
BRANCH  19  22
ATOM     22  N   UNL     1       1.379   2.396   8.532  0.00  0.00    -0.204 NA
ATOM     23  H   UNL     1       2.298   2.522   8.250  0.00  0.00    +0.144 HD
ATOM     24  H   UNL     1       1.111   2.635   9.433  0.00  0.00    +0.144 HD
ENDBRANCH  19  22
ENDBRANCH  16  19
ENDBRANCH  11  13
BRANCH   1  26
ATOM     25  N   UNL     1       2.756  -0.610   0.012  0.00  0.00    -0.281 N 
ATOM     26  C   UNL     1       4.102  -0.599  -0.055  0.00  0.00    +0.253 C 
ATOM     27  O   UNL     1       4.660  -0.845  -1.107  0.00  0.00    -0.270 OA
ATOM     28  H   UNL     1       2.310  -0.369   0.839  0.00  0.00    +0.155 HD
BRANCH  25  34
ATOM     29  C   UNL     1       0.696  -1.413  -0.958  0.00  0.00    -0.026 A 
ATOM     30  C   UNL     1      -0.047  -1.761  -2.069  0.00  0.00    +0.005 A 
ATOM     31  C   UNL     1       0.510  -1.673  -3.331  0.00  0.00    +0.000 A 
ATOM     32  C   UNL     1       1.814  -1.237  -3.485  0.00  0.00    +0.002 A 
ATOM     33  C   UNL     1       2.562  -0.887  -2.379  0.00  0.00    +0.023 A 
ATOM     34  C   UNL     1       2.003  -0.969  -1.110  0.00  0.00    +0.037 A 
BRANCH  29  36
ATOM     35  C   UNL     1      -0.485  -0.147   0.818  0.00  0.00    +0.009 C 
ATOM     36  C   UNL     1       0.087  -1.508   0.417  0.00  0.00    +0.033 C 
ENDBRANCH  29  36
ENDBRANCH  25  34
ENDBRANCH   1  26
BRANCH   6  37
ATOM     37  N   UNL     1       9.011   0.856   5.839  0.00  0.00    -0.330 N 
BRANCH  37  38
ATOM     38  C   UNL     1      10.470   0.989   5.819  0.00  0.00    +0.102 C 
ATOM     39  C   UNL     1      10.845   2.436   5.492  0.00  0.00    +0.024 C 
ENDBRANCH  37  38
BRANCH  37  40
ATOM     40  C   UNL     1       8.273   1.071   7.087  0.00  0.00    +0.102 C 
ATOM     41  C   UNL     1       8.149  -0.255   7.840  0.00  0.00    +0.024 C 
ENDBRANCH  37  40
ENDBRANCH   6  37
TORSDOF 9
