REMARK  Name = ZINC45289996
REMARK  9 active torsions:
REMARK  status: ('A' for Active; 'I' for Inactive)
REMARK    1  A    between atoms: C_1  and  C_2
REMARK    2  A    between atoms: C_4  and  C_28
REMARK    3  A    between atoms: C_6  and  S_8
REMARK    4  A    between atoms: S_8  and  C_9
REMARK    5  A    between atoms: C_10  and  C_19
REMARK    6  A    between atoms: C_11  and  C_18
REMARK    7  A    between atoms: C_19  and  N_20
REMARK    8  A    between atoms: C_23  and  O_26
REMARK    9  A    between atoms: O_26  and  C_27
REMARK                            x       y       z     vdW  Elec       q    Type
REMARK                         _______ _______ _______ _____ _____    ______ ____
ROOT
ATOM      1  C   UNL     1       0.203  -1.510   3.721  0.00  0.00    +0.034 A 
ATOM      2  C   UNL     1       0.272  -1.776   5.106  0.00  0.00    -0.030 A 
ATOM      3  C   UNL     1       0.303  -0.752   5.984  0.00  0.00    +0.018 A 
ATOM      4  N   UNL     1       0.269   0.538   5.555  0.00  0.00    -0.325 N 
ATOM      5  H   UNL     1       0.292   1.257   6.205  0.00  0.00    +0.169 HD
ATOM      6  C   UNL     1       0.204   0.834   4.244  0.00  0.00    +0.263 A 
ATOM      7  O   UNL     1       0.175   2.000   3.883  0.00  0.00    -0.267 OA
ATOM      8  C   UNL     1       0.175  -0.191   3.293  0.00  0.00    +0.091 A 
ATOM      9  I   UNL     1       0.082   0.260   1.249  0.00  0.00    -0.037 I 
ATOM     10  C   UNL     1       0.376  -1.043   7.461  0.00  0.00    +0.063 C 
ENDROOT
BRANCH   1  11
ATOM     11  S   UNL     1       0.162  -2.831   2.556  0.00  0.00    -0.088 S 
BRANCH  11  17
ATOM     12  C   UNL     1       3.549  -6.666   1.461  0.00  0.00    +0.044 C 
ATOM     13  C   UNL     1       3.251  -5.380   2.188  0.00  0.00    -0.049 A 
ATOM     14  C   UNL     1       4.218  -4.800   2.989  0.00  0.00    +0.006 A 
ATOM     15  C   UNL     1       3.949  -3.620   3.658  0.00  0.00    -0.049 A 
ATOM     16  C   UNL     1       2.713  -3.017   3.529  0.00  0.00    +0.018 A 
ATOM     17  C   UNL     1       1.740  -3.597   2.724  0.00  0.00    +0.013 A 
ATOM     18  C   UNL     1       2.015  -4.780   2.050  0.00  0.00    +0.018 A 
ATOM     19  C   UNL     1       5.005  -2.992   4.530  0.00  0.00    +0.044 C 
ENDBRANCH  11  17
ENDBRANCH   1  11
BRANCH   2  20
ATOM     20  C   UNL     1       0.310  -3.199   5.601  0.00  0.00    -0.040 C 
BRANCH  20  21
ATOM     21  N   UNL     1      -1.061  -3.715   5.714  0.00  0.00    +0.383 N 
ATOM     22  C   UNL     1      -1.671  -3.775   4.380  0.00  0.00    -0.076 C 
ATOM     23  C   UNL     1      -3.126  -4.235   4.501  0.00  0.00    +0.013 C 
ATOM     24  C   UNL     1      -3.165  -5.623   5.145  0.00  0.00    +0.114 C 
ATOM     25  C   UNL     1      -2.460  -5.565   6.503  0.00  0.00    +0.013 C 
ATOM     26  C   UNL     1      -1.030  -5.056   6.309  0.00  0.00    -0.076 C 
ATOM     27  H   UNL     1      -1.603  -3.100   6.302  0.00  0.00    -0.081 HD
BRANCH  24  28
ATOM     28  O   UNL     1      -4.523  -6.027   5.328  0.00  0.00    -0.380 OA
ATOM     29  C   UNL     1      -4.723  -7.441   5.264  0.00  0.00    +0.194 C 
ENDBRANCH  24  28
ENDBRANCH  20  21
ENDBRANCH   2  20
TORSDOF 5
