REMARK  Name = ZINC39686183
REMARK  8 active torsions:
REMARK  status: ('A' for Active; 'I' for Inactive)
REMARK    1  A    between atoms: C_1  and  C_2
REMARK    2  A    between atoms: C_2  and  C_3
REMARK    3  A    between atoms: C_2  and  C_4
REMARK    4  A    between atoms: C_4  and  C_5
REMARK    5  A    between atoms: C_10  and  N_13
REMARK    6  A    between atoms: C_14  and  C_16
REMARK    7  A    between atoms: C_27  and  C_29
REMARK    8  A    between atoms: C_32  and  C_35
REMARK                            x       y       z     vdW  Elec       q    Type
REMARK                         _______ _______ _______ _____ _____    ______ ____
ROOT
ATOM      1  C   UNL     1      -7.936  -5.083  -4.520  0.00  0.00    +0.100 C 
ATOM      2  C   UNL     1      -8.232  -5.867  -3.222  0.00  0.00    +0.121 C 
ATOM      3  N   UNL     1      -9.649  -5.559  -2.914  0.00  0.00    -0.296 N 
ATOM      4  C   UNL     1     -10.321  -5.557  -4.235  0.00  0.00    +0.115 C 
ATOM      5  C   UNL     1      -9.309  -4.886  -5.184  0.00  0.00    -0.004 C 
ATOM      6  C   UNL     1      -9.338  -5.562  -6.551  0.00  0.00    -0.010 C 
ATOM      7  C   UNL     1     -10.692  -5.302  -7.217  0.00  0.00    -0.082 C 
ATOM      8  N   UNL     1     -10.899  -3.856  -7.360  0.00  0.00    +0.379 N 
ATOM      9  C   UNL     1     -10.963  -3.226  -6.036  0.00  0.00    -0.082 C 
ATOM     10  C   UNL     1      -9.621  -3.398  -5.321  0.00  0.00    -0.010 C 
ATOM     11  C   UNL     1     -10.201  -5.332  -1.706  0.00  0.00    +0.247 C 
ATOM     12  O   UNL     1      -9.494  -5.243  -0.721  0.00  0.00    -0.270 OA
ATOM     13  H   UNL     1     -10.134  -3.458  -7.883  0.00  0.00    -0.086 HD
ATOM     14  H   UNL     1     -11.764  -3.689  -7.853  0.00  0.00    -0.086 HD
ENDROOT
BRANCH  11  15
ATOM     15  C   UNL     1     -11.667  -5.190  -1.577  0.00  0.00    +0.037 A 
ATOM     16  C   UNL     1     -12.510  -5.704  -2.565  0.00  0.00    +0.013 A 
ATOM     17  C   UNL     1     -13.877  -5.569  -2.439  0.00  0.00    +0.013 A 
ATOM     18  C   UNL     1     -14.413  -4.926  -1.337  0.00  0.00    +0.055 A 
ATOM     19  C   UNL     1     -13.584  -4.415  -0.355  0.00  0.00    +0.013 A 
ATOM     20  C   UNL     1     -12.215  -4.548  -0.466  0.00  0.00    +0.013 A 
BRANCH  18  21
ATOM     21  C   UNL     1     -15.908  -4.783  -1.207  0.00  0.00    +0.417 C 
ATOM     22  F   UNL     1     -16.424  -5.888  -0.522  0.00  0.00    -0.166 F 
ATOM     23  F   UNL     1     -16.203  -3.614  -0.497  0.00  0.00    -0.166 F 
ATOM     24  F   UNL     1     -16.482  -4.713  -2.481  0.00  0.00    -0.166 F 
ENDBRANCH  18  21
ENDBRANCH  11  15
BRANCH   1  26
ATOM     25  N   UNL     1      -6.551  -3.123  -5.117  0.00  0.00    -0.312 N 
ATOM     26  C   UNL     1      -7.312  -3.750  -4.198  0.00  0.00    +0.218 C 
ATOM     27  O   UNL     1      -7.494  -3.242  -3.112  0.00  0.00    -0.275 OA
ATOM     28  H   UNL     1      -6.406  -3.529  -5.986  0.00  0.00    +0.149 HD
BRANCH  25  34
ATOM     29  C   UNL     1      -4.812   1.863  -6.212  0.00  0.00    +0.216 C 
ATOM     30  O   UNL     1      -5.648   2.736  -6.308  0.00  0.00    -0.276 OA
ATOM     31  N   UNL     1      -5.053   0.780  -5.446  0.00  0.00    -0.301 N 
ATOM     32  C   UNL     1      -4.048  -0.283  -5.316  0.00  0.00    +0.109 C 
ATOM     33  C   UNL     1      -4.699  -1.624  -5.670  0.00  0.00    +0.041 C 
ATOM     34  C   UNL     1      -5.945  -1.827  -4.804  0.00  0.00    +0.076 C 
ATOM     35  C   UNL     1      -6.952  -0.710  -5.087  0.00  0.00    +0.041 C 
ATOM     36  C   UNL     1      -6.324   0.643  -4.722  0.00  0.00    +0.109 C 
BRANCH  29  37
ATOM     37  C   UNL     1      -3.504   1.988  -6.949  0.00  0.00    +0.099 C 
BRANCH  37  39
ATOM     38  C   UNL     1      -3.517   4.480  -6.764  0.00  0.00    +0.008 C 
ATOM     39  C   UNL     1      -3.486   3.299  -7.737  0.00  0.00    -0.008 C 
ATOM     40  C   UNL     1      -2.213   3.369  -8.583  0.00  0.00    +0.008 C 
ENDBRANCH  37  39
ENDBRANCH  29  37
ENDBRANCH  25  34
ENDBRANCH   1  26
TORSDOF 6
