REMARK  Name = ZINC13521298
REMARK  11 active torsions:
REMARK  status: ('A' for Active; 'I' for Inactive)
REMARK    1  A    between atoms: C_1  and  C_2
REMARK    2  A    between atoms: N_8  and  C_9
REMARK    3  A    between atoms: C_9  and  C_10
REMARK    4  A    between atoms: C_10  and  N_11
REMARK    5  A    between atoms: C_12  and  C_14
REMARK    6  A    between atoms: C_14  and  C_16
REMARK    7  A    between atoms: C_14  and  N_23
REMARK    8  A    between atoms: C_16  and  C_17
REMARK    9  A    between atoms: N_23  and  S_24
REMARK   10  A    between atoms: S_24  and  C_27
REMARK   11  A    between atoms: C_36  and  C_38
REMARK                            x       y       z     vdW  Elec       q    Type
REMARK                         _______ _______ _______ _____ _____    ______ ____
ROOT
ATOM      1  C   UNL     1       0.228   0.286   7.351  0.00  0.00    +0.166 C 
ENDROOT
BRANCH   1   3
ATOM      2  N   UNL     1       0.645  -0.094   4.942  0.00  0.00    -0.316 N 
ATOM      3  C   UNL     1       1.021  -0.313   6.218  0.00  0.00    +0.232 C 
ATOM      4  O   UNL     1       1.997  -0.993   6.454  0.00  0.00    -0.274 OA
ATOM      5  H   UNL     1      -0.136   0.449   4.753  0.00  0.00    +0.149 HD
BRANCH   2   6
ATOM      6  C   UNL     1       1.416  -0.677   3.841  0.00  0.00    +0.086 C 
BRANCH   6   7
ATOM      7  C   UNL     1       0.781  -0.278   2.507  0.00  0.00    -0.059 C 
BRANCH   7  14
ATOM      8  C   UNL     1       1.044   1.147   0.102  0.00  0.00    -0.013 C 
ATOM      9  C   UNL     1       1.017  -0.383   0.124  0.00  0.00    -0.072 C 
ATOM     10  C   UNL     1       1.870  -0.924  -1.026  0.00  0.00    -0.016 C 
ATOM     11  C   UNL     1       1.839  -2.455  -1.000  0.00  0.00    -0.003 C 
ATOM     12  C   UNL     1       2.331  -2.942   0.366  0.00  0.00    -0.019 C 
ATOM     13  C   UNL     1       1.461  -2.326   1.465  0.00  0.00    -0.078 C 
ATOM     14  N   UNL     1       1.554  -0.863   1.403  0.00  0.00    +0.382 N 
ATOM     15  H   UNL     1       2.520  -0.584   1.487  0.00  0.00    -0.081 HD
ENDBRANCH   7  14
ENDBRANCH   6   7
ENDBRANCH   2   6
ENDBRANCH   1   3
BRANCH   1  16
ATOM     16  N   UNL     1       0.836  -0.096   8.628  0.00  0.00    -0.178 NA
ATOM     17  H   UNL     1       0.616  -0.949   9.033  0.00  0.00    +0.149 HD
BRANCH  16  18
ATOM     18  S   UNL     1       1.897   0.929   9.379  0.00  0.00    +0.059 S 
ATOM     19  O   UNL     1       2.298   0.288  10.582  0.00  0.00    -0.153 OA
ATOM     20  O   UNL     1       2.829   1.346   8.390  0.00  0.00    -0.153 OA
BRANCH  18  21
ATOM     21  C   UNL     1       0.990   2.364   9.852  0.00  0.00    +0.106 A 
ATOM     22  C   UNL     1       0.796   3.391   8.947  0.00  0.00    +0.030 A 
ATOM     23  C   UNL     1       0.087   4.515   9.314  0.00  0.00    +0.026 A 
ATOM     24  C   UNL     1      -0.441   4.625  10.602  0.00  0.00    +0.040 A 
ATOM     25  C   UNL     1      -0.242   3.590  11.501  0.00  0.00    -0.023 A 
ATOM     26  C   UNL     1       0.465   2.463  11.127  0.00  0.00    +0.034 A 
ATOM     27  C   UNL     1      -0.908   3.954  12.809  0.00  0.00    +0.056 C 
ATOM     28  C   UNL     1      -1.524   5.340  12.557  0.00  0.00    +0.118 C 
ATOM     29  N   UNL     1      -1.182   5.666  11.170  0.00  0.00    -0.271 N 
ATOM     30  C   UNL     1      -1.529   6.803  10.535  0.00  0.00    +0.217 C 
ATOM     31  O   UNL     1      -1.275   6.942   9.357  0.00  0.00    -0.276 OA
ATOM     32  C   UNL     1      -2.233   7.902  11.289  0.00  0.00    +0.109 C 
ENDBRANCH  18  21
ENDBRANCH  16  18
ENDBRANCH   1  16
BRANCH   1  33
ATOM     33  C   UNL     1      -1.211  -0.231   7.295  0.00  0.00    +0.065 C 
BRANCH  33  34
ATOM     34  C   UNL     1      -2.036   0.467   8.347  0.00  0.00    -0.045 A 
ATOM     35  C   UNL     1      -2.064  -0.022   9.639  0.00  0.00    +0.004 A 
ATOM     36  C   UNL     1      -2.821   0.617  10.604  0.00  0.00    +0.000 A 
ATOM     37  C   UNL     1      -3.549   1.746  10.275  0.00  0.00    +0.000 A 
ATOM     38  C   UNL     1      -3.519   2.235   8.983  0.00  0.00    +0.000 A 
ATOM     39  C   UNL     1      -2.759   1.598   8.019  0.00  0.00    +0.004 A 
ENDBRANCH  33  34
ENDBRANCH   1  33
TORSDOF 9
