REMARK  Name = ZINC36485025
REMARK  9 active torsions:
REMARK  status: ('A' for Active; 'I' for Inactive)
REMARK    1  A    between atoms: C_3  and  C_8
REMARK    2  A    between atoms: C_5  and  O_7
REMARK    3  A    between atoms: C_8  and  C_10
REMARK    4  A    between atoms: C_8  and  N_19
REMARK    5  A    between atoms: N_12  and  C_13
REMARK    6  A    between atoms: N_19  and  C_20
REMARK    7  A    between atoms: C_27  and  C_29
REMARK    8  A    between atoms: C_33  and  O_36
REMARK    9  A    between atoms: C_34  and  O_35
REMARK                            x       y       z     vdW  Elec       q    Type
REMARK                         _______ _______ _______ _____ _____    ______ ____
ROOT
ATOM      1  N   UNL     1       3.593   3.593  -0.890  0.00  0.00    -0.251 N 
ATOM      2  C   UNL     1       4.806   3.657  -1.473  0.00  0.00    +0.255 C 
ATOM      3  O   UNL     1       4.902   3.964  -2.646  0.00  0.00    -0.269 OA
ENDROOT
BRANCH   1   4
ATOM      4  C   UNL     1       2.465   4.062  -1.570  0.00  0.00    +0.039 A 
ATOM      5  C   UNL     1       2.277   5.427  -1.749  0.00  0.00    +0.023 A 
ATOM      6  C   UNL     1       1.162   5.887  -2.421  0.00  0.00    +0.003 A 
ATOM      7  C   UNL     1       0.232   4.992  -2.916  0.00  0.00    +0.020 A 
ATOM      8  C   UNL     1       0.415   3.631  -2.740  0.00  0.00    +0.043 A 
ATOM      9  C   UNL     1       1.533   3.164  -2.074  0.00  0.00    +0.043 A 
ATOM     10 CL   UNL     1      -0.755   2.510  -3.364  0.00  0.00    -0.083 Cl
ENDBRANCH   1   4
BRANCH   2  11
ATOM     11  C   UNL     1       6.019   3.354  -0.689  0.00  0.00    +0.082 A 
ATOM     12  C   UNL     1       5.930   2.576   0.469  0.00  0.00    +0.017 A 
ATOM     13  C   UNL     1       7.064   2.296   1.199  0.00  0.00    +0.005 A 
ATOM     14  C   UNL     1       8.296   2.782   0.792  0.00  0.00    +0.049 A 
ATOM     15  C   UNL     1       8.400   3.554  -0.352  0.00  0.00    +0.159 A 
ATOM     16  C   UNL     1       7.264   3.840  -1.103  0.00  0.00    +0.171 A 
BRANCH  16  17
ATOM     17  O   UNL     1       7.363   4.592  -2.229  0.00  0.00    -0.503 OA
ATOM     18  H   UNL     1       7.265   5.542  -2.078  0.00  0.00    +0.292 HD
ENDBRANCH  16  17
BRANCH  15  19
ATOM     19  O   UNL     1       9.613   4.028  -0.745  0.00  0.00    -0.503 OA
ATOM     20  H   UNL     1      10.093   3.435  -1.339  0.00  0.00    +0.292 HD
ENDBRANCH  15  19
ENDBRANCH   2  11
BRANCH   1  21
ATOM     21  C   UNL     1       3.456   3.032   0.456  0.00  0.00    +0.198 C 
BRANCH  21  24
ATOM     22  C   UNL     1       0.170   4.520   1.574  0.00  0.00    +0.004 A 
ATOM     23  C   UNL     1       1.484   4.403   1.159  0.00  0.00    +0.006 A 
ATOM     24  C   UNL     1       2.024   3.155   0.909  0.00  0.00    -0.014 A 
ATOM     25  C   UNL     1       1.251   2.021   1.072  0.00  0.00    +0.051 A 
ATOM     26  C   UNL     1      -0.067   2.136   1.489  0.00  0.00    +0.117 A 
ATOM     27  C   UNL     1      -0.606   3.389   1.740  0.00  0.00    +0.045 A 
BRANCH  26  28
ATOM     28  O   UNL     1      -0.829   1.022   1.651  0.00  0.00    -0.507 OA
ATOM     29  H   UNL     1      -0.788   0.643   2.539  0.00  0.00    +0.292 HD
ENDBRANCH  26  28
ENDBRANCH  21  24
BRANCH  21  30
ATOM     30  C   UNL     1       4.350   3.785   1.408  0.00  0.00    +0.239 C 
ATOM     31  O   UNL     1       5.034   4.700   1.001  0.00  0.00    -0.273 OA
ATOM     32  N   UNL     1       4.389   3.441   2.710  0.00  0.00    -0.311 N 
ATOM     33  H   UNL     1       3.842   2.709   3.035  0.00  0.00    +0.149 HD
BRANCH  32  34
ATOM     34  C   UNL     1       5.258   4.173   3.635  0.00  0.00    +0.073 C 
ATOM     35  C   UNL     1       6.668   3.580   3.587  0.00  0.00    +0.022 C 
ATOM     36  C   UNL     1       7.575   4.345   4.553  0.00  0.00    +0.002 C 
ATOM     37  C   UNL     1       7.021   4.228   5.974  0.00  0.00    +0.000 C 
ATOM     38  C   UNL     1       5.611   4.821   6.022  0.00  0.00    +0.002 C 
ATOM     39  C   UNL     1       4.704   4.056   5.056  0.00  0.00    +0.022 C 
ENDBRANCH  32  34
ENDBRANCH  21  30
ENDBRANCH   1  21
TORSDOF 9
