REMARK  Name = ZINC35743211
REMARK  12 active torsions:
REMARK  status: ('A' for Active; 'I' for Inactive)
REMARK    1  A    between atoms: C_1  and  C_2
REMARK    2  A    between atoms: C_7  and  O_8
REMARK    3  A    between atoms: O_8  and  C_9
REMARK    4  A    between atoms: C_9  and  C_10
REMARK    5  A    between atoms: C_10  and  C_12
REMARK    6  A    between atoms: C_10  and  O_36
REMARK    7  A    between atoms: C_12  and  N_13
REMARK    8  A    between atoms: N_13  and  C_14
REMARK    9  A    between atoms: N_13  and  C_22
REMARK   10  A    between atoms: C_14  and  C_15
REMARK   11  A    between atoms: C_22  and  C_23
REMARK   12  A    between atoms: C_26  and  C_29
REMARK                            x       y       z     vdW  Elec       q    Type
REMARK                         _______ _______ _______ _____ _____    ______ ____
ROOT
ATOM      1  N   UNL     1       0.029   0.346   7.277  0.00  0.00    +0.387 N 
ATOM      2  H   UNL     1      -0.778   0.932   7.429  0.00  0.00    -0.081 HD
ENDROOT
BRANCH   1   3
ATOM      3  C   UNL     1      -0.255  -0.606   6.195  0.00  0.00    -0.043 C 
BRANCH   3   4
ATOM      4  C   UNL     1      -1.560  -1.346   6.496  0.00  0.00    +0.135 C 
BRANCH   4   5
ATOM      5  O   UNL     1      -1.371  -2.205   7.623  0.00  0.00    -0.390 OA
ATOM      6  H   UNL     1      -0.685  -2.875   7.497  0.00  0.00    +0.210 HD
ENDBRANCH   4   5
BRANCH   4   7
ATOM      7  C   UNL     1      -1.965  -2.183   5.281  0.00  0.00    +0.258 C 
BRANCH   7   8
ATOM      8  O   UNL     1      -3.240  -2.781   5.518  0.00  0.00    -0.489 OA
BRANCH   8  15
ATOM      9  C   UNL     1      -5.761  -3.975   5.967  0.00  0.00    +0.047 C 
ATOM     10  C   UNL     1      -4.983  -4.174   4.692  0.00  0.00    -0.009 A 
ATOM     11  C   UNL     1      -5.500  -4.963   3.683  0.00  0.00    +0.007 A 
ATOM     12  C   UNL     1      -4.787  -5.147   2.513  0.00  0.00    +0.000 A 
ATOM     13  C   UNL     1      -3.554  -4.542   2.350  0.00  0.00    +0.004 A 
ATOM     14  C   UNL     1      -3.032  -3.753   3.356  0.00  0.00    +0.046 A 
ATOM     15  C   UNL     1      -3.749  -3.562   4.529  0.00  0.00    +0.124 A 
ENDBRANCH   8  15
ENDBRANCH   7   8
ENDBRANCH   4   7
ENDBRANCH   3   4
ENDBRANCH   1   3
BRANCH   1  16
ATOM     16  C   UNL     1       1.178   1.182   6.904  0.00  0.00    -0.041 C 
BRANCH  16  17
ATOM     17  C   UNL     1       0.816   2.030   5.712  0.00  0.00    -0.046 A 
ATOM     18  C   UNL     1       1.263   1.678   4.452  0.00  0.00    +0.003 A 
ATOM     19  C   UNL     1       0.931   2.456   3.358  0.00  0.00    +0.000 A 
ATOM     20  C   UNL     1       0.152   3.586   3.524  0.00  0.00    +0.001 A 
ATOM     21  C   UNL     1      -0.295   3.939   4.783  0.00  0.00    +0.020 A 
ATOM     22  C   UNL     1       0.032   3.157   5.877  0.00  0.00    +0.042 A 
ATOM     23 CL   UNL     1      -0.535   3.596   7.458  0.00  0.00    -0.083 Cl
ENDBRANCH  16  17
ENDBRANCH   1  16
BRANCH   1  24
ATOM     24  C   UNL     1       0.340  -0.391   8.509  0.00  0.00    -0.030 C 
BRANCH  24  25
ATOM     25  C   UNL     1       0.573   0.600   9.651  0.00  0.00    +0.194 C 
ATOM     26  C   UNL     1       0.950  -0.140  10.957  0.00  0.00    +0.104 C 
ATOM     27  C   UNL     1       0.237   0.679  12.017  0.00  0.00    +0.092 C 
ATOM     28  N   UNL     1      -0.635   1.429  11.430  0.00  0.00    -0.089 NA
ATOM     29  O   UNL     1      -0.657   1.253  10.027  0.00  0.00    -0.392 OA
BRANCH  27  30
ATOM     30  C   UNL     1       0.495   0.627  13.469  0.00  0.00    +0.018 A 
ATOM     31  C   UNL     1       1.475  -0.229  13.977  0.00  0.00    +0.011 A 
ATOM     32  C   UNL     1       1.711  -0.272  15.335  0.00  0.00    +0.001 A 
ATOM     33  C   UNL     1       0.980   0.528  16.195  0.00  0.00    +0.001 A 
ATOM     34  C   UNL     1       0.008   1.378  15.700  0.00  0.00    +0.020 A 
ATOM     35  C   UNL     1      -0.236   1.437  14.341  0.00  0.00    +0.050 A 
ATOM     36 CL   UNL     1      -1.451   2.510  13.720  0.00  0.00    -0.083 Cl
ENDBRANCH  27  30
ENDBRANCH  24  25
ENDBRANCH   1  24
TORSDOF 11
