REMARK  Name = ZINC47043010
REMARK  8 active torsions:
REMARK  status: ('A' for Active; 'I' for Inactive)
REMARK    1  A    between atoms: C_1  and  C_2
REMARK    2  A    between atoms: C_2  and  C_3
REMARK    3  A    between atoms: C_2  and  C_4
REMARK    4  A    between atoms: C_4  and  C_6
REMARK    5  A    between atoms: C_4  and  C_25
REMARK    6  A    between atoms: C_6  and  N_7
REMARK    7  A    between atoms: C_16  and  C_18
REMARK    8  A    between atoms: C_21  and  O_24
REMARK                            x       y       z     vdW  Elec       q    Type
REMARK                         _______ _______ _______ _____ _____    ______ ____
ROOT
ATOM      1  N   UNL     1      -2.472   1.717  -0.737  0.00  0.00    -0.299 N 
ATOM      2  C   UNL     1      -2.925   2.429  -1.788  0.00  0.00    +0.302 C 
ATOM      3  O   UNL     1      -3.546   1.876  -2.674  0.00  0.00    -0.253 OA
ATOM      4  N   UNL     1      -2.688   3.754  -1.856  0.00  0.00    -0.283 N 
ATOM      5  C   UNL     1      -1.849   4.418  -0.849  0.00  0.00    +0.128 C 
ATOM      6  C   UNL     1      -0.713   5.157  -1.567  0.00  0.00    +0.127 C 
ATOM      7  N   UNL     1      -1.290   5.965  -2.651  0.00  0.00    -0.295 N 
ATOM      8  C   UNL     1      -2.130   5.301  -3.659  0.00  0.00    +0.127 C 
ATOM      9  C   UNL     1      -3.261   4.561  -2.943  0.00  0.00    +0.128 C 
ATOM     10  C   UNL     1      -1.054   7.290  -2.720  0.00  0.00    +0.247 C 
ATOM     11  O   UNL     1      -1.617   7.965  -3.560  0.00  0.00    -0.270 OA
ATOM     12  H   UNL     1      -2.038   2.169   0.004  0.00  0.00    +0.150 HD
ENDROOT
BRANCH  10  13
ATOM     13  C   UNL     1      -0.113   7.921  -1.774  0.00  0.00    +0.037 A 
ATOM     14  C   UNL     1       1.079   7.275  -1.435  0.00  0.00    +0.016 A 
ATOM     15  C   UNL     1       1.954   7.868  -0.553  0.00  0.00    +0.046 A 
ATOM     16  C   UNL     1       1.654   9.108  -0.001  0.00  0.00    +0.117 A 
ATOM     17  C   UNL     1       0.470   9.754  -0.335  0.00  0.00    +0.046 A 
ATOM     18  C   UNL     1      -0.409   9.170  -1.221  0.00  0.00    +0.016 A 
BRANCH  16  19
ATOM     19  O   UNL     1       2.519   9.688   0.869  0.00  0.00    -0.507 OA
ATOM     20  H   UNL     1       3.179  10.256   0.447  0.00  0.00    +0.292 HD
ENDBRANCH  16  19
ENDBRANCH  10  13
BRANCH   1  21
ATOM     21  C   UNL     1      -2.635   0.262  -0.713  0.00  0.00    +0.114 C 
BRANCH  21  22
ATOM     22  C   UNL     1      -1.933  -0.310   0.520  0.00  0.00    +0.039 C 
BRANCH  22  23
ATOM     23  C   UNL     1      -2.611   0.199   1.766  0.00  0.00    -0.043 A 
ATOM     24  C   UNL     1      -3.946  -0.080   1.990  0.00  0.00    +0.004 A 
ATOM     25  C   UNL     1      -4.568   0.388   3.132  0.00  0.00    +0.000 A 
ATOM     26  C   UNL     1      -3.854   1.133   4.052  0.00  0.00    +0.000 A 
ATOM     27  C   UNL     1      -2.518   1.411   3.829  0.00  0.00    +0.000 A 
ATOM     28  C   UNL     1      -1.896   0.940   2.689  0.00  0.00    +0.004 A 
ENDBRANCH  22  23
BRANCH  22  30
ATOM     29  C   UNL     1      -1.218  -2.361  -0.715  0.00  0.00    +0.008 C 
ATOM     30  C   UNL     1      -2.007  -1.838   0.487  0.00  0.00    -0.008 C 
ATOM     31  C   UNL     1      -1.410  -2.406   1.776  0.00  0.00    +0.008 C 
ENDBRANCH  22  30
ENDBRANCH  21  22
ENDBRANCH   1  21
TORSDOF 6
