REMARK  Name = ZINC00126508
REMARK  2 active torsions:
REMARK  status: ('A' for Active; 'I' for Inactive)
REMARK    1  A    between atoms: C_4  and  C_7
REMARK    2  A    between atoms: C_15  and  C_17
REMARK                            x       y       z     vdW  Elec       q    Type
REMARK                         _______ _______ _______ _____ _____    ______ ____
ROOT
ATOM      1  C   UNL     1       3.698  -0.688  -0.038  0.00  0.00    +0.005 A 
ATOM      2  C   UNL     1       4.659  -0.359  -0.937  0.00  0.00    +0.056 A 
ATOM      3  S   UNL     1       5.985  -1.487  -0.553  0.00  0.00    -0.076 S 
ATOM      4  C   UNL     1       5.228  -2.364   0.790  0.00  0.00    +0.119 A 
ATOM      5  C   UNL     1       3.965  -1.758   0.914  0.00  0.00    +0.100 A 
ATOM      6  C   UNL     1       3.127  -2.281   1.950  0.00  0.00    +0.349 A 
ATOM      7  O   UNL     1       2.012  -1.825   2.133  0.00  0.00    -0.244 OA
ATOM      8  O   UNL     1       3.588  -3.284   2.717  0.00  0.00    -0.403 OA
ATOM      9  C   UNL     1       4.814  -3.804   2.533  0.00  0.00    +0.232 A 
ATOM     10  N   UNL     1       5.608  -3.356   1.586  0.00  0.00    -0.204 NA
ENDROOT
BRANCH   1  14
ATOM     11  C   UNL     1      -0.017   1.379   0.010  0.00  0.00    +0.000 A 
ATOM     12  C   UNL     1       1.169   2.092   0.002  0.00  0.00    +0.001 A 
ATOM     13  C   UNL     1       2.377   1.427  -0.013  0.00  0.00    +0.008 A 
ATOM     14  C   UNL     1       2.403   0.033  -0.021  0.00  0.00    -0.017 A 
ATOM     15  C   UNL     1       1.205  -0.680  -0.013  0.00  0.00    +0.008 A 
ATOM     16  C   UNL     1       0.002  -0.004   0.002  0.00  0.00    +0.001 A 
ENDBRANCH   1  14
BRANCH   9  17
ATOM     17  C   UNL     1       5.273  -4.904   3.403  0.00  0.00    +0.037 A 
ATOM     18  C   UNL     1       6.546  -5.452   3.230  0.00  0.00    +0.013 A 
ATOM     19  C   UNL     1       6.968  -6.480   4.047  0.00  0.00    +0.001 A 
ATOM     20  C   UNL     1       6.133  -6.969   5.036  0.00  0.00    +0.000 A 
ATOM     21  C   UNL     1       4.871  -6.431   5.214  0.00  0.00    +0.001 A 
ATOM     22  C   UNL     1       4.438  -5.399   4.408  0.00  0.00    +0.013 A 
ENDBRANCH   9  17
TORSDOF 2
