REMARK  Name = ZINC44966601
REMARK  6 active torsions:
REMARK  status: ('A' for Active; 'I' for Inactive)
REMARK    1  A    between atoms: C_5  and  C_7
REMARK    2  A    between atoms: C_7  and  C_9
REMARK    3  A    between atoms: C_7  and  N_21
REMARK    4  A    between atoms: C_9  and  N_10
REMARK    5  A    between atoms: N_13  and  C_14
REMARK    6  A    between atoms: C_14  and  C_15
REMARK                            x       y       z     vdW  Elec       q    Type
REMARK                         _______ _______ _______ _____ _____    ______ ____
ROOT
ATOM      1  C   UNL     1       1.226  -2.194  -0.016  0.00  0.00    -0.019 C 
ENDROOT
BRANCH   1   6
ATOM      2  C   UNL     1      -0.482   1.161  -0.299  0.00  0.00    +0.000 A 
ATOM      3  C   UNL     1       0.601   2.019  -0.358  0.00  0.00    +0.001 A 
ATOM      4  C   UNL     1       1.886   1.514  -0.307  0.00  0.00    +0.020 A 
ATOM      5  C   UNL     1       2.089   0.150  -0.197  0.00  0.00    +0.043 A 
ATOM      6  C   UNL     1       1.006  -0.708  -0.137  0.00  0.00    -0.041 A 
ATOM      7  C   UNL     1      -0.280  -0.202  -0.188  0.00  0.00    +0.003 A 
ATOM      8 CL   UNL     1       3.704  -0.485  -0.133  0.00  0.00    -0.083 Cl
ENDBRANCH   1   6
BRANCH   1   9
ATOM      9  N   UNL     1       0.007  -2.830   0.500  0.00  0.00    +0.385 N 
ATOM     10  C   UNL     1      -0.298  -2.301   1.847  0.00  0.00    -0.078 C 
ATOM     11  C   UNL     1      -0.870  -3.511   2.627  0.00  0.00    -0.020 C 
ATOM     12  C   UNL     1      -0.001  -4.675   2.081  0.00  0.00    -0.020 C 
ATOM     13  C   UNL     1       0.212  -4.286   0.603  0.00  0.00    -0.078 C 
ATOM     14  H   UNL     1      -0.765  -2.639  -0.121  0.00  0.00    -0.081 HD
ENDBRANCH   1   9
BRANCH   1  15
ATOM     15  C   UNL     1       1.560  -2.773  -1.393  0.00  0.00    +0.095 C 
BRANCH  15  16
ATOM     16  N   UNL     1       0.406  -2.615  -2.282  0.00  0.00    -0.301 N 
ATOM     17  C   UNL     1       0.430  -3.150  -3.518  0.00  0.00    +0.300 C 
ATOM     18  O   UNL     1       1.409  -3.764  -3.896  0.00  0.00    -0.253 OA
ATOM     19  N   UNL     1      -0.631  -3.004  -4.336  0.00  0.00    -0.294 N 
ATOM     20  H   UNL     1      -0.374  -2.124  -1.980  0.00  0.00    +0.150 HD
ATOM     21  H   UNL     1      -1.412  -2.514  -4.035  0.00  0.00    +0.151 HD
BRANCH  19  22
ATOM     22  C   UNL     1      -0.605  -3.586  -5.681  0.00  0.00    +0.163 C 
BRANCH  22  23
ATOM     23  C   UNL     1      -1.902  -3.283  -6.385  0.00  0.00    +0.080 A 
ATOM     24  C   UNL     1      -2.131  -2.213  -7.257  0.00  0.00    +0.045 A 
ATOM     25  C   UNL     1      -3.415  -2.288  -7.678  0.00  0.00    +0.105 A 
ATOM     26  N   UNL     1      -3.978  -3.365  -7.093  0.00  0.00    -0.284 N 
ATOM     27  H   UNL     1      -4.893  -3.666  -7.211  0.00  0.00    +0.188 HD
ATOM     28  N   UNL     1      -3.007  -3.977  -6.290  0.00  0.00    -0.177 NA
ENDBRANCH  22  23
ENDBRANCH  19  22
ENDBRANCH  15  16
ENDBRANCH   1  15
TORSDOF 6
