REMARK  Name = ZINC04343421
REMARK  4 active torsions:
REMARK  status: ('A' for Active; 'I' for Inactive)
REMARK    1  A    between atoms: C_1  and  O_2
REMARK    2  A    between atoms: O_2  and  C_3
REMARK    3  A    between atoms: C_8  and  C_9
REMARK    4  A    between atoms: C_15  and  C_26
REMARK                            x       y       z     vdW  Elec       q    Type
REMARK                         _______ _______ _______ _____ _____    ______ ____
ROOT
ATOM      1  C   UNL     1      -1.955   2.437   3.421  0.00  0.00    +0.087 C 
ATOM      2  C   UNL     1      -3.405   2.848   3.787  0.00  0.00    +0.177 C 
ATOM      3  N   UNL     1      -3.251   3.647   5.011  0.00  0.00    -0.191 NA
ATOM      4  N   UNL     1      -2.143   3.510   5.537  0.00  0.00    -0.173 NA
ATOM      5  C   UNL     1      -1.282   2.592   4.798  0.00  0.00    +0.193 C 
ATOM      6  C   UNL     1       0.129   3.154   4.641  0.00  0.00    +0.241 C 
ATOM      7  O   UNL     1       0.938   2.219   3.925  0.00  0.00    -0.481 OA
ATOM      8  C   UNL     1       0.973   0.931   4.337  0.00  0.00    +0.132 A 
ATOM      9  C   UNL     1       2.052   0.125   3.996  0.00  0.00    +0.046 A 
ATOM     10  C   UNL     1       2.088  -1.193   4.402  0.00  0.00    +0.004 A 
ATOM     11  C   UNL     1       1.054  -1.732   5.152  0.00  0.00    +0.001 A 
ATOM     12  C   UNL     1      -0.024  -0.950   5.507  0.00  0.00    +0.015 A 
ATOM     13  C   UNL     1      -0.068   0.386   5.106  0.00  0.00    +0.062 A 
ATOM     14  C   UNL     1      -1.200   1.251   5.488  0.00  0.00    +0.200 C 
ATOM     15  O   UNL     1      -2.021   0.904   6.311  0.00  0.00    -0.289 OA
ENDROOT
BRANCH   1  21
ATOM     16  C   UNL     1      -1.997   4.575   2.111  0.00  0.00    +0.124 A 
ATOM     17  C   UNL     1      -1.441   5.444   1.183  0.00  0.00    +0.046 A 
ATOM     18  C   UNL     1      -0.255   5.116   0.555  0.00  0.00    +0.004 A 
ATOM     19  C   UNL     1       0.378   3.922   0.850  0.00  0.00    +0.001 A 
ATOM     20  C   UNL     1      -0.175   3.054   1.774  0.00  0.00    +0.007 A 
ATOM     21  C   UNL     1      -1.357   3.381   2.409  0.00  0.00    +0.002 A 
BRANCH  16  23
ATOM     22  C   UNL     1      -3.763   6.144   2.378  0.00  0.00    +0.277 C 
ATOM     23  O   UNL     1      -3.163   4.895   2.730  0.00  0.00    -0.495 OA
ENDBRANCH  16  23
ENDBRANCH   1  21
BRANCH   6  24
ATOM     24  C   UNL     1       0.070   4.453   3.880  0.00  0.00    -0.004 A 
ATOM     25  C   UNL     1       1.067   4.771   2.977  0.00  0.00    +0.007 A 
ATOM     26  C   UNL     1       1.011   5.961   2.276  0.00  0.00    +0.000 A 
ATOM     27  C   UNL     1      -0.037   6.837   2.485  0.00  0.00    +0.000 A 
ATOM     28  C   UNL     1      -1.032   6.521   3.392  0.00  0.00    +0.000 A 
ATOM     29  C   UNL     1      -0.978   5.330   4.090  0.00  0.00    +0.007 A 
ENDBRANCH   6  24
TORSDOF 3
