REMARK  Name = ZINC09258583
REMARK  13 active torsions:
REMARK  status: ('A' for Active; 'I' for Inactive)
REMARK    1  A    between atoms: C_1  and  C_2
REMARK    2  A    between atoms: C_3  and  C_35
REMARK    3  A    between atoms: C_11  and  C_13
REMARK    4  A    between atoms: C_13  and  C_15
REMARK    5  A    between atoms: C_13  and  O_16
REMARK    6  A    between atoms: O_16  and  C_17
REMARK    7  A    between atoms: C_17  and  C_19
REMARK    8  A    between atoms: C_19  and  C_21
REMARK    9  A    between atoms: C_19  and  N_25
REMARK   10  A    between atoms: C_21  and  C_22
REMARK   11  A    between atoms: C_22  and  C_23
REMARK   12  A    between atoms: C_22  and  C_24
REMARK   13  A    between atoms: C_26  and  C_28
REMARK                            x       y       z     vdW  Elec       q    Type
REMARK                         _______ _______ _______ _____ _____    ______ ____
ROOT
ATOM      1  C   UNL     1       2.344   0.863   0.585  0.00  0.00    +0.328 C 
ATOM      2  O   UNL     1       2.099  -0.256   0.969  0.00  0.00    -0.249 OA
ENDROOT
BRANCH   1   3
ATOM      3  O   UNL     1       3.592   1.347   0.679  0.00  0.00    -0.452 OA
BRANCH   3   4
ATOM      4  C   UNL     1       4.597   0.470   1.253  0.00  0.00    +0.239 C 
ATOM      5  C   UNL     1       5.250  -0.354   0.142  0.00  0.00    +0.060 C 
BRANCH   4  16
ATOM      6  C   UNL     1       8.619   4.277   5.033  0.00  0.00    +0.045 C 
ATOM      7  C   UNL     1       8.702   3.555   3.713  0.00  0.00    -0.026 A 
ATOM      8  C   UNL     1       9.829   3.600   2.985  0.00  0.00    -0.008 A 
ATOM      9  S   UNL     1       9.433   2.618   1.550  0.00  0.00    -0.073 S 
ATOM     10  C   UNL     1       7.767   2.177   1.970  0.00  0.00    +0.116 A 
ATOM     11  C   UNL     1       7.565   2.805   3.213  0.00  0.00    +0.075 A 
ATOM     12  C   UNL     1       6.273   2.613   3.801  0.00  0.00    +0.260 A 
ATOM     13  O   UNL     1       6.002   3.117   4.878  0.00  0.00    -0.267 OA
ATOM     14  N   UNL     1       5.364   1.867   3.147  0.00  0.00    -0.307 N 
ATOM     15  H   UNL     1       4.487   1.734   3.541  0.00  0.00    +0.170 HD
ATOM     16  C   UNL     1       5.648   1.298   1.948  0.00  0.00    +0.152 A 
ATOM     17  N   UNL     1       6.818   1.450   1.388  0.00  0.00    -0.223 NA
ATOM     18  C   UNL     1      11.120   4.310   3.303  0.00  0.00    +0.052 C 
ENDBRANCH   4  16
ENDBRANCH   3   4
ENDBRANCH   1   3
BRANCH   1  19
ATOM     19  C   UNL     1       1.248   1.716  -0.001  0.00  0.00    +0.182 C 
BRANCH  19  20
ATOM     20  N   UNL     1      -0.011   0.966   0.007  0.00  0.00    -0.298 N 
ATOM     21  C   UNL     1      -1.187   1.624   0.017  0.00  0.00    +0.245 C 
ATOM     22  O   UNL     1      -1.204   2.839   0.023  0.00  0.00    -0.270 OA
ATOM     23  H   UNL     1       0.002  -0.004   0.002  0.00  0.00    +0.150 HD
BRANCH  21  24
ATOM     24  C   UNL     1      -2.457   0.868   0.018  0.00  0.00    +0.037 A 
ATOM     25  C   UNL     1      -2.441  -0.528   0.005  0.00  0.00    +0.014 A 
ATOM     26  C   UNL     1      -3.629  -1.229   0.014  0.00  0.00    +0.021 A 
ATOM     27  C   UNL     1      -4.837  -0.550   0.023  0.00  0.00    +0.041 A 
ATOM     28  C   UNL     1      -4.859   0.835   0.030  0.00  0.00    +0.021 A 
ATOM     29  C   UNL     1      -3.677   1.546   0.028  0.00  0.00    +0.014 A 
ATOM     30 CL   UNL     1      -6.328  -1.438   0.025  0.00  0.00    -0.084 Cl
ENDBRANCH  21  24
ENDBRANCH  19  20
BRANCH  19  31
ATOM     31  C   UNL     1       1.608   2.092  -1.439  0.00  0.00    +0.036 C 
BRANCH  31  32
ATOM     32  C   UNL     1       0.558   3.058  -1.992  0.00  0.00    -0.015 C 
ATOM     33  C   UNL     1       0.607   4.370  -1.205  0.00  0.00    +0.007 C 
ATOM     34  C   UNL     1       0.848   3.337  -3.468  0.00  0.00    +0.007 C 
ENDBRANCH  31  32
ENDBRANCH  19  31
ENDBRANCH   1  19
TORSDOF 8
