REMARK  Name = ZINC39883778
REMARK  7 active torsions:
REMARK  status: ('A' for Active; 'I' for Inactive)
REMARK    1  A    between atoms: C_1  and  C_2
REMARK    2  A    between atoms: C_2  and  C_3
REMARK    3  A    between atoms: C_2  and  C_4
REMARK    4  A    between atoms: C_10  and  C_13
REMARK    5  A    between atoms: C_13  and  C_14
REMARK    6  A    between atoms: N_16  and  C_17
REMARK    7  A    between atoms: C_18  and  C_26
REMARK                            x       y       z     vdW  Elec       q    Type
REMARK                         _______ _______ _______ _____ _____    ______ ____
ROOT
ATOM      1  C   UNL     1      -1.008  -4.583   3.896  0.00  0.00    +0.222 C 
ATOM      2  O   UNL     1      -0.064  -4.951   3.230  0.00  0.00    -0.275 OA
ATOM      3  N   UNL     1      -2.116  -5.346   3.974  0.00  0.00    -0.279 N 
ATOM      4  H   UNL     1      -2.871  -5.051   4.507  0.00  0.00    +0.155 HD
ENDROOT
BRANCH   3   5
ATOM      5  C   UNL     1      -2.177  -6.551   3.292  0.00  0.00    +0.084 A 
ATOM      6  C   UNL     1      -3.227  -7.455   3.252  0.00  0.00    +0.068 A 
ATOM      7  C   UNL     1      -3.040  -8.656   2.456  0.00  0.00    -0.023 A 
ATOM      8  C   UNL     1      -1.837  -8.733   1.848  0.00  0.00    -0.004 A 
ATOM      9  S   UNL     1      -0.999  -7.248   2.320  0.00  0.00    -0.077 S 
ATOM     10  C   UNL     1      -1.343  -9.839   0.967  0.00  0.00    +0.043 C 
ATOM     11  C   UNL     1      -2.262 -11.055   1.159  0.00  0.00    +0.005 C 
ATOM     12  C   UNL     1      -3.720 -10.594   1.067  0.00  0.00    +0.005 C 
ATOM     13  C   UNL     1      -4.080  -9.755   2.295  0.00  0.00    +0.037 C 
BRANCH   6  14
ATOM     14  C   UNL     1      -4.475  -7.209   3.982  0.00  0.00    +0.244 C 
ATOM     15  O   UNL     1      -5.388  -6.612   3.442  0.00  0.00    -0.270 OA
ATOM     16  N   UNL     1      -4.611  -7.646   5.250  0.00  0.00    -0.325 N 
ATOM     17  H   UNL     1      -3.884  -8.122   5.679  0.00  0.00    +0.145 HD
ATOM     18  H   UNL     1      -5.437  -7.483   5.732  0.00  0.00    +0.145 HD
ENDBRANCH   6  14
ENDBRANCH   3   5
BRANCH   1  19
ATOM     19  C   UNL     1      -0.941  -3.272   4.637  0.00  0.00    +0.135 C 
BRANCH  19  26
ATOM     20  C   UNL     1       0.731  -0.503   1.223  0.00  0.00    -0.044 A 
ATOM     21  C   UNL     1       2.055  -0.144   1.430  0.00  0.00    +0.007 A 
ATOM     22  C   UNL     1       2.739  -0.590   2.541  0.00  0.00    +0.047 A 
ATOM     23  C   UNL     1       2.100  -1.409   3.464  0.00  0.00    +0.135 A 
ATOM     24  C   UNL     1       0.759  -1.768   3.248  0.00  0.00    +0.024 A 
ATOM     25  C   UNL     1       0.082  -1.303   2.122  0.00  0.00    +0.015 A 
ATOM     26  C   UNL     1       0.394  -2.620   4.386  0.00  0.00    +0.007 A 
ATOM     27  C   UNL     1       1.487  -2.702   5.157  0.00  0.00    +0.200 A 
ATOM     28  O   UNL     1       2.490  -1.990   4.615  0.00  0.00    -0.463 OA
BRANCH  20  30
ATOM     29  C   UNL     1      -0.019   1.526   0.010  0.00  0.00    +0.012 C 
ATOM     30  C   UNL     1       0.002  -0.004   0.002  0.00  0.00    +0.013 C 
ATOM     31  C   UNL     1       0.718  -0.497  -1.257  0.00  0.00    +0.012 C 
ENDBRANCH  20  30
ENDBRANCH  19  26
ENDBRANCH   1  19
TORSDOF 5
