REMARK  Name = ZINC55211810
REMARK  11 active torsions:
REMARK  status: ('A' for Active; 'I' for Inactive)
REMARK    1  A    between atoms: C_1  and  C_2
REMARK    2  A    between atoms: C_2  and  C_3
REMARK    3  A    between atoms: C_2  and  C_4
REMARK    4  A    between atoms: C_2  and  C_28
REMARK    5  A    between atoms: C_4  and  N_5
REMARK    6  A    between atoms: C_6  and  C_8
REMARK    7  A    between atoms: C_8  and  C_9
REMARK    8  A    between atoms: N_16  and  C_17
REMARK    9  A    between atoms: C_17  and  C_18
REMARK   10  A    between atoms: C_23  and  C_24
REMARK   11  A    between atoms: C_28  and  O_29
REMARK                            x       y       z     vdW  Elec       q    Type
REMARK                         _______ _______ _______ _____ _____    ______ ____
ROOT
ATOM      1  C   UNL     1      -5.611  -0.666   2.605  0.00  0.00    +0.152 C 
ATOM      2  C   UNL     1      -6.396  -0.275   3.825  0.00  0.00    +0.231 C 
ATOM      3  O   UNL     1      -5.889  -0.427   4.916  0.00  0.00    -0.274 OA
ATOM      4  N   UNL     1      -7.631   0.234   3.757  0.00  0.00    -0.313 N 
ATOM      5  C   UNL     1      -8.316   0.491   2.494  0.00  0.00    +0.119 C 
ATOM      6  C   UNL     1      -7.646  -0.295   1.365  0.00  0.00    +0.104 C 
ATOM      7  N   UNL     1      -6.197  -0.041   1.411  0.00  0.00    -0.285 NA
ATOM      8  H   UNL     1      -8.092   0.442   4.585  0.00  0.00    +0.149 HD
ENDROOT
BRANCH   1   9
ATOM      9  C   UNL     1      -4.162  -0.199   2.763  0.00  0.00    +0.124 C 
BRANCH   9  11
ATOM     10  N   UNL     1      -2.272  -0.622   4.301  0.00  0.00    -0.315 N 
ATOM     11  C   UNL     1      -3.509  -0.961   3.887  0.00  0.00    +0.215 C 
ATOM     12  O   UNL     1      -4.096  -1.879   4.419  0.00  0.00    -0.276 OA
ATOM     13  H   UNL     1      -1.802   0.113   3.875  0.00  0.00    +0.149 HD
BRANCH  10  14
ATOM     14  C   UNL     1      -1.636  -1.362   5.394  0.00  0.00    +0.112 C 
BRANCH  14  16
ATOM     15  C   UNL     1       0.610  -0.897   4.403  0.00  0.00    +0.015 C 
ATOM     16  C   UNL     1      -0.247  -0.780   5.665  0.00  0.00    +0.004 C 
ATOM     17  C   UNL     1      -0.380   0.693   6.056  0.00  0.00    +0.015 C 
BRANCH  16  18
ATOM     18  C   UNL     1       0.416  -1.554   6.806  0.00  0.00    +0.163 C 
BRANCH  18  19
ATOM     19  O   UNL     1       1.713  -1.010   7.059  0.00  0.00    -0.394 OA
ATOM     20  H   UNL     1       2.193  -1.453   7.772  0.00  0.00    +0.209 HD
ENDBRANCH  18  19
ENDBRANCH  16  18
ENDBRANCH  14  16
ENDBRANCH  10  14
ENDBRANCH   9  11
ENDBRANCH   1   9
BRANCH   7  21
ATOM     21  C   UNL     1      -5.541  -0.524   0.189  0.00  0.00    +0.121 C 
BRANCH  21  22
ATOM     22  C   UNL     1      -6.026   0.277  -0.992  0.00  0.00    -0.022 A 
ATOM     23  C   UNL     1      -7.006  -0.237  -1.820  0.00  0.00    +0.005 A 
ATOM     24  C   UNL     1      -7.452   0.497  -2.903  0.00  0.00    +0.000 A 
ATOM     25  C   UNL     1      -6.918   1.747  -3.157  0.00  0.00    +0.001 A 
ATOM     26  C   UNL     1      -5.939   2.262  -2.328  0.00  0.00    +0.013 A 
ATOM     27  C   UNL     1      -5.497   1.529  -1.242  0.00  0.00    +0.059 A 
BRANCH  27  28
ATOM     28  C   UNL     1      -4.433   2.093  -0.336  0.00  0.00    +0.418 C 
ATOM     29  F   UNL     1      -4.058   3.361  -0.790  0.00  0.00    -0.166 F 
ATOM     30  F   UNL     1      -4.936   2.193   0.966  0.00  0.00    -0.166 F 
ATOM     31  F   UNL     1      -3.319   1.247  -0.341  0.00  0.00    -0.166 F 
ENDBRANCH  27  28
ENDBRANCH  21  22
ENDBRANCH   7  21
TORSDOF 9
