REMARK  Name = ZINC38785441
REMARK  10 active torsions:
REMARK  status: ('A' for Active; 'I' for Inactive)
REMARK    1  A    between atoms: C_1  and  C_2
REMARK    2  A    between atoms: C_5  and  N_9
REMARK    3  A    between atoms: C_10  and  C_12
REMARK    4  A    between atoms: C_12  and  C_14
REMARK    5  A    between atoms: C_12  and  S_15
REMARK    6  A    between atoms: S_15  and  C_16
REMARK    7  A    between atoms: C_21  and  C_26
REMARK    8  A    between atoms: C_29  and  C_32
REMARK    9  A    between atoms: C_32  and  C_33
REMARK   10  A    between atoms: C_32  and  C_34
REMARK                            x       y       z     vdW  Elec       q    Type
REMARK                         _______ _______ _______ _____ _____    ______ ____
ROOT
ATOM      1  C   UNL     1      -0.199  -8.774   2.465  0.00  0.00    +0.182 C 
ATOM      2  N   UNL     1       0.237  -9.238   1.306  0.00  0.00    -0.151 NA
ATOM      3  C   UNL     1       0.331 -10.541   1.044  0.00  0.00    +0.272 C 
ATOM      4  O   UNL     1       0.738 -10.937  -0.037  0.00  0.00    -0.268 OA
ATOM      5  C   UNL     1      -0.076 -11.504   2.110  0.00  0.00    +0.075 C 
ATOM      6  C   UNL     1      -0.064 -12.874   2.067  0.00  0.00    -0.015 C 
ATOM      7  C   UNL     1      -0.533 -13.608   3.302  0.00  0.00    +0.112 C 
ATOM      8  S   UNL     1      -0.955 -12.220   4.431  0.00  0.00    -0.100 S 
ATOM      9  C   UNL     1      -0.544 -10.871   3.355  0.00  0.00    +0.112 C 
ATOM     10  N   UNL     1      -0.576  -9.565   3.468  0.00  0.00    -0.217 NA
ENDROOT
BRANCH   6  11
ATOM     11  C   UNL     1       0.384 -13.596   0.874  0.00  0.00    -0.020 A 
ATOM     12  C   UNL     1      -0.335 -13.490  -0.325  0.00  0.00    +0.008 A 
ATOM     13  C   UNL     1       0.095 -14.172  -1.443  0.00  0.00    +0.004 A 
ATOM     14  C   UNL     1       1.232 -14.961  -1.383  0.00  0.00    -0.045 A 
ATOM     15  C   UNL     1       1.947 -15.072  -0.203  0.00  0.00    +0.004 A 
ATOM     16  C   UNL     1       1.536 -14.392   0.923  0.00  0.00    +0.008 A 
BRANCH  14  17
ATOM     17  C   UNL     1       1.692 -15.704  -2.611  0.00  0.00    +0.013 C 
ATOM     18  C   UNL     1       3.102 -15.243  -2.986  0.00  0.00    +0.012 C 
ATOM     19  C   UNL     1       1.706 -17.206  -2.323  0.00  0.00    +0.012 C 
ENDBRANCH  14  17
ENDBRANCH   6  11
BRANCH   1  20
ATOM     20  S   UNL     1      -0.280  -7.029   2.695  0.00  0.00    -0.076 S 
BRANCH  20  21
ATOM     21  C   UNL     1       0.310  -6.351   1.119  0.00  0.00    +0.137 C 
ATOM     22  C   UNL     1       1.779  -6.730   0.918  0.00  0.00    +0.029 C 
BRANCH  21  24
ATOM     23  N   UNL     1       0.059  -4.170  -0.022  0.00  0.00    -0.285 N 
ATOM     24  C   UNL     1       0.176  -4.850   1.136  0.00  0.00    +0.230 C 
ATOM     25  O   UNL     1       0.174  -4.254   2.192  0.00  0.00    -0.274 OA
ATOM     26  H   UNL     1      -0.015  -4.651  -0.861  0.00  0.00    +0.155 HD
BRANCH  23  31
ATOM     27  C   UNL     1       0.009   1.503   0.012  0.00  0.00    +0.045 C 
ATOM     28  C   UNL     1       0.022  -0.004   0.003  0.00  0.00    -0.032 A 
ATOM     29  C   UNL     1       0.777  -0.693   0.934  0.00  0.00    +0.006 A 
ATOM     30  C   UNL     1       0.792  -2.074   0.928  0.00  0.00    +0.023 A 
ATOM     31  C   UNL     1       0.046  -2.771  -0.014  0.00  0.00    +0.035 A 
ATOM     32  C   UNL     1      -0.712  -2.078  -0.948  0.00  0.00    +0.043 A 
ATOM     33  C   UNL     1      -0.726  -0.695  -0.934  0.00  0.00    +0.046 A 
ATOM     34 CL   UNL     1      -1.678   0.174  -2.096  0.00  0.00    -0.083 Cl
ENDBRANCH  23  31
ENDBRANCH  21  24
ENDBRANCH  20  21
ENDBRANCH   1  20
TORSDOF 6
