REMARK  Name = ZINC63737021
REMARK  6 active torsions:
REMARK  status: ('A' for Active; 'I' for Inactive)
REMARK    1  A    between atoms: C_1  and  C_2
REMARK    2  A    between atoms: C_5  and  C_8
REMARK    3  A    between atoms: C_19  and  C_21
REMARK    4  A    between atoms: N_23  and  C_24
REMARK    5  A    between atoms: C_26  and  C_31
REMARK    6  A    between atoms: C_29  and  C_30
REMARK                            x       y       z     vdW  Elec       q    Type
REMARK                         _______ _______ _______ _____ _____    ______ ____
ROOT
ATOM      1  C   UNL     1       1.642  -3.958   1.778  0.00  0.00    +0.259 C 
ATOM      2  O   UNL     1       2.134  -4.600   2.681  0.00  0.00    -0.271 OA
ATOM      3  N   UNL     1       1.444  -2.632   1.924  0.00  0.00    -0.282 N 
ATOM      4  H   UNL     1       1.004  -2.128   1.222  0.00  0.00    +0.155 HD
ENDROOT
BRANCH   1  15
ATOM      5  C   UNL     1      -0.258  -4.889   0.486  0.00  0.00    +0.100 C 
ATOM      6  C   UNL     1      -0.614  -5.948   1.496  0.00  0.00    -0.022 A 
ATOM      7  C   UNL     1      -1.903  -6.036   1.982  0.00  0.00    +0.005 A 
ATOM      8  C   UNL     1      -2.230  -7.011   2.908  0.00  0.00    +0.000 A 
ATOM      9  C   UNL     1      -1.272  -7.905   3.354  0.00  0.00    +0.001 A 
ATOM     10  C   UNL     1       0.021  -7.828   2.877  0.00  0.00    +0.015 A 
ATOM     11  C   UNL     1       0.355  -6.846   1.947  0.00  0.00    +0.063 A 
ATOM     12  C   UNL     1       1.738  -6.738   1.427  0.00  0.00    +0.340 C 
ATOM     13  O   UNL     1       2.650  -7.378   1.912  0.00  0.00    -0.245 OA
ATOM     14  O   UNL     1       1.941  -5.892   0.385  0.00  0.00    -0.447 OA
ATOM     15  C   UNL     1       1.251  -4.641   0.493  0.00  0.00    +0.274 C 
BRANCH   5  20
ATOM     16  C   UNL     1      -3.013   0.016   1.808  0.00  0.00    +0.044 C 
ATOM     17  C   UNL     1      -2.294  -1.263   1.463  0.00  0.00    -0.050 A 
ATOM     18  C   UNL     1      -2.267  -1.710   0.155  0.00  0.00    +0.003 A 
ATOM     19  C   UNL     1      -1.608  -2.883  -0.161  0.00  0.00    +0.004 A 
ATOM     20  C   UNL     1      -0.976  -3.609   0.831  0.00  0.00    -0.036 A 
ATOM     21  C   UNL     1      -1.002  -3.162   2.139  0.00  0.00    +0.004 A 
ATOM     22  C   UNL     1      -1.657  -1.986   2.454  0.00  0.00    +0.003 A 
ENDBRANCH   5  20
ENDBRANCH   1  15
BRANCH   3  23
ATOM     23  C   UNL     1       1.875  -1.985   3.087  0.00  0.00    +0.037 A 
ATOM     24  C   UNL     1       2.002  -2.696   4.273  0.00  0.00    +0.031 A 
ATOM     25  C   UNL     1       2.427  -2.054   5.420  0.00  0.00    -0.004 A 
ATOM     26  C   UNL     1       2.725  -0.704   5.388  0.00  0.00    +0.008 A 
ATOM     27  C   UNL     1       2.599   0.007   4.209  0.00  0.00    +0.005 A 
ATOM     28  C   UNL     1       2.180  -0.631   3.057  0.00  0.00    -0.029 A 
ATOM     29  C   UNL     1       2.050   0.143   1.771  0.00  0.00    +0.045 C 
BRANCH  25  30
ATOM     30  C   UNL     1       2.566  -2.825   6.707  0.00  0.00    +0.206 C 
ATOM     31  N   UNL     1       2.977  -4.207   6.425  0.00  0.00    -0.360 N 
ATOM     32  C   UNL     1       4.124  -4.400   7.010  0.00  0.00    +0.060 A 
ATOM     33  C   UNL     1       5.021  -5.560   7.089  0.00  0.00    +0.027 A 
ATOM     34  C   UNL     1       6.172  -5.464   7.784  0.00  0.00    +0.002 A 
ATOM     35  C   UNL     1       6.562  -4.287   8.447  0.00  0.00    +0.002 A 
ATOM     36  C   UNL     1       5.813  -3.166   8.438  0.00  0.00    +0.027 A 
ATOM     37  C   UNL     1       4.535  -3.154   7.712  0.00  0.00    +0.060 A 
ATOM     38  N   UNL     1       3.627  -2.238   7.534  0.00  0.00    -0.360 N 
ATOM     39  H   UNL     1       2.483  -4.856   5.900  0.00  0.00    +0.162 HD
ATOM     40  H   UNL     1       3.648  -1.334   7.884  0.00  0.00    +0.162 HD
ENDBRANCH  25  30
ENDBRANCH   3  23
TORSDOF 4
