REMARK  Name = ZINC16651473
REMARK  12 active torsions:
REMARK  status: ('A' for Active; 'I' for Inactive)
REMARK    1  A    between atoms: C_1  and  C_2
REMARK    2  A    between atoms: C_5  and  C_7
REMARK    3  A    between atoms: C_7  and  N_8
REMARK    4  A    between atoms: N_8  and  C_9
REMARK    5  A    between atoms: C_9  and  C_10
REMARK    6  A    between atoms: C_16  and  C_18
REMARK    7  A    between atoms: C_18  and  N_19
REMARK    8  A    between atoms: N_19  and  C_20
REMARK    9  A    between atoms: C_20  and  C_21
REMARK   10  A    between atoms: C_21  and  C_22
REMARK   11  A    between atoms: C_21  and  C_23
REMARK   12  A    between atoms: N_26  and  C_27
REMARK                            x       y       z     vdW  Elec       q    Type
REMARK                         _______ _______ _______ _____ _____    ______ ____
ROOT
ATOM      1  N   UNL     1       4.082   0.063  -1.123  0.00  0.00    -0.289 N 
ATOM      2  C   UNL     1       2.922   0.744  -1.028  0.00  0.00    +0.234 C 
ATOM      3  O   UNL     1       2.296   1.019  -2.029  0.00  0.00    -0.274 OA
ENDROOT
BRANCH   1   4
ATOM      4  C   UNL     1       4.838  -0.268   0.086  0.00  0.00    +0.182 C 
BRANCH   4   9
ATOM      5  C   UNL     1       2.271  -3.766   2.658  0.00  0.00    +0.086 C 
ATOM      6  C   UNL     1       3.271  -3.128   1.728  0.00  0.00    +0.102 A 
ATOM      7  C   UNL     1       4.190  -3.781   0.994  0.00  0.00    +0.045 A 
ATOM      8  C   UNL     1       4.910  -2.800   0.273  0.00  0.00    +0.046 A 
ATOM      9  C   UNL     1       4.387  -1.608   0.610  0.00  0.00    +0.122 A 
ATOM     10  O   UNL     1       3.399  -1.812   1.496  0.00  0.00    -0.463 OA
ENDBRANCH   4   9
ENDBRANCH   1   4
BRANCH   1  11
ATOM     11  C   UNL     1       4.585  -0.345  -2.437  0.00  0.00    +0.143 C 
BRANCH  11  12
ATOM     12  C   UNL     1       5.468   0.740  -2.997  0.00  0.00    -0.030 A 
ATOM     13  C   UNL     1       4.923   1.741  -3.779  0.00  0.00    +0.005 A 
ATOM     14  C   UNL     1       5.732   2.739  -4.288  0.00  0.00    +0.000 A 
ATOM     15  C   UNL     1       7.089   2.731  -4.023  0.00  0.00    +0.000 A 
ATOM     16  C   UNL     1       7.635   1.728  -3.245  0.00  0.00    +0.000 A 
ATOM     17  C   UNL     1       6.825   0.732  -2.731  0.00  0.00    +0.005 A 
ENDBRANCH  11  12
ENDBRANCH   1  11
BRANCH   2  18
ATOM     18  C   UNL     1       2.405   1.164   0.324  0.00  0.00    +0.205 C 
BRANCH  18  19
ATOM     19  N   UNL     1       1.139   1.884   0.160  0.00  0.00    -0.276 N 
ATOM     20  C   UNL     1      -0.027   1.208   0.174  0.00  0.00    +0.307 C 
ATOM     21  O   UNL     1      -0.028   0.002   0.323  0.00  0.00    -0.252 OA
ATOM     22  N   UNL     1      -1.191   1.870   0.018  0.00  0.00    -0.269 N 
ATOM     23  H   UNL     1      -1.196   2.839  -0.023  0.00  0.00    +0.156 HD
BRANCH  22  24
ATOM     24  C   UNL     1      -2.392   1.158  -0.086  0.00  0.00    +0.035 A 
ATOM     25  C   UNL     1      -2.412  -0.086  -0.704  0.00  0.00    +0.024 A 
ATOM     26  C   UNL     1      -3.597  -0.788  -0.800  0.00  0.00    +0.017 A 
ATOM     27  C   UNL     1      -4.766  -0.249  -0.292  0.00  0.00    +0.018 A 
ATOM     28  C   UNL     1      -4.749   0.993   0.319  0.00  0.00    +0.017 A 
ATOM     29  C   UNL     1      -3.566   1.697   0.423  0.00  0.00    +0.024 A 
ATOM     30 BR   UNL     1      -6.388  -1.210  -0.432  0.00  0.00    -0.050 Br
ENDBRANCH  22  24
BRANCH  19  31
ATOM     31  C   UNL     1       1.141   3.338  -0.019  0.00  0.00    +0.113 C 
BRANCH  31  32
ATOM     32  C   UNL     1       1.057   4.020   1.348  0.00  0.00    +0.000 C 
ATOM     33  C   UNL     1       2.321   3.710   2.152  0.00  0.00    +0.009 C 
ATOM     34  C   UNL     1       0.934   5.533   1.156  0.00  0.00    +0.009 C 
ENDBRANCH  31  32
ENDBRANCH  19  31
ENDBRANCH  18  19
ENDBRANCH   2  18
TORSDOF 9
