REMARK  Name = ZINC57352672
REMARK  4 active torsions:
REMARK  status: ('A' for Active; 'I' for Inactive)
REMARK    1  A    between atoms: C_1  and  C_2
REMARK    2  A    between atoms: C_4  and  N_23
REMARK    3  A    between atoms: C_16  and  C_22
REMARK    4  A    between atoms: C_17  and  C_21
REMARK                            x       y       z     vdW  Elec       q    Type
REMARK                         _______ _______ _______ _____ _____    ______ ____
ROOT
ATOM      1  C   UNL     1      -0.018   1.503   0.010  0.00  0.00    +0.046 C 
ATOM      2  C   UNL     1       0.002  -0.004   0.002  0.00  0.00    -0.022 A 
ATOM      3  C   UNL     1       0.005  -0.674  -1.193  0.00  0.00    +0.028 A 
ATOM      4  C   UNL     1       0.024  -2.066  -1.246  0.00  0.00    +0.026 A 
ATOM      5  C   UNL     1       0.039  -2.788  -0.059  0.00  0.00    +0.040 A 
ATOM      6  C   UNL     1       0.036  -2.119   1.139  0.00  0.00    +0.043 A 
ATOM      7  C   UNL     1       0.023  -0.709   1.228  0.00  0.00    +0.083 A 
ATOM      8  N   UNL     1       0.028  -0.201   2.481  0.00  0.00    -0.224 NA
ATOM      9  C   UNL     1       0.048  -0.961   3.550  0.00  0.00    +0.167 A 
ATOM     10  S   UNL     1       0.051  -2.605   2.848  0.00  0.00    -0.052 S 
ATOM     11  N   UNL     1       0.055  -0.586   4.882  0.00  0.00    -0.248 N 
ATOM     12  C   UNL     1       0.077  -1.549   5.869  0.00  0.00    +0.294 A 
ATOM     13  N   UNL     1       0.098  -2.840   5.657  0.00  0.00    -0.195 NA
ATOM     14  C   UNL     1       0.117  -3.479   6.859  0.00  0.00    +0.111 A 
ATOM     15  C   UNL     1       0.142  -4.823   7.235  0.00  0.00    +0.035 A 
ATOM     16  C   UNL     1       0.155  -5.159   8.571  0.00  0.00    -0.045 A 
ATOM     17  C   UNL     1       0.144  -4.169   9.543  0.00  0.00    -0.044 A 
ATOM     18  C   UNL     1       0.119  -2.837   9.184  0.00  0.00    +0.052 A 
ATOM     19  C   UNL     1       0.106  -2.482   7.845  0.00  0.00    +0.157 A 
ATOM     20  O   UNL     1       0.086  -1.298   7.190  0.00  0.00    -0.424 OA
ATOM     21  C   UNL     1       0.160  -4.552  11.000  0.00  0.00    +0.044 C 
ATOM     22  C   UNL     1       0.182  -6.609   8.979  0.00  0.00    +0.044 C 
ATOM     23  H   UNL     1       0.045   0.353   5.121  0.00  0.00    +0.158 HD
ENDROOT
BRANCH   4  24
ATOM     24  N   UNL     1       0.026  -2.728  -2.478  0.00  0.00    -0.358 N 
ATOM     25  H   UNL     1       0.015  -2.218  -3.303  0.00  0.00    +0.142 HD
ATOM     26  H   UNL     1       0.039  -3.698  -2.507  0.00  0.00    +0.142 HD
ENDBRANCH   4  24
TORSDOF 1
