REMARK  Name = ZINC04928067
REMARK  7 active torsions:
REMARK  status: ('A' for Active; 'I' for Inactive)
REMARK    1  A    between atoms: C_1  and  C_2
REMARK    2  A    between atoms: C_2  and  O_3
REMARK    3  A    between atoms: O_3  and  C_4
REMARK    4  A    between atoms: C_9  and  C_10
REMARK    5  A    between atoms: C_12  and  C_16
REMARK    6  A    between atoms: N_18  and  N_19
REMARK    7  A    between atoms: C_20  and  C_21
REMARK                            x       y       z     vdW  Elec       q    Type
REMARK                         _______ _______ _______ _____ _____    ______ ____
ROOT
ATOM      1  C   UNL     1      -3.974  -1.520   0.031  0.00  0.00    +0.097 A 
ATOM      2  C   UNL     1      -5.317  -1.938   0.048  0.00  0.00    +0.062 A 
ATOM      3  C   UNL     1      -6.062  -0.773   0.059  0.00  0.00    +0.122 A 
ATOM      4  N   UNL     1      -5.166   0.259   0.049  0.00  0.00    -0.272 N 
ATOM      5  H   UNL     1      -5.401   1.200   0.053  0.00  0.00    +0.189 HD
ATOM      6  N   UNL     1      -3.968  -0.203   0.038  0.00  0.00    -0.173 NA
ENDROOT
BRANCH   1  12
ATOM      7  C   UNL     1      -1.498  -1.848   0.006  0.00  0.00    +0.130 A 
ATOM      8  C   UNL     1      -0.390  -2.679  -0.003  0.00  0.00    +0.046 A 
ATOM      9  C   UNL     1      -0.553  -4.051  -0.008  0.00  0.00    +0.004 A 
ATOM     10  C   UNL     1      -1.823  -4.603  -0.005  0.00  0.00    +0.001 A 
ATOM     11  C   UNL     1      -2.935  -3.786   0.004  0.00  0.00    +0.014 A 
ATOM     12  C   UNL     1      -2.781  -2.402   0.016  0.00  0.00    +0.044 A 
BRANCH   7  13
ATOM     13  O   UNL     1      -1.339  -0.499   0.012  0.00  0.00    -0.492 OA
BRANCH  13  15
ATOM     14  C   UNL     1      -0.019   1.526   0.010  0.00  0.00    +0.048 C 
ATOM     15  C   UNL     1       0.002  -0.004   0.002  0.00  0.00    +0.226 C 
ENDBRANCH  13  15
ENDBRANCH   7  13
ENDBRANCH   1  12
BRANCH   3  16
ATOM     16  C   UNL     1      -7.529  -0.666   0.077  0.00  0.00    +0.281 C 
ATOM     17  O   UNL     1      -8.213  -1.673   0.083  0.00  0.00    -0.267 OA
ATOM     18  N   UNL     1      -8.116   0.547   0.086  0.00  0.00    -0.202 N 
ATOM     19  H   UNL     1      -7.571   1.350   0.081  0.00  0.00    +0.178 HD
BRANCH  18  20
ATOM     20  N   UNL     1      -9.513   0.649   0.103  0.00  0.00    -0.187 NA
ATOM     21  C   UNL     1     -10.079   1.818   0.112  0.00  0.00    +0.139 C 
BRANCH  21  22
ATOM     22  C   UNL     1     -11.549   1.925   0.130  0.00  0.00    +0.013 A 
ATOM     23  C   UNL     1     -12.161   3.181   0.134  0.00  0.00    +0.011 A 
ATOM     24  C   UNL     1     -13.537   3.274   0.150  0.00  0.00    +0.001 A 
ATOM     25  C   UNL     1     -14.312   2.128   0.163  0.00  0.00    +0.001 A 
ATOM     26  C   UNL     1     -13.714   0.880   0.159  0.00  0.00    +0.020 A 
ATOM     27  C   UNL     1     -12.338   0.771   0.137  0.00  0.00    +0.050 A 
ATOM     28 CL   UNL     1     -11.589  -0.795   0.125  0.00  0.00    -0.083 Cl
ENDBRANCH  21  22
ENDBRANCH  18  20
ENDBRANCH   3  16
TORSDOF 6
