REMARK  Name = ZINC16681134
REMARK  8 active torsions:
REMARK  status: ('A' for Active; 'I' for Inactive)
REMARK    1  A    between atoms: C_1  and  C_2
REMARK    2  A    between atoms: C_2  and  C_3
REMARK    3  A    between atoms: C_7  and  C_30
REMARK    4  A    between atoms: C_8  and  N_9
REMARK    5  A    between atoms: C_13  and  S_15
REMARK    6  A    between atoms: S_15  and  C_16
REMARK    7  A    between atoms: C_16  and  C_17
REMARK    8  A    between atoms: C_26  and  C_29
REMARK                            x       y       z     vdW  Elec       q    Type
REMARK                         _______ _______ _______ _____ _____    ______ ____
ROOT
ATOM      1  N   UNL     1      -1.270  -0.856   2.289  0.00  0.00    -0.292 N 
ATOM      2  C   UNL     1      -1.480  -1.909   3.172  0.00  0.00    +0.187 A 
ATOM      3  N   UNL     1      -2.615  -2.434   3.593  0.00  0.00    -0.125 NA
ATOM      4  N   UNL     1      -2.595  -3.489   4.475  0.00  0.00    -0.133 NA
ATOM      5  C   UNL     1      -1.442  -3.964   4.906  0.00  0.00    +0.160 A 
ATOM      6  S   UNL     1      -0.285  -2.909   4.046  0.00  0.00    -0.024 S 
ATOM      7  H   UNL     1      -0.368  -0.614   2.028  0.00  0.00    +0.154 HD
ENDROOT
BRANCH   1  13
ATOM      8  C   UNL     1      -2.557   1.181   2.140  0.00  0.00    -0.026 A 
ATOM      9  C   UNL     1      -3.638   1.879   1.637  0.00  0.00    +0.005 A 
ATOM     10  C   UNL     1      -4.516   1.262   0.765  0.00  0.00    +0.001 A 
ATOM     11  C   UNL     1      -4.322  -0.059   0.403  0.00  0.00    +0.005 A 
ATOM     12  C   UNL     1      -3.247  -0.764   0.906  0.00  0.00    -0.029 A 
ATOM     13  C   UNL     1      -2.359  -0.145   1.778  0.00  0.00    +0.039 A 
ATOM     14  C   UNL     1      -3.037  -2.203   0.510  0.00  0.00    +0.045 C 
BRANCH   8  16
ATOM     15  C   UNL     1      -0.405   2.402   2.297  0.00  0.00    +0.009 C 
ATOM     16  C   UNL     1      -1.597   1.856   3.085  0.00  0.00    +0.033 C 
ENDBRANCH   8  16
ENDBRANCH   1  13
BRANCH   5  17
ATOM     17  S   UNL     1      -1.127  -5.285   6.027  0.00  0.00    -0.089 S 
BRANCH  17  18
ATOM     18  C   UNL     1      -2.780  -5.877   6.484  0.00  0.00    +0.150 C 
BRANCH  18  19
ATOM     19  C   UNL     1      -2.654  -7.023   7.454  0.00  0.00    +0.121 A 
ATOM     20  N   UNL     1      -3.791  -7.606   7.915  0.00  0.00    -0.310 N 
ATOM     21  H   UNL     1      -4.654  -7.277   7.617  0.00  0.00    +0.170 HD
ATOM     22  C   UNL     1      -3.731  -8.639   8.787  0.00  0.00    +0.259 A 
ATOM     23  O   UNL     1      -4.742  -9.169   9.209  0.00  0.00    -0.267 OA
ATOM     24  C   UNL     1      -2.397  -9.095   9.205  0.00  0.00    +0.065 A 
ATOM     25  C   UNL     1      -2.226 -10.151  10.098  0.00  0.00    +0.015 A 
ATOM     26  C   UNL     1      -0.953 -10.538  10.455  0.00  0.00    +0.001 A 
ATOM     27  C   UNL     1       0.157  -9.885   9.933  0.00  0.00    +0.005 A 
ATOM     28  C   UNL     1       0.009  -8.840   9.050  0.00  0.00    -0.024 A 
ATOM     29  C   UNL     1      -1.271  -8.430   8.672  0.00  0.00    +0.081 A 
ATOM     30  N   UNL     1      -1.463  -7.408   7.801  0.00  0.00    -0.233 NA
ATOM     31  C   UNL     1       1.223  -8.143   8.492  0.00  0.00    +0.046 C 
ENDBRANCH  18  19
ENDBRANCH  17  18
ENDBRANCH   5  17
TORSDOF 5
