REMARK  Name = ZINC54201461
REMARK  10 active torsions:
REMARK  status: ('A' for Active; 'I' for Inactive)
REMARK    1  A    between atoms: C_1  and  O_2
REMARK    2  A    between atoms: O_2  and  C_3
REMARK    3  A    between atoms: C_6  and  C_9
REMARK    4  A    between atoms: C_12  and  C_31
REMARK    5  A    between atoms: C_20  and  C_21
REMARK    6  A    between atoms: C_24  and  O_29
REMARK    7  A    between atoms: C_25  and  O_27
REMARK    8  A    between atoms: O_27  and  C_28
REMARK    9  A    between atoms: C_34  and  O_37
REMARK   10  A    between atoms: O_37  and  C_38
REMARK                            x       y       z     vdW  Elec       q    Type
REMARK                         _______ _______ _______ _____ _____    ______ ____
ROOT
ATOM      1  C   UNL     1       1.259  -2.893  -2.162  0.00  0.00    +0.136 C 
ATOM      2  C   UNL     1       2.453  -3.462  -1.370  0.00  0.00    +0.087 C 
ATOM      3  C   UNL     1       2.519  -4.910  -1.801  0.00  0.00    +0.069 C 
ATOM      4  N   UNL     1       1.582  -5.148  -2.653  0.00  0.00    -0.182 NA
ATOM      5  N   UNL     1       0.780  -4.043  -2.945  0.00  0.00    -0.195 N 
ATOM      6  C   UNL     1      -0.278  -4.028  -3.815  0.00  0.00    +0.174 C 
ATOM      7  N   UNL     1      -1.067  -3.014  -4.134  0.00  0.00    -0.152 NA
ATOM      8  C   UNL     1      -2.056  -3.132  -4.990  0.00  0.00    +0.276 C 
ATOM      9  O   UNL     1      -2.777  -2.188  -5.276  0.00  0.00    -0.267 OA
ATOM     10  C   UNL     1      -2.249  -4.472  -5.591  0.00  0.00    +0.079 C 
ATOM     11  C   UNL     1      -3.171  -4.897  -6.493  0.00  0.00    +0.028 C 
ATOM     12  S   UNL     1      -0.921  -5.372  -4.800  0.00  0.00    -0.050 S 
ENDROOT
BRANCH   1  16
ATOM     13  C   UNL     1      -1.788  -1.510   0.496  0.00  0.00    +0.120 A 
ATOM     14  C   UNL     1      -0.937  -0.602  -0.118  0.00  0.00    +0.046 A 
ATOM     15  C   UNL     1       0.048  -1.052  -0.976  0.00  0.00    +0.009 A 
ATOM     16  C   UNL     1       0.185  -2.405  -1.225  0.00  0.00    -0.025 A 
ATOM     17  C   UNL     1      -0.663  -3.311  -0.615  0.00  0.00    +0.009 A 
ATOM     18  C   UNL     1      -1.645  -2.867   0.250  0.00  0.00    +0.046 A 
BRANCH  13  20
ATOM     19  C   UNL     1      -2.846   0.342   1.548  0.00  0.00    +0.277 C 
ATOM     20  O   UNL     1      -2.757  -1.070   1.341  0.00  0.00    -0.495 OA
ENDBRANCH  13  20
ENDBRANCH   1  16
BRANCH  11  21
ATOM     21  C   UNL     1      -3.286  -6.326  -6.807  0.00  0.00    -0.020 A 
ATOM     22  C   UNL     1      -2.582  -7.271  -6.051  0.00  0.00    +0.012 A 
ATOM     23  C   UNL     1      -2.692  -8.611  -6.348  0.00  0.00    +0.050 A 
ATOM     24  C   UNL     1      -3.500  -9.029  -7.398  0.00  0.00    +0.158 A 
ATOM     25  C   UNL     1      -4.204  -8.095  -8.156  0.00  0.00    +0.162 A 
ATOM     26  C   UNL     1      -4.105  -6.749  -7.862  0.00  0.00    +0.057 A 
BRANCH  25  27
ATOM     27  O   UNL     1      -4.993  -8.509  -9.184  0.00  0.00    -0.491 OA
ATOM     28  C   UNL     1      -5.685  -7.498  -9.919  0.00  0.00    +0.277 C 
ENDBRANCH  25  27
BRANCH  24  29
ATOM     29  O   UNL     1      -3.604 -10.352  -7.686  0.00  0.00    -0.503 OA
ATOM     30  H   UNL     1      -4.319 -10.802  -7.216  0.00  0.00    +0.292 HD
ENDBRANCH  24  29
ENDBRANCH  11  21
BRANCH   3  31
ATOM     31  C   UNL     1       3.503  -5.896  -1.321  0.00  0.00    -0.002 A 
ATOM     32  C   UNL     1       4.474  -5.521  -0.389  0.00  0.00    +0.013 A 
ATOM     33  C   UNL     1       5.392  -6.447   0.057  0.00  0.00    +0.046 A 
ATOM     34  C   UNL     1       5.355  -7.751  -0.420  0.00  0.00    +0.120 A 
ATOM     35  C   UNL     1       4.392  -8.128  -1.347  0.00  0.00    +0.046 A 
ATOM     36  C   UNL     1       3.466  -7.211  -1.794  0.00  0.00    +0.013 A 
BRANCH  34  37
ATOM     37  O   UNL     1       6.262  -8.660   0.022  0.00  0.00    -0.495 OA
ATOM     38  C   UNL     1       6.166  -9.983  -0.509  0.00  0.00    +0.277 C 
ENDBRANCH  34  37
ENDBRANCH   3  31
TORSDOF 7
