REMARK  Name = ZINC08928217
REMARK  8 active torsions:
REMARK  status: ('A' for Active; 'I' for Inactive)
REMARK    1  A    between atoms: C_1  and  C_2
REMARK    2  A    between atoms: C_2  and  C_3
REMARK    3  A    between atoms: C_3  and  O_4
REMARK    4  A    between atoms: O_4  and  C_5
REMARK    5  A    between atoms: C_8  and  C_11
REMARK    6  A    between atoms: C_17  and  C_19
REMARK    7  A    between atoms: N_24  and  S_25
REMARK    8  A    between atoms: S_25  and  C_28
REMARK                            x       y       z     vdW  Elec       q    Type
REMARK                         _______ _______ _______ _____ _____    ______ ____
ROOT
ATOM      1  C   UNL     1       1.107   2.019   0.002  0.00  0.00    +0.080 A 
ATOM      2  C   UNL     1       2.307   1.365  -0.013  0.00  0.00    +0.076 A 
ATOM      3  S   UNL     1       1.758  -0.336  -0.017  0.00  0.00    -0.060 S 
ATOM      4  C   UNL     1       0.002  -0.004   0.002  0.00  0.00    +0.165 A 
ATOM      5  N   UNL     1      -0.016   1.316   0.009  0.00  0.00    -0.225 NA
ATOM      6  N   UNL     1      -1.062  -0.898   0.007  0.00  0.00    -0.263 N 
ATOM      7  C   UNL     1      -0.827  -2.225  -0.002  0.00  0.00    +0.238 C 
ATOM      8  O   UNL     1       0.313  -2.639  -0.015  0.00  0.00    -0.274 OA
ATOM      9  H   UNL     1      -1.974  -0.567   0.018  0.00  0.00    +0.157 HD
ENDROOT
BRANCH   1  13
ATOM     10  C   UNL     1       0.977   6.271   0.025  0.00  0.00    +0.121 A 
ATOM     11  C   UNL     1      -0.204   5.542   0.033  0.00  0.00    +0.046 A 
ATOM     12  C   UNL     1      -0.166   4.163   0.026  0.00  0.00    +0.013 A 
ATOM     13  C   UNL     1       1.061   3.502   0.010  0.00  0.00    +0.001 A 
ATOM     14  C   UNL     1       2.246   4.237   0.008  0.00  0.00    +0.013 A 
ATOM     15  C   UNL     1       2.200   5.615   0.010  0.00  0.00    +0.046 A 
BRANCH  10  16
ATOM     16  O   UNL     1       0.935   7.629   0.033  0.00  0.00    -0.492 OA
BRANCH  16  17
ATOM     17  C   UNL     1       2.188   8.316   0.025  0.00  0.00    +0.229 C 
BRANCH  17  19
ATOM     18  C   UNL     1       3.283  10.562   0.026  0.00  0.00    +0.007 C 
ATOM     19  C   UNL     1       1.941   9.826   0.035  0.00  0.00    +0.038 C 
ENDBRANCH  17  19
ENDBRANCH  16  17
ENDBRANCH  10  16
ENDBRANCH   1  13
BRANCH   7  20
ATOM     20  C   UNL     1      -1.981  -3.194   0.004  0.00  0.00    +0.166 C 
ATOM     21  C   UNL     1      -2.837  -2.999  -1.265  0.00  0.00    +0.031 C 
ATOM     22  C   UNL     1      -3.229  -4.450  -1.647  0.00  0.00    +0.019 C 
ATOM     23  C   UNL     1      -1.953  -5.232  -1.250  0.00  0.00    +0.110 C 
ATOM     24  N   UNL     1      -1.474  -4.574  -0.016  0.00  0.00    -0.165 NA
BRANCH  24  25
ATOM     25  S   UNL     1      -0.526  -5.271   1.149  0.00  0.00    +0.062 S 
ATOM     26  O   UNL     1       0.174  -6.336   0.519  0.00  0.00    -0.153 OA
ATOM     27  O   UNL     1       0.142  -4.210   1.817  0.00  0.00    -0.153 OA
BRANCH  25  28
ATOM     28  C   UNL     1      -1.607  -6.008   2.329  0.00  0.00    +0.106 A 
ATOM     29  C   UNL     1      -2.042  -5.277   3.419  0.00  0.00    +0.030 A 
ATOM     30  C   UNL     1      -2.895  -5.853   4.342  0.00  0.00    +0.022 A 
ATOM     31  C   UNL     1      -3.304  -7.165   4.181  0.00  0.00    +0.041 A 
ATOM     32  C   UNL     1      -2.864  -7.898   3.093  0.00  0.00    +0.022 A 
ATOM     33  C   UNL     1      -2.015  -7.319   2.168  0.00  0.00    +0.030 A 
ATOM     34 CL   UNL     1      -4.369  -7.891   5.343  0.00  0.00    -0.084 Cl
ENDBRANCH  25  28
ENDBRANCH  24  25
ENDBRANCH   7  20
TORSDOF 7
