REMARK  Name = ZINC01736217
REMARK  7 active torsions:
REMARK  status: ('A' for Active; 'I' for Inactive)
REMARK    1  A    between atoms: C_1  and  O_2
REMARK    2  A    between atoms: O_2  and  C_3
REMARK    3  A    between atoms: C_8  and  N_9
REMARK    4  A    between atoms: N_9  and  C_10
REMARK    5  A    between atoms: C_10  and  C_12
REMARK    6  A    between atoms: C_10  and  C_18
REMARK    7  A    between atoms: C_27  and  O_28
REMARK                            x       y       z     vdW  Elec       q    Type
REMARK                         _______ _______ _______ _____ _____    ______ ____
ROOT
ATOM      1  C   UNL     1      -2.651   3.099   4.605  0.00  0.00    +0.135 C 
ENDROOT
BRANCH   1   2
ATOM      2  C   UNL     1      -2.700   2.053   5.689  0.00  0.00    +0.021 A 
ATOM      3  C   UNL     1      -2.436   0.723   5.371  0.00  0.00    +0.010 A 
ATOM      4  C   UNL     1      -2.467  -0.245   6.328  0.00  0.00    +0.010 A 
ATOM      5  C   UNL     1      -2.780   0.096   7.654  0.00  0.00    +0.004 A 
ATOM      6  C   UNL     1      -2.826  -0.877   8.670  0.00  0.00    +0.011 A 
ATOM      7  C   UNL     1      -3.137  -0.473   9.937  0.00  0.00    +0.020 A 
ATOM      8  C   UNL     1      -3.397   0.872  10.193  0.00  0.00    +0.111 A 
ATOM      9  N   UNL     1      -3.352   1.776   9.244  0.00  0.00    -0.251 NA
ATOM     10  C   UNL     1      -3.054   1.446   7.984  0.00  0.00    +0.113 A 
ATOM     11  C   UNL     1      -3.007   2.423   6.967  0.00  0.00    +0.148 A 
BRANCH  11  12
ATOM     12  O   UNL     1      -3.266   3.724   7.258  0.00  0.00    -0.504 OA
ATOM     13  H   UNL     1      -4.198   3.968   7.174  0.00  0.00    +0.292 HD
ENDBRANCH  11  12
ENDBRANCH   1   2
BRANCH   1  14
ATOM     14  C   UNL     1      -4.028   3.283   4.022  0.00  0.00    -0.023 A 
ATOM     15  C   UNL     1      -4.506   2.389   3.083  0.00  0.00    +0.006 A 
ATOM     16  C   UNL     1      -5.771   2.556   2.551  0.00  0.00    +0.000 A 
ATOM     17  C   UNL     1      -6.555   3.622   2.953  0.00  0.00    +0.000 A 
ATOM     18  C   UNL     1      -6.074   4.519   3.888  0.00  0.00    +0.000 A 
ATOM     19  C   UNL     1      -4.811   4.350   4.423  0.00  0.00    +0.006 A 
ENDBRANCH   1  14
BRANCH   1  20
ATOM     20  N   UNL     1      -1.728   2.667   3.552  0.00  0.00    -0.330 N 
ATOM     21  H   UNL     1      -1.544   1.723   3.425  0.00  0.00    +0.147 HD
BRANCH  20  27
ATOM     22  C   UNL     1      -0.236   3.209   1.726  0.00  0.00    +0.141 A 
ATOM     23  C   UNL     1       0.365   4.153   0.910  0.00  0.00    +0.047 A 
ATOM     24  C   UNL     1       0.099   5.497   1.094  0.00  0.00    +0.004 A 
ATOM     25  C   UNL     1      -0.767   5.904   2.092  0.00  0.00    +0.002 A 
ATOM     26  C   UNL     1      -1.371   4.968   2.911  0.00  0.00    +0.026 A 
ATOM     27  C   UNL     1      -1.113   3.617   2.728  0.00  0.00    +0.070 A 
BRANCH  22  29
ATOM     28  C   UNL     1       0.930   1.541   0.494  0.00  0.00    +0.277 C 
ATOM     29  O   UNL     1       0.025   1.887   1.545  0.00  0.00    -0.493 OA
ENDBRANCH  22  29
ENDBRANCH  20  27
ENDBRANCH   1  20
TORSDOF 6
