REMARK  Name = ZINC09663873
REMARK  3 active torsions:
REMARK  status: ('A' for Active; 'I' for Inactive)
REMARK    1  A    between atoms: C_11  and  C_13
REMARK    2  A    between atoms: N_19  and  S_20
REMARK    3  A    between atoms: S_20  and  C_23
REMARK                            x       y       z     vdW  Elec       q    Type
REMARK                         _______ _______ _______ _____ _____    ______ ____
ROOT
ATOM      1  C   UNL     1      -1.589   3.630   0.010  0.00  0.00    +0.166 C 
ATOM      2  C   UNL     1      -0.847   3.192   1.277  0.00  0.00    +0.030 C 
ATOM      3  C   UNL     1      -0.739   1.666   1.299  0.00  0.00    +0.003 C 
ATOM      4  C   UNL     1       0.060   1.192   0.083  0.00  0.00    +0.017 C 
ATOM      5  C   UNL     1      -0.672   1.607  -1.198  0.00  0.00    +0.110 C 
ATOM      6  N   UNL     1      -0.908   3.056  -1.158  0.00  0.00    -0.164 NA
ENDROOT
BRANCH   1  17
ATOM      7  C   UNL     1      -4.272  11.690  -0.327  0.00  0.00    +0.002 A 
ATOM      8  C   UNL     1      -2.952  12.101  -0.445  0.00  0.00    +0.001 A 
ATOM      9  C   UNL     1      -1.946  11.153  -0.454  0.00  0.00    +0.017 A 
ATOM     10  C   UNL     1      -2.267   9.823  -0.346  0.00  0.00    +0.041 A 
ATOM     11  C   UNL     1      -3.600   9.367  -0.224  0.00  0.00    +0.080 A 
ATOM     12  C   UNL     1      -4.602  10.365  -0.218  0.00  0.00    +0.029 A 
ATOM     13  N   UNL     1      -3.754   8.029  -0.126  0.00  0.00    -0.225 NA
ATOM     14  C   UNL     1      -2.738   7.199  -0.142  0.00  0.00    +0.165 A 
ATOM     15  S   UNL     1      -1.344   8.305  -0.305  0.00  0.00    -0.052 S 
ATOM     16  N   UNL     1      -2.744   5.816  -0.052  0.00  0.00    -0.263 N 
ATOM     17  C   UNL     1      -1.583   5.133  -0.088  0.00  0.00    +0.238 C 
ATOM     18  O   UNL     1      -0.532   5.729  -0.201  0.00  0.00    -0.274 OA
ATOM     19  H   UNL     1      -3.584   5.340   0.038  0.00  0.00    +0.157 HD
ENDBRANCH   1  17
BRANCH   6  20
ATOM     20  S   UNL     1      -0.416   4.026  -2.408  0.00  0.00    +0.068 S 
ATOM     21  O   UNL     1      -0.349   3.199  -3.561  0.00  0.00    -0.152 OA
ATOM     22  O   UNL     1      -1.220   5.196  -2.355  0.00  0.00    -0.152 OA
BRANCH  20  23
ATOM     23  C   UNL     1       1.234   4.532  -2.055  0.00  0.00    +0.143 A 
ATOM     24  C   UNL     1       2.402   3.930  -2.389  0.00  0.00    +0.036 A 
ATOM     25  C   UNL     1       3.593   4.518  -2.004  0.00  0.00    +0.010 A 
ATOM     26  C   UNL     1       3.558   5.672  -1.295  0.00  0.00    +0.047 A 
ATOM     27  S   UNL     1       1.802   5.967  -1.157  0.00  0.00    -0.077 S 
ENDBRANCH  20  23
ENDBRANCH   6  20
TORSDOF 3
