REMARK  Name = ZINC38667091
REMARK  8 active torsions:
REMARK  status: ('A' for Active; 'I' for Inactive)
REMARK    1  A    between atoms: C_1  and  C_2
REMARK    2  A    between atoms: C_3  and  C_16
REMARK    3  A    between atoms: N_6  and  C_8
REMARK    4  A    between atoms: C_16  and  O_18
REMARK    5  A    between atoms: O_18  and  C_19
REMARK    6  A    between atoms: C_19  and  C_20
REMARK    7  A    between atoms: C_20  and  C_22
REMARK    8  A    between atoms: C_30  and  C_32
REMARK                            x       y       z     vdW  Elec       q    Type
REMARK                         _______ _______ _______ _____ _____    ______ ____
ROOT
ATOM      1  C   UNL     1      -4.782  -0.697   0.022  0.00  0.00    +0.311 C 
ENDROOT
BRANCH   1   2
ATOM      2  C   UNL     1      -5.771  -1.835   0.021  0.00  0.00    +0.199 C 
ATOM      3  O   UNL     1      -5.375  -2.983   0.013  0.00  0.00    -0.289 OA
BRANCH   2   4
ATOM      4  C   UNL     1      -7.156  -1.566   0.030  0.00  0.00    +0.034 C 
ATOM      5  C   UNL     1      -7.767  -0.325   0.034  0.00  0.00    +0.007 A 
ATOM      6  C   UNL     1      -7.262   0.997   0.031  0.00  0.00    +0.010 A 
ATOM      7  C   UNL     1      -8.109   2.050   0.036  0.00  0.00    +0.001 A 
ATOM      8  C   UNL     1      -9.505   1.895   0.045  0.00  0.00    +0.002 A 
ATOM      9  C   UNL     1     -10.088   0.677   0.048  0.00  0.00    +0.026 A 
ATOM     10  C   UNL     1      -9.237  -0.524   0.042  0.00  0.00    +0.044 A 
ATOM     11  N   UNL     1      -9.526  -1.794   0.044  0.00  0.00    -0.373 N 
ATOM     12  C   UNL     1      -8.284  -2.574   0.030  0.00  0.00    +0.144 C 
ATOM     13  H   UNL     1     -10.421  -2.166   0.049  0.00  0.00    +0.161 HD
BRANCH  12  14
ATOM     14  C   UNL     1      -8.205  -3.440   1.261  0.00  0.00    -0.021 A 
ATOM     15  C   UNL     1      -8.688  -2.970   2.468  0.00  0.00    +0.006 A 
ATOM     16  C   UNL     1      -8.616  -3.765   3.598  0.00  0.00    +0.000 A 
ATOM     17  C   UNL     1      -8.061  -5.028   3.519  0.00  0.00    +0.000 A 
ATOM     18  C   UNL     1      -7.579  -5.498   2.312  0.00  0.00    +0.000 A 
ATOM     19  C   UNL     1      -7.655  -4.705   1.182  0.00  0.00    +0.006 A 
ENDBRANCH  12  14
ENDBRANCH   2   4
ENDBRANCH   1   2
BRANCH   1  20
ATOM     20  O   UNL     1      -3.453  -1.221   0.013  0.00  0.00    -0.453 OA
BRANCH  20  21
ATOM     21  C   UNL     1      -2.442  -0.327   0.012  0.00  0.00    +0.340 C 
ATOM     22  O   UNL     1      -2.684   0.865   0.020  0.00  0.00    -0.245 OA
BRANCH  21  25
ATOM     23  C   UNL     1      -0.018   1.503   0.010  0.00  0.00    +0.062 C 
ATOM     24  C   UNL     1       0.002  -0.004   0.002  0.00  0.00    +0.032 C 
ATOM     25  C   UNL     1      -1.103  -0.776   0.003  0.00  0.00    +0.091 C 
ATOM     26  C   UNL     1      -0.634  -2.215  -0.007  0.00  0.00    +0.223 C 
ATOM     27  N   UNL     1       0.835  -2.119  -0.013  0.00  0.00    -0.231 N 
ATOM     28  N   UNL     1       1.136  -0.751  -0.013  0.00  0.00    -0.266 N 
ATOM     29 CL   UNL     1      -1.207  -3.075   1.471  0.00  0.00    -0.094 Cl
ATOM     30  H   UNL     1       2.034  -0.386  -0.021  0.00  0.00    +0.170 HD
BRANCH  27  31
ATOM     31  C   UNL     1       1.746  -3.179  -0.024  0.00  0.00    +0.050 A 
ATOM     32  C   UNL     1       1.288  -4.490  -0.034  0.00  0.00    +0.027 A 
ATOM     33  C   UNL     1       2.190  -5.536  -0.044  0.00  0.00    +0.040 A 
ATOM     34  C   UNL     1       3.550  -5.278  -0.043  0.00  0.00    +0.124 A 
ATOM     35  C   UNL     1       4.010  -3.972  -0.032  0.00  0.00    +0.040 A 
ATOM     36  C   UNL     1       3.111  -2.923  -0.029  0.00  0.00    +0.027 A 
ATOM     37  F   UNL     1       4.431  -6.303  -0.052  0.00  0.00    -0.205 F 
ENDBRANCH  27  31
ENDBRANCH  21  25
ENDBRANCH  20  21
ENDBRANCH   1  20
TORSDOF 7
