REMARK  Name = ZINC35453110
REMARK  10 active torsions:
REMARK  status: ('A' for Active; 'I' for Inactive)
REMARK    1  A    between atoms: C_1  and  C_2
REMARK    2  A    between atoms: C_2  and  C_3
REMARK    3  A    between atoms: C_10  and  C_32
REMARK    4  A    between atoms: C_11  and  S_15
REMARK    5  A    between atoms: S_15  and  N_18
REMARK    6  A    between atoms: N_18  and  C_19
REMARK    7  A    between atoms: N_18  and  C_20
REMARK    8  A    between atoms: C_20  and  C_21
REMARK    9  A    between atoms: N_23  and  C_24
REMARK   10  A    between atoms: C_27  and  C_31
REMARK                            x       y       z     vdW  Elec       q    Type
REMARK                         _______ _______ _______ _____ _____    ______ ____
ROOT
ATOM      1  S   UNL     1      -1.233  -0.021  -6.728  0.00  0.00    +0.061 S 
ATOM      2  O   UNL     1      -1.981  -0.707  -7.723  0.00  0.00    -0.153 OA
ATOM      3  O   UNL     1      -1.489   1.333  -6.382  0.00  0.00    -0.153 OA
ENDROOT
BRANCH   1  11
ATOM      4  C   UNL     1       0.154  -4.534  -2.557  0.00  0.00    +0.259 C 
ATOM      5  C   UNL     1      -0.872  -4.184  -1.510  0.00  0.00    +0.258 C 
ATOM      6  O   UNL     1      -0.895  -4.782  -0.455  0.00  0.00    -0.271 OA
ATOM      7  N   UNL     1      -1.765  -3.200  -1.750  0.00  0.00    -0.280 N 
ATOM      8  C   UNL     1      -1.643  -2.436  -2.919  0.00  0.00    +0.076 A 
ATOM      9  C   UNL     1      -2.659  -1.580  -3.310  0.00  0.00    +0.032 A 
ATOM     10  C   UNL     1      -2.529  -0.843  -4.473  0.00  0.00    -0.022 A 
ATOM     11  C   UNL     1      -1.387  -0.958  -5.245  0.00  0.00    +0.112 A 
ATOM     12  C   UNL     1      -0.367  -1.807  -4.857  0.00  0.00    +0.076 A 
ATOM     13  C   UNL     1      -0.488  -2.544  -3.691  0.00  0.00    +0.145 A 
ATOM     14  O   UNL     1       0.521  -3.358  -3.283  0.00  0.00    -0.478 OA
ATOM     15  C   UNL     1      -3.633   0.089  -4.899  0.00  0.00    +0.046 C 
ATOM     16  H   UNL     1      -2.483  -3.025  -1.122  0.00  0.00    +0.155 HD
BRANCH   4  18
ATOM     17  C   UNL     1       0.645  -6.015  -4.508  0.00  0.00    +0.008 C 
ATOM     18  C   UNL     1      -0.434  -5.565  -3.522  0.00  0.00    +0.051 C 
ENDBRANCH   4  18
ENDBRANCH   1  11
BRANCH   1  19
ATOM     19  N   UNL     1       0.354  -0.098  -7.193  0.00  0.00    -0.171 NA
ATOM     20  C   UNL     1       0.829  -1.230  -7.993  0.00  0.00    +0.132 C 
BRANCH  19  21
ATOM     21  C   UNL     1       1.284   0.966  -6.805  0.00  0.00    +0.205 C 
BRANCH  21  22
ATOM     22  C   UNL     1       2.189   0.467  -5.708  0.00  0.00    +0.233 C 
ATOM     23  O   UNL     1       2.135  -0.693  -5.358  0.00  0.00    -0.274 OA
ATOM     24  N   UNL     1       3.058   1.310  -5.116  0.00  0.00    -0.283 N 
ATOM     25  H   UNL     1       3.051   2.252  -5.344  0.00  0.00    +0.155 HD
BRANCH  24  26
ATOM     26  C   UNL     1       3.970   0.824  -4.172  0.00  0.00    +0.052 A 
ATOM     27  C   UNL     1       4.483  -0.460  -4.296  0.00  0.00    +0.025 A 
ATOM     28  C   UNL     1       5.384  -0.936  -3.363  0.00  0.00    +0.005 A 
ATOM     29  C   UNL     1       5.775  -0.135  -2.306  0.00  0.00    -0.049 A 
ATOM     30  C   UNL     1       5.268   1.144  -2.179  0.00  0.00    +0.025 A 
ATOM     31  C   UNL     1       4.370   1.629  -3.112  0.00  0.00    +0.062 A 
ATOM     32 CL   UNL     1       3.738   3.238  -2.956  0.00  0.00    -0.082 Cl
ATOM     33  C   UNL     1       6.758  -0.659  -1.290  0.00  0.00    +0.044 C 
ENDBRANCH  24  26
ENDBRANCH  21  22
ENDBRANCH  19  21
ENDBRANCH   1  19
TORSDOF 6
