REMARK  Name = ZINC08635478
REMARK  7 active torsions:
REMARK  status: ('A' for Active; 'I' for Inactive)
REMARK    1  A    between atoms: C_1  and  N_2
REMARK    2  A    between atoms: C_3  and  C_17
REMARK    3  A    between atoms: C_5  and  C_7
REMARK    4  A    between atoms: C_25  and  C_27
REMARK    5  A    between atoms: C_27  and  N_28
REMARK    6  A    between atoms: N_28  and  S_29
REMARK    7  A    between atoms: S_29  and  C_32
REMARK                            x       y       z     vdW  Elec       q    Type
REMARK                         _______ _______ _______ _____ _____    ______ ____
ROOT
ATOM      1  C   UNL     1      -6.113   1.023   0.148  0.00  0.00    +0.024 C 
ATOM      2  C   UNL     1      -6.527   1.205   1.611  0.00  0.00    -0.068 C 
ATOM      3  C   UNL     1      -8.236   2.804   0.987  0.00  0.00    -0.078 C 
ATOM      4  C   UNL     1      -7.871   2.668  -0.494  0.00  0.00    -0.015 C 
ATOM      5  C   UNL     1      -6.379   2.329  -0.610  0.00  0.00    -0.007 C 
ATOM      6  C   UNL     1      -5.572   3.453   0.053  0.00  0.00    -0.010 C 
ATOM      7  C   UNL     1      -6.001   3.568   1.524  0.00  0.00    -0.053 C 
ATOM      8  N   UNL     1      -7.048   2.570   1.835  0.00  0.00    +0.383 N 
ATOM      9  H   UNL     1      -7.318   2.667   2.821  0.00  0.00    -0.081 HD
ENDROOT
BRANCH   1  12
ATOM     10  C   UNL     1      -4.356   0.958  -2.400  0.00  0.00    +0.172 C 
ATOM     11  N   UNL     1      -3.891   0.663  -1.043  0.00  0.00    -0.271 N 
ATOM     12  C   UNL     1      -4.646   0.687   0.076  0.00  0.00    +0.041 A 
ATOM     13  C   UNL     1      -3.854   0.358   1.121  0.00  0.00    +0.053 A 
ATOM     14  C   UNL     1      -2.558   0.122   0.622  0.00  0.00    +0.093 A 
ATOM     15  N   UNL     1      -2.584   0.312  -0.680  0.00  0.00    -0.171 NA
BRANCH  14  16
ATOM     16  C   UNL     1      -1.372  -0.267   1.424  0.00  0.00    +0.003 A 
ATOM     17  C   UNL     1      -1.495  -0.434   2.813  0.00  0.00    +0.011 A 
ATOM     18  C   UNL     1      -0.423  -0.784   3.570  0.00  0.00    +0.009 A 
ATOM     19  C   UNL     1       0.829  -0.989   2.964  0.00  0.00    -0.018 A 
ATOM     20  C   UNL     1       1.953  -1.352   3.725  0.00  0.00    +0.008 A 
ATOM     21  C   UNL     1       3.151  -1.544   3.110  0.00  0.00    +0.001 A 
ATOM     22  C   UNL     1       3.284  -1.386   1.731  0.00  0.00    +0.001 A 
ATOM     23  C   UNL     1       2.218  -1.036   0.961  0.00  0.00    +0.008 A 
ATOM     24  C   UNL     1       0.964  -0.829   1.562  0.00  0.00    -0.017 A 
ATOM     25  C   UNL     1      -0.157  -0.467   0.797  0.00  0.00    +0.018 A 
ENDBRANCH  14  16
ENDBRANCH   1  12
BRANCH   7  26
ATOM     26  C   UNL     1      -4.794   3.321   2.431  0.00  0.00    +0.090 C 
BRANCH  26  27
ATOM     27  N   UNL     1      -5.228   3.310   3.830  0.00  0.00    -0.191 NA
ATOM     28  H   UNL     1      -6.102   3.657   4.070  0.00  0.00    +0.148 HD
BRANCH  27  29
ATOM     29  S   UNL     1      -4.228   2.704   5.003  0.00  0.00    +0.058 S 
ATOM     30  O   UNL     1      -4.912   2.855   6.239  0.00  0.00    -0.153 OA
ATOM     31  O   UNL     1      -3.770   1.443   4.535  0.00  0.00    -0.153 OA
BRANCH  29  32
ATOM     32  C   UNL     1      -2.816   3.756   5.077  0.00  0.00    +0.105 A 
ATOM     33  C   UNL     1      -1.711   3.486   4.291  0.00  0.00    +0.028 A 
ATOM     34  C   UNL     1      -0.605   4.314   4.346  0.00  0.00    +0.002 A 
ATOM     35  C   UNL     1      -0.601   5.405   5.194  0.00  0.00    +0.000 A 
ATOM     36  C   UNL     1      -1.704   5.672   5.984  0.00  0.00    +0.002 A 
ATOM     37  C   UNL     1      -2.811   4.847   5.925  0.00  0.00    +0.028 A 
ENDBRANCH  29  32
ENDBRANCH  27  29
ENDBRANCH  26  27
ENDBRANCH   7  26
TORSDOF 6
