REMARK  Name = ZINC65265920
REMARK  5 active torsions:
REMARK  status: ('A' for Active; 'I' for Inactive)
REMARK    1  A    between atoms: C_1  and  C_2
REMARK    2  A    between atoms: C_2  and  C_3
REMARK    3  A    between atoms: C_2  and  C_4
REMARK    4  A    between atoms: C_2  and  C_5
REMARK    5  A    between atoms: N_22  and  C_23
REMARK                            x       y       z     vdW  Elec       q    Type
REMARK                         _______ _______ _______ _____ _____    ______ ____
ROOT
ATOM      1  C   UNL     1       0.949  -0.698  -1.389  0.00  0.00    +0.221 C 
ATOM      2  O   UNL     1       1.641   0.045  -2.052  0.00  0.00    -0.275 OA
ATOM      3  N   UNL     1       0.861  -2.004  -1.710  0.00  0.00    -0.299 N 
ATOM      4  C   UNL     1      -0.011  -2.995  -1.051  0.00  0.00    +0.110 C 
ATOM      5  C   UNL     1      -0.219  -4.111  -2.109  0.00  0.00    +0.050 C 
ATOM      6  C   UNL     1       1.157  -4.139  -2.798  0.00  0.00    +0.091 C 
ATOM      7  C   UNL     1       1.615  -2.677  -2.781  0.00  0.00    +0.137 C 
ATOM      8  C   UNL     1       1.072  -4.681  -4.185  0.00  0.00    +0.095 C 
ATOM      9  N   UNL     1       1.242  -6.037  -4.328  0.00  0.00    -0.303 N 
ATOM     10  C   UNL     1       2.526  -6.537  -4.519  0.00  0.00    +0.037 A 
ATOM     11  C   UNL     1       2.759  -7.496  -5.495  0.00  0.00    +0.023 A 
ATOM     12  C   UNL     1       4.029  -8.005  -5.678  0.00  0.00    +0.002 A 
ATOM     13  C   UNL     1       5.065  -7.553  -4.880  0.00  0.00    +0.000 A 
ATOM     14  C   UNL     1       4.834  -6.597  -3.914  0.00  0.00    +0.007 A 
ATOM     15  C   UNL     1       3.562  -6.066  -3.722  0.00  0.00    -0.012 A 
ATOM     16  C   UNL     1       3.422  -5.000  -2.667  0.00  0.00    +0.119 C 
ATOM     17  N   UNL     1       2.096  -4.994  -2.036  0.00  0.00    -0.299 NA
ATOM     18  N   UNL     1       0.850  -3.913  -5.202  0.00  0.00    -0.372 N 
ATOM     19  H   UNL     1       2.154  -4.697  -1.073  0.00  0.00    +0.123 HD
ATOM     20  H   UNL     1       0.641  -2.976  -5.065  0.00  0.00    +0.161 HD
ATOM     21  H   UNL     1       0.479  -6.635  -4.295  0.00  0.00    +0.153 HD
ENDROOT
BRANCH  18  22
ATOM     22  C   UNL     1       0.914  -4.460  -6.559  0.00  0.00    +0.080 C 
ATOM     23  C   UNL     1       2.359  -4.382  -7.093  0.00  0.00    +0.024 C 
ATOM     24  C   UNL     1       2.192  -4.038  -8.594  0.00  0.00    +0.002 C 
ATOM     25  C   UNL     1       0.999  -3.050  -8.587  0.00  0.00    +0.002 C 
ATOM     26  C   UNL     1       0.049  -3.613  -7.509  0.00  0.00    +0.024 C 
ENDBRANCH  18  22
BRANCH   1  28
ATOM     27  C   UNL     1       0.639   1.273   0.085  0.00  0.00    +0.020 C 
ATOM     28  C   UNL     1       0.187  -0.160  -0.205  0.00  0.00    +0.039 C 
ATOM     29  C   UNL     1       0.459  -1.038   1.018  0.00  0.00    +0.020 C 
ATOM     30  C   UNL     1      -1.311  -0.169  -0.516  0.00  0.00    +0.020 C 
ENDBRANCH   1  28
TORSDOF 2
