REMARK  Name = ZINC39992074
REMARK  7 active torsions:
REMARK  status: ('A' for Active; 'I' for Inactive)
REMARK    1  A    between atoms: C_1  and  C_2
REMARK    2  A    between atoms: C_2  and  N_3
REMARK    3  A    between atoms: C_4  and  C_6
REMARK    4  A    between atoms: C_10  and  N_11
REMARK    5  A    between atoms: C_12  and  C_14
REMARK    6  A    between atoms: C_14  and  C_23
REMARK    7  A    between atoms: C_15  and  C_16
REMARK                            x       y       z     vdW  Elec       q    Type
REMARK                         _______ _______ _______ _____ _____    ______ ____
ROOT
ATOM      1  C   UNL     1      -3.183  -1.675   0.074  0.00  0.00    +0.069 A 
ATOM      2  C   UNL     1      -3.983  -1.679  -1.138  0.00  0.00    -0.023 A 
ATOM      3  C   UNL     1      -5.276  -2.017  -0.947  0.00  0.00    -0.004 A 
ATOM      4  S   UNL     1      -5.408  -2.319   0.791  0.00  0.00    -0.077 S 
ATOM      5  C   UNL     1      -3.823  -2.017   1.256  0.00  0.00    +0.085 A 
ATOM      6  C   UNL     1      -6.346  -2.110  -1.990  0.00  0.00    +0.043 C 
ATOM      7  C   UNL     1      -5.847  -1.398  -3.256  0.00  0.00    +0.005 C 
ATOM      8  C   UNL     1      -4.428  -1.880  -3.570  0.00  0.00    +0.005 C 
ATOM      9  C   UNL     1      -3.451  -1.338  -2.523  0.00  0.00    +0.037 C 
ENDROOT
BRANCH   1  11
ATOM     10  N   UNL     1      -1.372  -0.051   0.216  0.00  0.00    -0.312 N 
ATOM     11  C   UNL     1      -1.759  -1.331   0.049  0.00  0.00    +0.247 C 
ATOM     12  O   UNL     1      -0.925  -2.201  -0.123  0.00  0.00    -0.270 OA
ATOM     13  H   UNL     1      -2.036   0.643   0.353  0.00  0.00    +0.149 HD
BRANCH  10  15
ATOM     14  C   UNL     1       0.217   1.800   0.403  0.00  0.00    +0.024 C 
ATOM     15  C   UNL     1       0.052   0.293   0.191  0.00  0.00    +0.101 C 
ENDBRANCH  10  15
ENDBRANCH   1  11
BRANCH   5  16
ATOM     16  N   UNL     1      -3.280  -2.090   2.528  0.00  0.00    -0.275 N 
ATOM     17  C   UNL     1      -4.056  -2.442   3.573  0.00  0.00    +0.259 C 
ATOM     18  O   UNL     1      -5.232  -2.696   3.398  0.00  0.00    -0.269 OA
ATOM     19  H   UNL     1      -2.341  -1.888   2.667  0.00  0.00    +0.156 HD
BRANCH  17  20
ATOM     20  C   UNL     1      -3.479  -2.521   4.924  0.00  0.00    +0.114 C 
ATOM     21  C   UNL     1      -4.271  -2.880   5.991  0.00  0.00    +0.034 C 
BRANCH  21  22
ATOM     22  C   UNL     1      -3.738  -2.814   7.355  0.00  0.00    +0.012 A 
ATOM     23  C   UNL     1      -2.795  -1.835   7.697  0.00  0.00    +0.011 A 
ATOM     24  C   UNL     1      -2.300  -1.780   8.981  0.00  0.00    +0.001 A 
ATOM     25  C   UNL     1      -2.729  -2.688   9.935  0.00  0.00    +0.003 A 
ATOM     26  C   UNL     1      -3.659  -3.659   9.609  0.00  0.00    +0.039 A 
ATOM     27  C   UNL     1      -4.172  -3.728   8.328  0.00  0.00    +0.131 A 
ATOM     28  F   UNL     1      -5.084  -4.673   8.012  0.00  0.00    -0.205 F 
ENDBRANCH  21  22
BRANCH  20  29
ATOM     29  C   UNL     1      -2.093  -2.222   5.129  0.00  0.00    +0.104 C 
ATOM     30  N   UNL     1      -0.994  -1.986   5.292  0.00  0.00    -0.191 NA
ENDBRANCH  20  29
ENDBRANCH  17  20
ENDBRANCH   5  16
TORSDOF 6
