REMARK  Name = ZINC08432905
REMARK  3 active torsions:
REMARK  status: ('A' for Active; 'I' for Inactive)
REMARK    1  A    between atoms: N_13  and  C_16
REMARK    2  A    between atoms: C_16  and  C_17
REMARK    3  A    between atoms: C_23  and  C_25
REMARK                            x       y       z     vdW  Elec       q    Type
REMARK                         _______ _______ _______ _____ _____    ______ ____
ROOT
ATOM      1  C   UNL     1      -7.059   2.556   2.703  0.00  0.00    +0.010 C 
ATOM      2  C   UNL     1      -7.471   1.779   1.451  0.00  0.00    +0.024 C 
ATOM      3  C   UNL     1      -6.453   0.665   1.189  0.00  0.00    +0.108 C 
ATOM      4  N   UNL     1      -5.111   1.259   1.115  0.00  0.00    -0.301 N 
ATOM      5  C   UNL     1      -4.647   2.096   2.230  0.00  0.00    +0.108 C 
ATOM      6  C   UNL     1      -5.688   3.199   2.479  0.00  0.00    +0.024 C 
ATOM      7  C   UNL     1      -4.318   1.035   0.049  0.00  0.00    +0.222 C 
ATOM      8  O   UNL     1      -4.744   0.417  -0.904  0.00  0.00    -0.275 OA
ENDROOT
BRANCH   7   9
ATOM      9  C   UNL     1      -2.903   1.552   0.040  0.00  0.00    +0.048 C 
ATOM     10  C   UNL     1      -2.172   1.018  -1.193  0.00  0.00    +0.019 C 
ATOM     11  C   UNL     1      -0.735   1.543  -1.202  0.00  0.00    -0.009 C 
ATOM     12  C   UNL     1      -0.012   1.073   0.062  0.00  0.00    +0.007 C 
ATOM     13  C   UNL     1      -0.743   1.607   1.296  0.00  0.00    -0.009 C 
ATOM     14  C   UNL     1      -2.180   1.082   1.304  0.00  0.00    +0.019 C 
ATOM     15  C   UNL     1      -0.759   3.136   1.256  0.00  0.00    +0.007 C 
ATOM     16  C   UNL     1      -1.482   3.607  -0.007  0.00  0.00    -0.009 C 
ATOM     17  C   UNL     1      -0.751   3.072  -1.241  0.00  0.00    +0.007 C 
ATOM     18  C   UNL     1      -2.919   3.082   0.001  0.00  0.00    +0.019 C 
ENDBRANCH   7   9
BRANCH   1  19
ATOM     19  C   UNL     1      -8.092   3.648   2.989  0.00  0.00    +0.120 C 
BRANCH  19  32
ATOM     20  C   UNL     1      -5.465   7.819   6.695  0.00  0.00    +0.001 A 
ATOM     21  C   UNL     1      -5.965   7.365   7.882  0.00  0.00    +0.008 A 
ATOM     22  C   UNL     1      -6.810   6.242   7.907  0.00  0.00    -0.016 A 
ATOM     23  C   UNL     1      -7.350   5.737   9.102  0.00  0.00    +0.008 A 
ATOM     24  C   UNL     1      -8.167   4.643   9.075  0.00  0.00    +0.001 A 
ATOM     25  C   UNL     1      -8.487   4.003   7.883  0.00  0.00    +0.014 A 
ATOM     26  C   UNL     1      -7.975   4.470   6.682  0.00  0.00    +0.046 A 
ATOM     27  C   UNL     1      -7.127   5.601   6.691  0.00  0.00    +0.006 A 
ATOM     28  C   UNL     1      -6.601   6.085   5.472  0.00  0.00    +0.046 A 
ATOM     29  C   UNL     1      -5.771   7.196   5.491  0.00  0.00    +0.014 A 
ATOM     30  C   UNL     1      -6.954   5.390   4.225  0.00  0.00    +0.254 C 
ATOM     31  O   UNL     1      -6.513   5.789   3.164  0.00  0.00    -0.270 OA
ATOM     32  N   UNL     1      -7.763   4.314   4.252  0.00  0.00    -0.234 N 
ATOM     33  C   UNL     1      -8.285   3.831   5.395  0.00  0.00    +0.254 C 
ATOM     34  O   UNL     1      -9.015   2.859   5.363  0.00  0.00    -0.270 OA
ENDBRANCH  19  32
ENDBRANCH   1  19
TORSDOF 3
