REMARK  Name = ZINC15228224
REMARK  9 active torsions:
REMARK  status: ('A' for Active; 'I' for Inactive)
REMARK    1  A    between atoms: C_4  and  C_7
REMARK    2  A    between atoms: C_7  and  O_8
REMARK    3  A    between atoms: O_8  and  C_9
REMARK    4  A    between atoms: N_11  and  C_12
REMARK    5  A    between atoms: C_12  and  C_13
REMARK    6  A    between atoms: N_15  and  N_16
REMARK    7  A    between atoms: C_17  and  C_18
REMARK    8  A    between atoms: N_20  and  C_27
REMARK    9  A    between atoms: C_27  and  C_28
REMARK                            x       y       z     vdW  Elec       q    Type
REMARK                         _______ _______ _______ _____ _____    ______ ____
ROOT
ATOM      1  N   UNL     1       0.139  -5.706   6.216  0.00  0.00    -0.188 NA
ATOM      2  C   UNL     1       0.159  -6.944   6.612  0.00  0.00    +0.140 C 
ENDROOT
BRANCH   2   3
ATOM      3  C   UNL     1       0.177  -7.256   8.050  0.00  0.00    +0.020 A 
ATOM      4  C   UNL     1       0.200  -8.494   8.613  0.00  0.00    +0.096 A 
ATOM      5  N   UNL     1       0.211  -8.381   9.971  0.00  0.00    -0.342 N 
ATOM      6  C   UNL     1       0.197  -7.053  10.340  0.00  0.00    +0.050 A 
ATOM      7  C   UNL     1       0.180  -6.288   9.162  0.00  0.00    +0.009 A 
ATOM      8  C   UNL     1       0.156  -4.897   9.232  0.00  0.00    +0.010 A 
ATOM      9  C   UNL     1       0.159  -4.277  10.462  0.00  0.00    +0.001 A 
ATOM     10  C   UNL     1       0.181  -5.030  11.627  0.00  0.00    +0.002 A 
ATOM     11  C   UNL     1       0.200  -6.407  11.572  0.00  0.00    +0.026 A 
BRANCH   5  12
ATOM     12  C   UNL     1       0.236  -9.509  10.905  0.00  0.00    +0.157 C 
BRANCH  12  13
ATOM     13  C   UNL     1      -1.170  -9.837  11.335  0.00  0.00    -0.028 A 
ATOM     14  C   UNL     1      -1.710  -9.229  12.454  0.00  0.00    +0.008 A 
ATOM     15  C   UNL     1      -3.001  -9.525  12.846  0.00  0.00    +0.038 A 
ATOM     16  C   UNL     1      -3.751 -10.439  12.125  0.00  0.00    +0.123 A 
ATOM     17  C   UNL     1      -3.208 -11.051  11.008  0.00  0.00    +0.038 A 
ATOM     18  C   UNL     1      -1.918 -10.749  10.614  0.00  0.00    +0.008 A 
ATOM     19  F   UNL     1      -5.012 -10.733  12.510  0.00  0.00    -0.205 F 
ENDBRANCH  12  13
ENDBRANCH   5  12
ENDBRANCH   2   3
BRANCH   1  22
ATOM     20  C   UNL     1       0.100  -4.126   4.436  0.00  0.00    +0.249 C 
ATOM     21  O   UNL     1       0.096  -3.228   5.252  0.00  0.00    -0.272 OA
ATOM     22  N   UNL     1       0.122  -5.409   4.847  0.00  0.00    -0.206 N 
ATOM     23  H   UNL     1       0.125  -6.127   4.195  0.00  0.00    +0.177 HD
BRANCH  20  24
ATOM     24  C   UNL     1       0.082  -3.806   2.964  0.00  0.00    +0.205 C 
BRANCH  24  27
ATOM     25  C   UNL     1       0.042  -1.831   1.537  0.00  0.00    +0.401 C 
ATOM     26  O   UNL     1       0.042  -2.566   0.570  0.00  0.00    -0.226 OA
ATOM     27  N   UNL     1       0.060  -2.353   2.780  0.00  0.00    -0.272 N 
ATOM     28  H   UNL     1       0.060  -1.766   3.552  0.00  0.00    +0.153 HD
BRANCH  25  29
ATOM     29  O   UNL     1       0.022  -0.495   1.368  0.00  0.00    -0.446 OA
BRANCH  29  30
ATOM     30  C   UNL     1       0.002  -0.004   0.002  0.00  0.00    +0.269 C 
BRANCH  30  34
ATOM     31  C   UNL     1      -0.056   4.267   0.025  0.00  0.00    +0.000 A 
ATOM     32  C   UNL     1       1.151   3.592   0.010  0.00  0.00    +0.000 A 
ATOM     33  C   UNL     1       1.169   2.210   0.003  0.00  0.00    +0.007 A 
ATOM     34  C   UNL     1      -0.018   1.503   0.010  0.00  0.00    -0.010 A 
ATOM     35  C   UNL     1      -1.225   2.178   0.020  0.00  0.00    +0.007 A 
ATOM     36  C   UNL     1      -1.244   3.560   0.032  0.00  0.00    +0.000 A 
ENDBRANCH  30  34
ENDBRANCH  29  30
ENDBRANCH  25  29
ENDBRANCH  24  27
ENDBRANCH  20  24
ENDBRANCH   1  22
TORSDOF 9
