REMARK  Name = ZINC27356612
REMARK  4 active torsions:
REMARK  status: ('A' for Active; 'I' for Inactive)
REMARK    1  A    between atoms: C_1  and  C_2
REMARK    2  A    between atoms: C_2  and  C_4
REMARK    3  A    between atoms: C_2  and  N_13
REMARK    4  A    between atoms: N_9  and  C_10
REMARK                            x       y       z     vdW  Elec       q    Type
REMARK                         _______ _______ _______ _____ _____    ______ ____
ROOT
ATOM      1  C   UNL     1      -0.690   1.315  -0.346  0.00  0.00    -0.004 C 
ATOM      2  C   UNL     1       0.002  -0.004   0.002  0.00  0.00    +0.017 C 
ENDROOT
BRANCH   2   3
ATOM      3  N   UNL     1      -0.981  -0.939   0.566  0.00  0.00    +0.387 N 
ATOM      4  C   UNL     1      -1.600  -0.337   1.753  0.00  0.00    -0.077 C 
ATOM      5  C   UNL     1      -2.679  -1.273   2.303  0.00  0.00    -0.015 C 
ATOM      6  C   UNL     1      -2.035  -2.610   2.686  0.00  0.00    -0.011 C 
ATOM      7  C   UNL     1      -1.013  -2.371   3.800  0.00  0.00    +0.004 C 
ATOM      8  C   UNL     1      -0.333  -3.692   4.165  0.00  0.00    +0.000 C 
ATOM      9  C   UNL     1       0.385  -4.251   2.935  0.00  0.00    +0.000 C 
ATOM     10  C   UNL     1      -0.635  -4.498   1.822  0.00  0.00    +0.002 C 
ATOM     11  C   UNL     1      -1.340  -3.193   1.452  0.00  0.00    -0.025 C 
ATOM     12  C   UNL     1      -0.308  -2.191   0.933  0.00  0.00    -0.074 C 
ATOM     13  H   UNL     1      -1.694  -1.131  -0.122  0.00  0.00    -0.081 HD
ENDBRANCH   2   3
BRANCH   2  14
ATOM     14  C   UNL     1       0.604  -0.600  -1.244  0.00  0.00    +0.207 C 
ATOM     15  O   UNL     1      -0.030  -1.397  -1.903  0.00  0.00    -0.277 OA
ATOM     16  N   UNL     1       1.847  -0.246  -1.628  0.00  0.00    -0.242 N 
ATOM     17  C   UNL     1       2.385  -0.779  -2.743  0.00  0.00    +0.306 C 
ATOM     18  O   UNL     1       1.750  -1.578  -3.402  0.00  0.00    -0.252 OA
ATOM     19  N   UNL     1       3.628  -0.426  -3.126  0.00  0.00    -0.296 N 
ATOM     20  H   UNL     1       2.354   0.391  -1.101  0.00  0.00    +0.159 HD
ATOM     21  H   UNL     1       4.135   0.211  -2.599  0.00  0.00    +0.151 HD
BRANCH  19  22
ATOM     22  C   UNL     1       4.213  -1.005  -4.338  0.00  0.00    +0.075 C 
ATOM     23  C   UNL     1       5.671  -1.465  -4.268  0.00  0.00    +0.024 C 
ATOM     24  C   UNL     1       5.304  -0.202  -5.049  0.00  0.00    +0.024 C 
ENDBRANCH  19  22
ENDBRANCH   2  14
TORSDOF 3
