REMARK  Name = ZINC21352439
REMARK  8 active torsions:
REMARK  status: ('A' for Active; 'I' for Inactive)
REMARK    1  A    between atoms: C_1  and  C_2
REMARK    2  A    between atoms: C_2  and  C_3
REMARK    3  A    between atoms: C_2  and  C_4
REMARK    4  A    between atoms: C_2  and  C_5
REMARK    5  A    between atoms: C_18  and  C_20
REMARK    6  A    between atoms: C_20  and  C_21
REMARK    7  A    between atoms: C_21  and  C_22
REMARK    8  A    between atoms: N_24  and  C_25
REMARK                            x       y       z     vdW  Elec       q    Type
REMARK                         _______ _______ _______ _____ _____    ______ ____
ROOT
ATOM      1  C   UNL     1       0.695  -0.469  -1.296  0.00  0.00    -0.000 C 
ATOM      2  C   UNL     1       0.727  -2.001  -1.294  0.00  0.00    +0.009 C 
ATOM      3  C   UNL     1       1.221  -2.512  -2.646  0.00  0.00    +0.037 C 
ATOM      4  C   UNL     1       2.543  -1.828  -2.983  0.00  0.00    -0.023 A 
ATOM      5  C   UNL     1       2.905  -0.684  -2.356  0.00  0.00    -0.004 A 
ATOM      6  S   UNL     1       4.482  -0.254  -3.048  0.00  0.00    -0.073 S 
ATOM      7  C   UNL     1       4.653  -1.603  -4.172  0.00  0.00    +0.116 A 
ATOM      8  C   UNL     1       3.470  -2.349  -3.972  0.00  0.00    +0.075 A 
ATOM      9  C   UNL     1       3.308  -3.538  -4.760  0.00  0.00    +0.260 A 
ATOM     10  O   UNL     1       2.324  -4.251  -4.664  0.00  0.00    -0.267 OA
ATOM     11  N   UNL     1       4.317  -3.816  -5.619  0.00  0.00    -0.310 N 
ATOM     12  H   UNL     1       4.266  -4.710  -6.257  0.00  0.00    +0.170 HD
ATOM     13  C   UNL     1       5.418  -3.036  -5.742  0.00  0.00    +0.111 A 
ATOM     14  N   UNL     1       5.603  -1.941  -5.038  0.00  0.00    -0.227 NA
ATOM     15  C   UNL     1       2.137   0.056  -1.305  0.00  0.00    +0.046 C 
ENDROOT
BRANCH   1  17
ATOM     16  C   UNL     1      -0.050   1.561  -0.045  0.00  0.00    +0.011 C 
ATOM     17  C   UNL     1      -0.027   0.031  -0.043  0.00  0.00    -0.035 C 
ATOM     18  C   UNL     1       0.710  -0.466   1.202  0.00  0.00    +0.011 C 
ATOM     19  C   UNL     1      -1.461  -0.501  -0.034  0.00  0.00    +0.011 C 
ENDBRANCH   1  17
BRANCH  13  20
ATOM     20  C   UNL     1       6.480  -3.443  -6.732  0.00  0.00    +0.083 C 
BRANCH  20  21
ATOM     21  C   UNL     1       7.622  -2.425  -6.702  0.00  0.00    +0.104 C 
BRANCH  21  22
ATOM     22  C   UNL     1       8.683  -2.831  -7.691  0.00  0.00    +0.218 C 
ATOM     23  O   UNL     1       8.540  -3.836  -8.355  0.00  0.00    -0.275 OA
ATOM     24  N   UNL     1       9.791  -2.077  -7.839  0.00  0.00    -0.285 N 
ATOM     25  H   UNL     1       9.886  -1.127  -7.293  0.00  0.00    +0.155 HD
BRANCH  24  26
ATOM     26  C   UNL     1      10.820  -2.504  -8.685  0.00  0.00    +0.036 A 
ATOM     27  C   UNL     1      12.144  -2.236  -8.362  0.00  0.00    +0.023 A 
ATOM     28  C   UNL     1      13.158  -2.662  -9.196  0.00  0.00    +0.005 A 
ATOM     29  C   UNL     1      12.858  -3.347 -10.359  0.00  0.00    +0.038 A 
ATOM     30  C   UNL     1      11.539  -3.612 -10.689  0.00  0.00    +0.125 A 
ATOM     31  C   UNL     1      10.519  -3.192  -9.853  0.00  0.00    +0.061 A 
ATOM     32  F   UNL     1      11.248  -4.281 -11.826  0.00  0.00    -0.205 F 
ENDBRANCH  24  26
ENDBRANCH  21  22
ENDBRANCH  20  21
ENDBRANCH  13  20
TORSDOF 5
