REMARK  Name = ZINC12370965
REMARK  7 active torsions:
REMARK  status: ('A' for Active; 'I' for Inactive)
REMARK    1  A    between atoms: C_1  and  O_2
REMARK    2  A    between atoms: O_2  and  C_3
REMARK    3  A    between atoms: C_6  and  C_9
REMARK    4  A    between atoms: N_12  and  C_13
REMARK    5  A    between atoms: C_16  and  O_19
REMARK    6  A    between atoms: O_19  and  C_20
REMARK    7  A    between atoms: C_23  and  O_28
REMARK                            x       y       z     vdW  Elec       q    Type
REMARK                         _______ _______ _______ _____ _____    ______ ____
ROOT
ATOM      1  C   UNL     1      -5.051  -2.590   0.316  0.00  0.00    +0.138 A 
ATOM      2  C   UNL     1      -5.036  -3.944   0.236  0.00  0.00    +0.073 A 
ATOM      3  C   UNL     1      -6.263  -4.652   0.134  0.00  0.00    +0.054 A 
ATOM      4  N   UNL     1      -6.291  -5.973   0.054  0.00  0.00    -0.354 N 
ATOM      5  C   UNL     1      -7.509  -3.854   0.120  0.00  0.00    +0.044 A 
ATOM      6  C   UNL     1      -8.756  -4.463   0.022  0.00  0.00    +0.059 A 
ATOM      7  C   UNL     1      -9.898  -3.682   0.013  0.00  0.00    +0.118 A 
ATOM      8  C   UNL     1      -9.797  -2.298   0.100  0.00  0.00    +0.049 A 
ATOM      9  C   UNL     1      -8.564  -1.688   0.196  0.00  0.00    +0.050 A 
ATOM     10  C   UNL     1      -7.408  -2.458   0.208  0.00  0.00    +0.138 A 
ATOM     11  O   UNL     1      -6.192  -1.877   0.307  0.00  0.00    -0.455 OA
ATOM     12  H   UNL     1      -5.525  -6.493   0.345  0.00  0.00    +0.166 HD
ENDROOT
BRANCH   1  16
ATOM     13  C   UNL     1      -1.356  -0.522   0.624  0.00  0.00    +0.120 A 
ATOM     14  C   UNL     1      -2.549   0.190   0.612  0.00  0.00    +0.046 A 
ATOM     15  C   UNL     1      -3.750  -0.477   0.512  0.00  0.00    +0.015 A 
ATOM     16  C   UNL     1      -3.767  -1.871   0.423  0.00  0.00    +0.018 A 
ATOM     17  C   UNL     1      -2.565  -2.583   0.435  0.00  0.00    +0.015 A 
ATOM     18  C   UNL     1      -1.368  -1.908   0.529  0.00  0.00    +0.046 A 
BRANCH  13  20
ATOM     19  C   UNL     1      -0.233   1.564   0.816  0.00  0.00    +0.277 C 
ATOM     20  O   UNL     1      -0.174   0.140   0.722  0.00  0.00    -0.495 OA
ENDBRANCH  13  20
ENDBRANCH   1  16
BRANCH   4  21
ATOM     21  C   UNL     1      -7.397  -6.604  -0.437  0.00  0.00    +0.040 A 
ATOM     22  C   UNL     1      -7.835  -6.341  -1.739  0.00  0.00    +0.029 A 
ATOM     23  C   UNL     1      -8.953  -6.981  -2.230  0.00  0.00    +0.047 A 
ATOM     24  C   UNL     1      -9.644  -7.886  -1.435  0.00  0.00    +0.120 A 
ATOM     25  C   UNL     1      -9.213  -8.150  -0.141  0.00  0.00    +0.047 A 
ATOM     26  C   UNL     1      -8.094  -7.520   0.358  0.00  0.00    +0.029 A 
BRANCH  24  27
ATOM     27  O   UNL     1     -10.746  -8.514  -1.924  0.00  0.00    -0.495 OA
ATOM     28  C   UNL     1     -11.409  -9.432  -1.053  0.00  0.00    +0.277 C 
ENDBRANCH  24  27
ENDBRANCH   4  21
BRANCH   7  29
ATOM     29  O   UNL     1     -11.121  -4.269  -0.082  0.00  0.00    -0.507 OA
ATOM     30  H   UNL     1     -11.518  -4.491   0.771  0.00  0.00    +0.292 HD
ENDBRANCH   7  29
TORSDOF 5
