REMARK  Name = ZINC20921572
REMARK  8 active torsions:
REMARK  status: ('A' for Active; 'I' for Inactive)
REMARK    1  A    between atoms: C_1  and  C_2
REMARK    2  A    between atoms: C_9  and  C_14
REMARK    3  A    between atoms: C_14  and  O_15
REMARK    4  A    between atoms: O_15  and  C_16
REMARK    5  A    between atoms: C_16  and  C_18
REMARK    6  A    between atoms: C_18  and  C_19
REMARK    7  A    between atoms: C_19  and  C_21
REMARK    8  A    between atoms: C_19  and  N_28
REMARK                            x       y       z     vdW  Elec       q    Type
REMARK                         _______ _______ _______ _____ _____    ______ ____
ROOT
ATOM      1  C   UNL     1      -1.641   1.431  -2.376  0.00  0.00    +0.310 C 
ATOM      2  O   UNL     1      -1.515   0.244  -2.189  0.00  0.00    -0.251 OA
ENDROOT
BRANCH   1   3
ATOM      3  O   UNL     1      -1.845   1.897  -3.618  0.00  0.00    -0.460 OA
BRANCH   3   4
ATOM      4  C   UNL     1      -1.905   0.918  -4.688  0.00  0.00    +0.268 C 
BRANCH   4  13
ATOM      5  C   UNL     1      -2.551  -1.280 -10.939  0.00  0.00    +0.045 C 
ATOM      6  C   UNL     1      -2.442  -0.520  -9.643  0.00  0.00    -0.029 A 
ATOM      7  C   UNL     1      -2.560   0.854  -9.645  0.00  0.00    +0.051 A 
ATOM      8  C   UNL     1      -2.461   1.561  -8.454  0.00  0.00    +0.140 A 
ATOM      9  C   UNL     1      -2.241   0.865  -7.253  0.00  0.00    +0.025 A 
ATOM     10  C   UNL     1      -2.124  -0.528  -7.264  0.00  0.00    +0.032 A 
ATOM     11  C   UNL     1      -2.225  -1.210  -8.457  0.00  0.00    +0.045 A 
ATOM     12 CL   UNL     1      -2.081  -2.940  -8.479  0.00  0.00    -0.083 Cl
ATOM     13  C   UNL     1      -2.139   1.621  -6.001  0.00  0.00    +0.007 A 
ATOM     14  C   UNL     1      -2.267   2.971  -6.055  0.00  0.00    +0.099 A 
ATOM     15  C   UNL     1      -2.483   3.606  -7.298  0.00  0.00    +0.338 A 
ATOM     16  O   UNL     1      -2.592   4.818  -7.333  0.00  0.00    -0.245 OA
ATOM     17  O   UNL     1      -2.575   2.907  -8.439  0.00  0.00    -0.422 OA
ENDBRANCH   4  13
ENDBRANCH   3   4
ENDBRANCH   1   3
BRANCH   1  18
ATOM     18  C   UNL     1      -1.568   2.389  -1.215  0.00  0.00    +0.147 C 
BRANCH  18  19
ATOM     19  C   UNL     1      -1.329   1.605   0.078  0.00  0.00    +0.115 C 
BRANCH  19  20
ATOM     20  C   UNL     1      -1.378   2.548   1.253  0.00  0.00    -0.027 A 
ATOM     21  C   UNL     1      -0.320   3.404   1.497  0.00  0.00    +0.007 A 
ATOM     22  C   UNL     1      -0.367   4.272   2.571  0.00  0.00    +0.020 A 
ATOM     23  C   UNL     1      -1.469   4.277   3.409  0.00  0.00    +0.041 A 
ATOM     24  C   UNL     1      -2.525   3.416   3.167  0.00  0.00    +0.020 A 
ATOM     25  C   UNL     1      -2.479   2.552   2.089  0.00  0.00    +0.007 A 
ATOM     26 CL   UNL     1      -1.525   5.362   4.762  0.00  0.00    -0.084 Cl
ENDBRANCH  19  20
BRANCH  19  27
ATOM     27  N   UNL     1      -0.014   0.962   0.023  0.00  0.00    -0.292 N 
ATOM     28  C   UNL     1       0.218  -0.157   0.737  0.00  0.00    +0.298 C 
ATOM     29  O   UNL     1      -0.633  -0.584   1.493  0.00  0.00    -0.253 OA
ATOM     30  N   UNL     1       1.395  -0.803   0.614  0.00  0.00    -0.313 N 
ATOM     31  H   UNL     1       0.783   1.392  -0.601  0.00  0.00    +0.151 HD
ATOM     32  H   UNL     1       1.585  -1.716   1.196  0.00  0.00    +0.146 HD
ATOM     33  H   UNL     1       2.165  -0.417  -0.070  0.00  0.00    +0.146 HD
ENDBRANCH  19  27
ENDBRANCH  18  19
ENDBRANCH   1  18
TORSDOF 7
