REMARK  Name = ZINC49729916
REMARK  11 active torsions:
REMARK  status: ('A' for Active; 'I' for Inactive)
REMARK    1  A    between atoms: C_1  and  C_2
REMARK    2  A    between atoms: C_4  and  C_32
REMARK    3  A    between atoms: C_9  and  C_31
REMARK    4  A    between atoms: C_10  and  C_14
REMARK    5  A    between atoms: C_11  and  C_13
REMARK    6  A    between atoms: C_14  and  C_15
REMARK    7  A    between atoms: N_17  and  C_18
REMARK    8  A    between atoms: C_21  and  C_30
REMARK    9  A    between atoms: C_25  and  C_27
REMARK   10  A    between atoms: C_27  and  C_28
REMARK   11  A    between atoms: C_27  and  C_29
REMARK                            x       y       z     vdW  Elec       q    Type
REMARK                         _______ _______ _______ _____ _____    ______ ____
ROOT
ATOM      1  C   UNL     1      -1.709   2.968   0.420  0.00  0.00    +0.066 C 
ATOM      2  C   UNL     1      -1.525   1.493   0.170  0.00  0.00    +0.044 A 
ATOM      3  C   UNL     1      -1.638   0.979  -1.113  0.00  0.00    +0.046 A 
ATOM      4  C   UNL     1      -1.462  -0.383  -1.298  0.00  0.00    +0.044 A 
ATOM      5  N   UNL     1      -1.193  -1.147  -0.252  0.00  0.00    -0.216 NA
ATOM      6  C   UNL     1      -1.092  -0.624   0.960  0.00  0.00    +0.252 A 
ATOM      7  N   UNL     1      -1.249   0.673   1.171  0.00  0.00    -0.216 NA
ATOM      8  N   UNL     1      -0.808  -1.459   2.040  0.00  0.00    -0.202 N 
ATOM      9  C   UNL     1      -0.680  -1.075   3.337  0.00  0.00    +0.049 A 
ATOM     10  C   UNL     1      -0.405  -2.181   4.066  0.00  0.00    +0.005 A 
ATOM     11  C   UNL     1      -0.364  -3.275   3.192  0.00  0.00    +0.064 A 
ATOM     12  N   UNL     1      -0.610  -2.845   1.982  0.00  0.00    -0.169 NA
ATOM     13  C   UNL     1      -0.089  -4.704   3.582  0.00  0.00    +0.068 C 
ATOM     14  C   UNL     1      -0.817   0.328   3.868  0.00  0.00    +0.066 C 
ATOM     15  C   UNL     1      -1.575  -0.987  -2.674  0.00  0.00    +0.066 C 
ENDROOT
BRANCH  10  16
ATOM     16  C   UNL     1      -0.183  -2.228   5.555  0.00  0.00    +0.134 C 
BRANCH  16  17
ATOM     17  C   UNL     1      -1.499  -2.457   6.253  0.00  0.00    +0.218 C 
ATOM     18  O   UNL     1      -2.517  -2.570   5.604  0.00  0.00    -0.275 OA
ATOM     19  N   UNL     1      -1.544  -2.535   7.598  0.00  0.00    -0.312 N 
ATOM     20  H   UNL     1      -0.730  -2.444   8.117  0.00  0.00    +0.149 HD
BRANCH  19  21
ATOM     21  C   UNL     1      -2.824  -2.756   8.276  0.00  0.00    +0.077 C 
ATOM     22  C   UNL     1      -3.102  -4.258   8.361  0.00  0.00    +0.025 C 
ATOM     23  C   UNL     1      -4.439  -4.490   9.069  0.00  0.00    -0.012 C 
ATOM     24  C   UNL     1      -4.376  -3.903  10.480  0.00  0.00    +0.004 C 
ATOM     25  C   UNL     1      -4.098  -2.401  10.396  0.00  0.00    +0.006 C 
ATOM     26  C   UNL     1      -2.761  -2.169   9.687  0.00  0.00    +0.012 C 
ATOM     27  C   UNL     1      -5.558  -3.807   8.281  0.00  0.00    +0.007 C 
BRANCH  26  28
ATOM     28  C   UNL     1      -2.483  -0.667   9.603  0.00  0.00    -0.012 C 
ATOM     29  C   UNL     1      -3.667   0.035   8.935  0.00  0.00    +0.007 C 
ATOM     30  C   UNL     1      -2.285  -0.105  11.012  0.00  0.00    +0.007 C 
ENDBRANCH  26  28
ENDBRANCH  19  21
ENDBRANCH  16  17
ENDBRANCH  10  16
TORSDOF 4
