REMARK  Name = ZINC14129171
REMARK  6 active torsions:
REMARK  status: ('A' for Active; 'I' for Inactive)
REMARK    1  A    between atoms: C_1  and  N_2
REMARK    2  A    between atoms: C_3  and  C_24
REMARK    3  A    between atoms: C_6  and  S_7
REMARK    4  A    between atoms: S_7  and  C_8
REMARK    5  A    between atoms: C_8  and  C_9
REMARK    6  A    between atoms: N_15  and  C_16
REMARK                            x       y       z     vdW  Elec       q    Type
REMARK                         _______ _______ _______ _____ _____    ______ ____
ROOT
ATOM      1  C   UNL     1       7.244   3.515  -0.539  0.00  0.00    +0.146 A 
ATOM      2  N   UNL     1       8.128   2.979   0.285  0.00  0.00    -0.199 NA
ATOM      3  C   UNL     1       9.430   3.085   0.027  0.00  0.00    +0.217 A 
ATOM      4  N   UNL     1       9.841   3.739  -1.054  0.00  0.00    -0.181 NA
ATOM      5  C   UNL     1       8.949   4.280  -1.877  0.00  0.00    +0.224 A 
ATOM      6  N   UNL     1       7.649   4.166  -1.615  0.00  0.00    -0.198 NA
ATOM      7  N   UNL     1       9.371   4.961  -3.002  0.00  0.00    -0.284 N 
ATOM      8  N   UNL     1      10.352   2.521   0.885  0.00  0.00    -0.327 N 
ATOM      9  H   UNL     1       8.721   5.286  -3.644  0.00  0.00    +0.155 HD
ATOM     10  H   UNL     1      11.300   2.601   0.699  0.00  0.00    +0.145 HD
ATOM     11  H   UNL     1      10.051   2.043   1.674  0.00  0.00    +0.145 HD
ENDROOT
BRANCH   7  12
ATOM     12  C   UNL     1      10.737   5.180  -3.216  0.00  0.00    +0.034 A 
ATOM     13  C   UNL     1      11.586   5.382  -2.136  0.00  0.00    +0.026 A 
ATOM     14  C   UNL     1      12.934   5.593  -2.350  0.00  0.00    +0.040 A 
ATOM     15  C   UNL     1      13.437   5.615  -3.640  0.00  0.00    +0.124 A 
ATOM     16  C   UNL     1      12.591   5.420  -4.718  0.00  0.00    +0.040 A 
ATOM     17  C   UNL     1      11.243   5.203  -4.509  0.00  0.00    +0.026 A 
ATOM     18  F   UNL     1      14.755   5.827  -3.846  0.00  0.00    -0.205 F 
ENDBRANCH   7  12
BRANCH   1  19
ATOM     19  C   UNL     1       5.771   3.388  -0.247  0.00  0.00    +0.153 C 
BRANCH  19  20
ATOM     20  S   UNL     1       5.129   1.887  -1.028  0.00  0.00    -0.078 S 
BRANCH  20  26
ATOM     21  C   UNL     1       2.580  -0.130  -1.637  0.00  0.00    +0.152 C 
ATOM     22  N   UNL     1       2.451   1.094  -0.844  0.00  0.00    -0.309 N 
ATOM     23  C   UNL     1       1.317   1.583  -0.257  0.00  0.00    +0.137 A 
ATOM     24  N   UNL     1       1.641   2.687   0.355  0.00  0.00    -0.133 NA
ATOM     25  N   UNL     1       2.893   2.930   0.193  0.00  0.00    -0.122 NA
ATOM     26  C   UNL     1       3.439   1.986  -0.538  0.00  0.00    +0.192 A 
BRANCH  23  27
ATOM     27  C   UNL     1      -0.053   0.957  -0.303  0.00  0.00    +0.057 C 
ATOM     28  C   UNL     1      -1.135   1.557   0.597  0.00  0.00    +0.012 C 
ATOM     29  C   UNL     1      -1.186   1.782  -0.917  0.00  0.00    +0.012 C 
ENDBRANCH  23  27
ENDBRANCH  20  26
ENDBRANCH  19  20
ENDBRANCH   1  19
TORSDOF 5
