REMARK  Name = ZINC16694320
REMARK  3 active torsions:
REMARK  status: ('A' for Active; 'I' for Inactive)
REMARK    1  A    between atoms: N_8  and  C_12
REMARK    2  A    between atoms: C_12  and  C_13
REMARK    3  A    between atoms: C_19  and  C_21
REMARK                            x       y       z     vdW  Elec       q    Type
REMARK                         _______ _______ _______ _____ _____    ______ ____
ROOT
ATOM      1  C   UNL     1      -1.187   1.624   0.017  0.00  0.00    +0.237 C 
ATOM      2  O   UNL     1      -1.204   2.837   0.023  0.00  0.00    -0.274 OA
ATOM      3  N   UNL     1      -0.011   0.966   0.007  0.00  0.00    -0.262 N 
ATOM      4  C   UNL     1       1.184   1.677  -0.000  0.00  0.00    +0.188 A 
ATOM      5  N   UNL     1       1.386   2.984  -0.001  0.00  0.00    -0.126 NA
ATOM      6  N   UNL     1       2.547   3.479  -0.004  0.00  0.00    -0.144 NA
ATOM      7  C   UNL     1       3.610   2.699  -0.018  0.00  0.00    +0.110 A 
ATOM      8  S   UNL     1       2.822   1.093  -0.019  0.00  0.00    -0.035 S 
ATOM      9  H   UNL     1       0.002  -0.004   0.002  0.00  0.00    +0.157 HD
ENDROOT
BRANCH   7  10
ATOM     10  C   UNL     1       5.074   3.058  -0.031  0.00  0.00    +0.022 C 
ATOM     11  C   UNL     1       5.384   3.888  -1.278  0.00  0.00    +0.017 C 
ATOM     12  C   UNL     1       6.870   4.252  -1.291  0.00  0.00    -0.010 C 
ATOM     13  C   UNL     1       7.206   5.067  -0.041  0.00  0.00    +0.007 C 
ATOM     14  C   UNL     1       6.895   4.238   1.207  0.00  0.00    -0.010 C 
ATOM     15  C   UNL     1       5.410   3.873   1.220  0.00  0.00    +0.017 C 
ATOM     16  C   UNL     1       7.734   2.959   1.191  0.00  0.00    +0.007 C 
ATOM     17  C   UNL     1       7.399   2.144  -0.059  0.00  0.00    -0.010 C 
ATOM     18  C   UNL     1       7.709   2.973  -1.307  0.00  0.00    +0.007 C 
ATOM     19  C   UNL     1       5.913   1.779  -0.046  0.00  0.00    +0.017 C 
ENDBRANCH   7  10
BRANCH   1  20
ATOM     20  C   UNL     1      -2.482   0.853   0.018  0.00  0.00    +0.214 C 
BRANCH  20  28
ATOM     21  C   UNL     1      -7.450   4.038  -1.312  0.00  0.00    +0.003 C 
ATOM     22  C   UNL     1      -6.364   4.989  -1.874  0.00  0.00    +0.003 C 
ATOM     23  C   UNL     1      -5.091   4.624  -1.079  0.00  0.00    +0.035 C 
ATOM     24  C   UNL     1      -5.292   3.190  -0.584  0.00  0.00    +0.113 C 
ATOM     25  C   UNL     1      -6.667   2.720  -1.077  0.00  0.00    +0.035 C 
ATOM     26  C   UNL     1      -4.197   2.281  -1.083  0.00  0.00    +0.247 C 
ATOM     27  O   UNL     1      -3.908   2.042  -2.235  0.00  0.00    -0.273 OA
ATOM     28  N   UNL     1      -3.608   1.789   0.029  0.00  0.00    -0.215 N 
ATOM     29  C   UNL     1      -4.186   2.260   1.142  0.00  0.00    +0.310 C 
ATOM     30  O   UNL     1      -3.834   1.958   2.265  0.00  0.00    -0.252 OA
ATOM     31  N   UNL     1      -5.198   3.110   0.875  0.00  0.00    -0.285 N 
ATOM     32  H   UNL     1      -5.755   3.572   1.521  0.00  0.00    +0.151 HD
ENDBRANCH  20  28
ENDBRANCH   1  20
TORSDOF 3
