REMARK  Name = ZINC65601352
REMARK  9 active torsions:
REMARK  status: ('A' for Active; 'I' for Inactive)
REMARK    1  A    between atoms: C_1  and  C_2
REMARK    2  A    between atoms: N_5  and  C_8
REMARK    3  A    between atoms: C_8  and  C_9
REMARK    4  A    between atoms: C_8  and  C_10
REMARK    5  A    between atoms: C_10  and  N_11
REMARK    6  A    between atoms: C_12  and  C_14
REMARK    7  A    between atoms: N_16  and  C_17
REMARK    8  A    between atoms: C_19  and  N_25
REMARK    9  A    between atoms: C_26  and  C_28
REMARK                            x       y       z     vdW  Elec       q    Type
REMARK                         _______ _______ _______ _____ _____    ______ ____
ROOT
ATOM      1  C   UNL     1       1.876  -3.712   4.830  0.00  0.00    +0.303 C 
ATOM      2  O   UNL     1       0.777  -3.196   4.834  0.00  0.00    -0.265 OA
ATOM      3  N   UNL     1       2.534  -3.902   5.990  0.00  0.00    -0.275 N 
ATOM      4  H   UNL     1       3.373  -4.390   5.998  0.00  0.00    +0.155 HD
ENDROOT
BRANCH   3   5
ATOM      5  C   UNL     1       2.008  -3.397   7.184  0.00  0.00    +0.071 A 
ATOM      6  C   UNL     1       1.145  -2.310   7.158  0.00  0.00    +0.052 A 
ATOM      7  C   UNL     1       0.626  -1.811   8.343  0.00  0.00    +0.071 A 
ATOM      8  C   UNL     1       0.970  -2.401   9.555  0.00  0.00    +0.147 A 
ATOM      9  C   UNL     1       1.831  -3.483   9.579  0.00  0.00    +0.080 A 
ATOM     10  C   UNL     1       2.346  -3.987   8.398  0.00  0.00    +0.147 A 
ATOM     11  F   UNL     1       3.181  -5.049   8.424  0.00  0.00    -0.203 F 
ATOM     12  F   UNL     1       0.464  -1.915  10.710  0.00  0.00    -0.203 F 
BRANCH   7  13
ATOM     13  N   UNL     1      -0.245  -0.714   8.320  0.00  0.00    -0.283 N 
ATOM     14  C   UNL     1      -0.196   0.164   7.298  0.00  0.00    +0.214 C 
ATOM     15  O   UNL     1       0.550  -0.036   6.363  0.00  0.00    -0.276 OA
ATOM     16  C   UNL     1      -1.067   1.394   7.319  0.00  0.00    +0.109 C 
ATOM     17  H   UNL     1      -0.884  -0.586   9.039  0.00  0.00    +0.155 HD
ENDBRANCH   7  13
ENDBRANCH   3   5
BRANCH   1  19
ATOM     18  N   UNL     1       1.840  -3.943   2.380  0.00  0.00    -0.309 N 
ATOM     19  C   UNL     1       2.498  -4.134   3.540  0.00  0.00    +0.299 C 
ATOM     20  O   UNL     1       3.597  -4.649   3.537  0.00  0.00    -0.265 OA
ATOM     21  H   UNL     1       0.962  -3.531   2.382  0.00  0.00    +0.149 HD
BRANCH  18  22
ATOM     22  C   UNL     1       2.451  -4.357   1.114  0.00  0.00    +0.089 C 
BRANCH  22  23
ATOM     23  C   UNL     1       1.560  -3.918  -0.050  0.00  0.00    -0.054 C 
ATOM     24  C   UNL     1       2.210  -4.329  -1.373  0.00  0.00    -0.012 C 
BRANCH  23  29
ATOM     25  C   UNL     1       1.406   1.704  -0.993  0.00  0.00    +0.007 C 
ATOM     26  C   UNL     1       1.629   0.199  -1.149  0.00  0.00    -0.018 C 
ATOM     27  C   UNL     1       2.556  -0.299  -0.037  0.00  0.00    -0.016 C 
ATOM     28  C   UNL     1       2.711  -1.817  -0.151  0.00  0.00    -0.078 C 
ATOM     29  N   UNL     1       1.397  -2.458  -0.018  0.00  0.00    +0.382 N 
ATOM     30  C   UNL     1       0.525  -2.040  -1.122  0.00  0.00    -0.078 C 
ATOM     31  C   UNL     1       0.286  -0.531  -1.045  0.00  0.00    -0.016 C 
ATOM     32  H   UNL     1       0.979  -2.188   0.860  0.00  0.00    -0.081 HD
ENDBRANCH  23  29
ENDBRANCH  22  23
ENDBRANCH  18  22
ENDBRANCH   1  19
TORSDOF 6
