REMARK  Name = ZINC15068827
REMARK  5 active torsions:
REMARK  status: ('A' for Active; 'I' for Inactive)
REMARK    1  A    between atoms: C_5  and  C_7
REMARK    2  A    between atoms: C_7  and  N_8
REMARK    3  A    between atoms: C_14  and  C_16
REMARK    4  A    between atoms: C_16  and  C_17
REMARK    5  A    between atoms: N_19  and  C_20
REMARK                            x       y       z     vdW  Elec       q    Type
REMARK                         _______ _______ _______ _____ _____    ______ ____
ROOT
ATOM      1  N   UNL     1       0.610  -4.360   0.797  0.00  0.00    -0.285 NA
ATOM      2  C   UNL     1      -0.605  -3.728   1.338  0.00  0.00    +0.104 C 
ATOM      3  C   UNL     1      -0.590  -2.243   0.971  0.00  0.00    +0.119 C 
ATOM      4  N   UNL     1       0.693  -1.649   1.337  0.00  0.00    -0.313 N 
ATOM      5  C   UNL     1       1.790  -2.377   1.572  0.00  0.00    +0.231 C 
ATOM      6  O   UNL     1       2.823  -1.802   1.839  0.00  0.00    -0.274 OA
ATOM      7  C   UNL     1       1.796  -3.879   1.518  0.00  0.00    +0.152 C 
ATOM      8  H   UNL     1       0.753  -0.684   1.412  0.00  0.00    +0.149 HD
ENDROOT
BRANCH   1   9
ATOM      9  C   UNL     1       0.513  -5.824   0.860  0.00  0.00    +0.123 C 
BRANCH   9  14
ATOM     10  C   UNL     1      -2.655  -7.080  -0.764  0.00  0.00    +0.000 A 
ATOM     11  C   UNL     1      -2.262  -7.198  -2.085  0.00  0.00    +0.003 A 
ATOM     12  C   UNL     1      -0.972  -6.872  -2.454  0.00  0.00    +0.038 A 
ATOM     13  C   UNL     1      -0.071  -6.426  -1.501  0.00  0.00    +0.128 A 
ATOM     14  C   UNL     1      -0.466  -6.309  -0.179  0.00  0.00    +0.002 A 
ATOM     15  C   UNL     1      -1.757  -6.636   0.188  0.00  0.00    +0.008 A 
ATOM     16  F   UNL     1       1.191  -6.107  -1.860  0.00  0.00    -0.205 F 
ENDBRANCH   9  14
ENDBRANCH   1   9
BRANCH   7  17
ATOM     17  C   UNL     1       3.057  -4.356   0.796  0.00  0.00    +0.124 C 
BRANCH  17  18
ATOM     18  C   UNL     1       3.054  -3.836  -0.619  0.00  0.00    +0.215 C 
ATOM     19  O   UNL     1       2.085  -3.243  -1.044  0.00  0.00    -0.276 OA
ATOM     20  N   UNL     1       4.127  -4.028  -1.410  0.00  0.00    -0.312 N 
ATOM     21  H   UNL     1       4.902  -4.503  -1.070  0.00  0.00    +0.149 HD
BRANCH  20  22
ATOM     22  C   UNL     1       4.124  -3.522  -2.785  0.00  0.00    +0.073 C 
ATOM     23  C   UNL     1       3.448  -4.543  -3.703  0.00  0.00    +0.022 C 
ATOM     24  C   UNL     1       3.086  -3.873  -5.030  0.00  0.00    +0.002 C 
ATOM     25  C   UNL     1       2.471  -2.499  -4.758  0.00  0.00    +0.000 C 
ATOM     26  C   UNL     1       3.413  -1.408  -5.272  0.00  0.00    +0.000 C 
ATOM     27  C   UNL     1       4.587  -1.253  -4.304  0.00  0.00    +0.000 C 
ATOM     28  C   UNL     1       5.565  -2.413  -4.498  0.00  0.00    +0.002 C 
ATOM     29  C   UNL     1       5.565  -3.296  -3.249  0.00  0.00    +0.022 C 
ENDBRANCH  20  22
ENDBRANCH  17  18
ENDBRANCH   7  17
TORSDOF 5
