REMARK  Name = ZINC22539516
REMARK  13 active torsions:
REMARK  status: ('A' for Active; 'I' for Inactive)
REMARK    1  A    between atoms: C_1  and  C_2
REMARK    2  A    between atoms: C_5  and  S_8
REMARK    3  A    between atoms: S_8  and  N_11
REMARK    4  A    between atoms: N_11  and  C_12
REMARK    5  A    between atoms: C_12  and  C_14
REMARK    6  A    between atoms: C_12  and  C_21
REMARK    7  A    between atoms: C_14  and  C_15
REMARK    8  A    between atoms: N_23  and  C_24
REMARK    9  A    between atoms: C_24  and  C_26
REMARK   10  A    between atoms: C_24  and  C_27
REMARK   11  A    between atoms: C_29  and  C_35
REMARK   12  A    between atoms: C_30  and  C_34
REMARK   13  A    between atoms: C_32  and  C_33
REMARK                            x       y       z     vdW  Elec       q    Type
REMARK                         _______ _______ _______ _____ _____    ______ ____
ROOT
ATOM      1  C   UNL     1      -3.246  -2.122  -1.860  0.00  0.00    +0.166 C 
ENDROOT
BRANCH   1   2
ATOM      2  C   UNL     1      -3.278  -0.977  -0.880  0.00  0.00    +0.232 C 
ATOM      3  O   UNL     1      -4.246  -0.248  -0.830  0.00  0.00    -0.274 OA
ATOM      4  N   UNL     1      -2.230  -0.764  -0.059  0.00  0.00    -0.307 N 
ATOM      5  H   UNL     1      -1.352  -1.425  -0.105  0.00  0.00    +0.149 HD
BRANCH   4   6
ATOM      6  C   UNL     1      -2.261   0.348   0.894  0.00  0.00    +0.100 C 
ATOM      7  C   UNL     1      -2.911  -0.116   2.199  0.00  0.00    +0.033 C 
BRANCH   6   8
ATOM      8  C   UNL     1      -0.854   0.812   1.170  0.00  0.00    -0.024 A 
ATOM      9  C   UNL     1       0.203  -0.071   1.043  0.00  0.00    +0.009 A 
ATOM     10  C   UNL     1       1.494   0.355   1.291  0.00  0.00    -0.047 A 
ATOM     11  C   UNL     1       1.728   1.663   1.672  0.00  0.00    -0.047 A 
ATOM     12  C   UNL     1       0.672   2.545   1.804  0.00  0.00    +0.007 A 
ATOM     13  C   UNL     1      -0.619   2.118   1.557  0.00  0.00    -0.045 A 
ATOM     14  C   UNL     1      -1.771   3.079   1.702  0.00  0.00    +0.044 C 
ATOM     15  C   UNL     1       3.136   2.128   1.942  0.00  0.00    +0.044 C 
ATOM     16  C   UNL     1       2.646  -0.606   1.145  0.00  0.00    +0.044 C 
ENDBRANCH   6   8
ENDBRANCH   4   6
ENDBRANCH   1   2
BRANCH   1  17
ATOM     17  N   UNL     1      -4.492  -2.139  -2.630  0.00  0.00    -0.178 NA
ATOM     18  H   UNL     1      -5.336  -2.762  -2.297  0.00  0.00    +0.149 HD
BRANCH  17  19
ATOM     19  S   UNL     1      -4.553  -1.426  -4.124  0.00  0.00    +0.059 S 
ATOM     20  O   UNL     1      -5.866  -1.641  -4.623  0.00  0.00    -0.153 OA
ATOM     21  O   UNL     1      -3.997  -0.127  -3.976  0.00  0.00    -0.153 OA
BRANCH  19  26
ATOM     22  C   UNL     1      -0.812  -4.501  -7.723  0.00  0.00    +0.044 C 
ATOM     23  C   UNL     1      -1.746  -3.733  -6.824  0.00  0.00    -0.050 A 
ATOM     24  C   UNL     1      -3.091  -4.051  -6.791  0.00  0.00    +0.005 A 
ATOM     25  C   UNL     1      -3.948  -3.346  -5.967  0.00  0.00    +0.029 A 
ATOM     26  C   UNL     1      -3.461  -2.324  -5.175  0.00  0.00    +0.105 A 
ATOM     27  C   UNL     1      -2.116  -2.003  -5.211  0.00  0.00    +0.029 A 
ATOM     28  C   UNL     1      -1.259  -2.710  -6.032  0.00  0.00    +0.005 A 
ENDBRANCH  19  26
ENDBRANCH  17  19
ENDBRANCH   1  17
BRANCH   1  29
ATOM     29  C   UNL     1      -3.098  -3.441  -1.099  0.00  0.00    +0.065 C 
BRANCH  29  30
ATOM     30  C   UNL     1      -2.966  -4.575  -2.082  0.00  0.00    -0.045 A 
ATOM     31  C   UNL     1      -4.098  -5.188  -2.587  0.00  0.00    +0.004 A 
ATOM     32  C   UNL     1      -3.977  -6.226  -3.492  0.00  0.00    +0.000 A 
ATOM     33  C   UNL     1      -2.724  -6.657  -3.885  0.00  0.00    +0.000 A 
ATOM     34  C   UNL     1      -1.592  -6.048  -3.377  0.00  0.00    +0.000 A 
ATOM     35  C   UNL     1      -1.713  -5.007  -2.475  0.00  0.00    +0.004 A 
ENDBRANCH  29  30
ENDBRANCH   1  29
TORSDOF 8
