REMARK  Name = ZINC00587468
REMARK  6 active torsions:
REMARK  status: ('A' for Active; 'I' for Inactive)
REMARK    1  A    between atoms: C_4  and  C_7
REMARK    2  A    between atoms: C_7  and  O_8
REMARK    3  A    between atoms: O_8  and  C_9
REMARK    4  A    between atoms: C_14  and  C_15
REMARK    5  A    between atoms: N_16  and  C_17
REMARK    6  A    between atoms: C_22  and  C_23
REMARK                            x       y       z     vdW  Elec       q    Type
REMARK                         _______ _______ _______ _____ _____    ______ ____
ROOT
ATOM      1  C   UNL     1      -3.635  -2.077  -0.185  0.00  0.00    +0.130 A 
ATOM      2  C   UNL     1      -4.817  -2.794  -0.283  0.00  0.00    +0.046 A 
ATOM      3  C   UNL     1      -4.786  -4.170  -0.395  0.00  0.00    +0.004 A 
ATOM      4  C   UNL     1      -3.576  -4.846  -0.410  0.00  0.00    +0.001 A 
ATOM      5  C   UNL     1      -2.390  -4.151  -0.319  0.00  0.00    +0.013 A 
ATOM      6  C   UNL     1      -2.407  -2.756  -0.200  0.00  0.00    +0.035 A 
ENDROOT
BRANCH   6   7
ATOM      7  C   UNL     1      -1.147  -2.008  -0.097  0.00  0.00    +0.123 C 
ATOM      8  N   UNL     1      -1.167  -0.707   0.009  0.00  0.00    -0.254 NA
BRANCH   8   9
ATOM      9  C   UNL     1      -0.007  -0.022   0.221  0.00  0.00    +0.076 A 
ATOM     10  C   UNL     1       0.888  -0.442   1.208  0.00  0.00    +0.028 A 
ATOM     11  C   UNL     1       2.059   0.254   1.418  0.00  0.00    +0.002 A 
ATOM     12  C   UNL     1       2.359   1.372   0.655  0.00  0.00    +0.001 A 
ATOM     13  C   UNL     1       1.490   1.804  -0.325  0.00  0.00    +0.015 A 
ATOM     14  C   UNL     1       0.299   1.115  -0.554  0.00  0.00    +0.062 A 
BRANCH  14  15
ATOM     15  C   UNL     1      -0.631   1.569  -1.605  0.00  0.00    +0.244 C 
ATOM     16  O   UNL     1      -1.665   0.962  -1.805  0.00  0.00    -0.270 OA
ATOM     17  N   UNL     1      -0.334   2.656  -2.344  0.00  0.00    -0.325 N 
ATOM     18  H   UNL     1       0.491   3.140  -2.184  0.00  0.00    +0.145 HD
ATOM     19  H   UNL     1      -0.946   2.955  -3.035  0.00  0.00    +0.145 HD
ENDBRANCH  14  15
ENDBRANCH   8   9
ENDBRANCH   6   7
BRANCH   1  20
ATOM     20  O   UNL     1      -3.665  -0.725  -0.075  0.00  0.00    -0.487 OA
BRANCH  20  21
ATOM     21  C   UNL     1      -4.952  -0.103  -0.067  0.00  0.00    +0.264 C 
BRANCH  21  25
ATOM     22  C   UNL     1      -4.486   4.128   0.295  0.00  0.00    +0.000 A 
ATOM     23  C   UNL     1      -4.521   3.541  -0.956  0.00  0.00    +0.000 A 
ATOM     24  C   UNL     1      -4.672   2.172  -1.073  0.00  0.00    +0.007 A 
ATOM     25  C   UNL     1      -4.787   1.390   0.061  0.00  0.00    -0.010 A 
ATOM     26  C   UNL     1      -4.757   1.977   1.312  0.00  0.00    +0.007 A 
ATOM     27  C   UNL     1      -4.601   3.345   1.429  0.00  0.00    +0.000 A 
ENDBRANCH  21  25
ENDBRANCH  20  21
ENDBRANCH   1  20
TORSDOF 6
