REMARK  Name = ZINC38737943
REMARK  6 active torsions:
REMARK  status: ('A' for Active; 'I' for Inactive)
REMARK    1  A    between atoms: C_6  and  C_10
REMARK    2  A    between atoms: C_10  and  C_27
REMARK    3  A    between atoms: C_11  and  C_12
REMARK    4  A    between atoms: C_15  and  O_18
REMARK    5  A    between atoms: O_18  and  C_19
REMARK    6  A    between atoms: C_19  and  C_20
REMARK                            x       y       z     vdW  Elec       q    Type
REMARK                         _______ _______ _______ _____ _____    ______ ____
ROOT
ATOM      1  C   UNL     1       3.114  -3.240  -1.169  0.00  0.00    +0.072 C 
ATOM      2  C   UNL     1       4.301  -3.881  -1.180  0.00  0.00    +0.026 C 
ENDROOT
BRANCH   1   8
ATOM      3  C   UNL     1      -1.371  -0.433   0.632  0.00  0.00    +0.002 A 
ATOM      4  C   UNL     1      -0.768   0.628  -0.068  0.00  0.00    +0.002 A 
ATOM      5  C   UNL     1       0.504   0.576  -0.510  0.00  0.00    +0.027 A 
ATOM      6  C   UNL     1       1.310  -0.627  -0.261  0.00  0.00    +0.060 A 
ATOM      7  N   UNL     1       2.534  -0.951  -0.564  0.00  0.00    -0.359 N 
ATOM      8  C   UNL     1       2.775  -2.301  -0.041  0.00  0.00    +0.216 C 
ATOM      9  N   UNL     1       1.526  -2.723   0.608  0.00  0.00    -0.359 N 
ATOM     10  C   UNL     1       0.672  -1.749   0.480  0.00  0.00    +0.060 A 
ATOM     11  C   UNL     1      -0.722  -1.580   0.914  0.00  0.00    +0.027 A 
ATOM     12  H   UNL     1       3.170  -0.400  -1.046  0.00  0.00    +0.162 HD
ATOM     13  H   UNL     1       1.367  -3.572   1.049  0.00  0.00    +0.162 HD
ENDBRANCH   1   8
BRANCH   2  14
ATOM     14  C   UNL     1       4.701  -4.669  -2.356  0.00  0.00    -0.024 A 
ATOM     15  C   UNL     1       4.376  -4.224  -3.642  0.00  0.00    +0.011 A 
ATOM     16  C   UNL     1       4.754  -4.965  -4.740  0.00  0.00    +0.046 A 
ATOM     17  C   UNL     1       5.456  -6.153  -4.572  0.00  0.00    +0.121 A 
ATOM     18  C   UNL     1       5.781  -6.599  -3.296  0.00  0.00    +0.046 A 
ATOM     19  C   UNL     1       5.413  -5.862  -2.192  0.00  0.00    +0.011 A 
BRANCH  17  20
ATOM     20  O   UNL     1       5.825  -6.880  -5.657  0.00  0.00    -0.487 OA
BRANCH  20  21
ATOM     21  C   UNL     1       6.544  -8.090  -5.413  0.00  0.00    +0.264 C 
BRANCH  21  22
ATOM     22  C   UNL     1       6.867  -8.756  -6.726  0.00  0.00    -0.010 A 
ATOM     23  C   UNL     1       5.979  -9.661  -7.278  0.00  0.00    +0.008 A 
ATOM     24  C   UNL     1       6.274 -10.272  -8.482  0.00  0.00    +0.015 A 
ATOM     25  C   UNL     1       7.457  -9.978  -9.135  0.00  0.00    +0.018 A 
ATOM     26  C   UNL     1       8.345  -9.073  -8.582  0.00  0.00    +0.015 A 
ATOM     27  C   UNL     1       8.047  -8.459  -7.381  0.00  0.00    +0.008 A 
ATOM     28 BR   UNL     1       7.862 -10.814 -10.783  0.00  0.00    -0.050 Br
ENDBRANCH  21  22
ENDBRANCH  20  21
ENDBRANCH  17  20
ENDBRANCH   2  14
BRANCH   1  29
ATOM     29  C   UNL     1       2.176  -3.452  -2.231  0.00  0.00    +0.099 C 
ATOM     30  N   UNL     1       1.433  -3.620  -3.073  0.00  0.00    -0.191 NA
ENDBRANCH   1  29
TORSDOF 6
