REMARK  Name = ZINC64701165
REMARK  10 active torsions:
REMARK  status: ('A' for Active; 'I' for Inactive)
REMARK    1  A    between atoms: C_1  and  C_2
REMARK    2  A    between atoms: C_2  and  C_3
REMARK    3  A    between atoms: C_8  and  N_9
REMARK    4  A    between atoms: C_10  and  C_12
REMARK    5  A    between atoms: C_12  and  S_13
REMARK    6  A    between atoms: S_13  and  C_14
REMARK    7  A    between atoms: C_24  and  C_26
REMARK    8  A    between atoms: C_29  and  C_32
REMARK    9  A    between atoms: C_32  and  C_33
REMARK   10  A    between atoms: C_32  and  C_34
REMARK                            x       y       z     vdW  Elec       q    Type
REMARK                         _______ _______ _______ _____ _____    ______ ____
ROOT
ATOM      1  C   UNL     1      -5.611   0.531   5.109  0.00  0.00    +0.272 C 
ATOM      2  N   UNL     1      -5.532   1.975   4.826  0.00  0.00    -0.163 NA
ATOM      3  N   UNL     1      -5.534   2.446   3.687  0.00  0.00    -0.081 NA
ATOM      4  C   UNL     1      -5.571   1.689   2.560  0.00  0.00    +0.276 C 
ATOM      5  O   UNL     1      -5.683   2.184   1.463  0.00  0.00    -0.270 OA
ATOM      6  C   UNL     1      -5.466   0.207   2.752  0.00  0.00    +0.193 C 
ATOM      7  N   UNL     1      -6.275  -0.088   3.981  0.00  0.00    -0.178 NA
ATOM      8  N   UNL     1      -6.430  -1.427   3.868  0.00  0.00    -0.274 N 
ATOM      9  C   UNL     1      -6.748  -1.639   2.505  0.00  0.00    +0.047 C 
ATOM     10  C   UNL     1      -6.173  -0.654   1.742  0.00  0.00    +0.027 C 
ATOM     11  H   UNL     1      -6.343  -2.094   4.566  0.00  0.00    +0.167 HD
ENDROOT
BRANCH   9  12
ATOM     12  C   UNL     1      -7.563  -2.760   1.981  0.00  0.00    -0.003 A 
ATOM     13  C   UNL     1      -7.805  -2.868   0.612  0.00  0.00    +0.010 A 
ATOM     14  C   UNL     1      -8.565  -3.914   0.129  0.00  0.00    +0.004 A 
ATOM     15  C   UNL     1      -9.085  -4.854   1.000  0.00  0.00    -0.045 A 
ATOM     16  C   UNL     1      -8.848  -4.752   2.360  0.00  0.00    +0.004 A 
ATOM     17  C   UNL     1      -8.085  -3.714   2.853  0.00  0.00    +0.010 A 
BRANCH  15  18
ATOM     18  C   UNL     1      -9.915  -5.994   0.467  0.00  0.00    +0.013 C 
ATOM     19  C   UNL     1      -9.248  -7.323   0.829  0.00  0.00    +0.012 C 
ATOM     20  C   UNL     1     -11.313  -5.940   1.085  0.00  0.00    +0.012 C 
ENDBRANCH  15  18
ENDBRANCH   9  12
BRANCH   1  21
ATOM     21  S   UNL     1      -3.942  -0.155   5.297  0.00  0.00    -0.107 S 
BRANCH  21  22
ATOM     22  C   UNL     1      -3.445   0.353   6.966  0.00  0.00    +0.168 C 
BRANCH  22  24
ATOM     23  N   UNL     1      -1.427   0.223   8.390  0.00  0.00    -0.285 N 
ATOM     24  C   UNL     1      -2.014  -0.053   7.209  0.00  0.00    +0.227 C 
ATOM     25  O   UNL     1      -1.391  -0.628   6.342  0.00  0.00    -0.275 OA
ATOM     26  H   UNL     1      -1.944   0.620   9.108  0.00  0.00    +0.155 HD
BRANCH  23  32
ATOM     27  C   UNL     1       0.706   0.755   9.391  0.00  0.00    -0.026 A 
ATOM     28  C   UNL     1       2.043   0.467   9.581  0.00  0.00    +0.005 A 
ATOM     29  C   UNL     1       2.610  -0.632   8.963  0.00  0.00    +0.000 A 
ATOM     30  C   UNL     1       1.841  -1.446   8.152  0.00  0.00    +0.002 A 
ATOM     31  C   UNL     1       0.503  -1.163   7.957  0.00  0.00    +0.023 A 
ATOM     32  C   UNL     1      -0.070  -0.063   8.581  0.00  0.00    +0.037 A 
BRANCH  27  34
ATOM     33  C   UNL     1      -0.562   1.519  11.380  0.00  0.00    +0.009 C 
ATOM     34  C   UNL     1       0.089   1.953  10.065  0.00  0.00    +0.033 C 
ENDBRANCH  27  34
ENDBRANCH  23  32
ENDBRANCH  22  24
ENDBRANCH  21  22
ENDBRANCH   1  21
TORSDOF 7
