REMARK  Name = ZINC36005378
REMARK  11 active torsions:
REMARK  status: ('A' for Active; 'I' for Inactive)
REMARK    1  A    between atoms: C_1  and  C_2
REMARK    2  A    between atoms: C_2  and  C_3
REMARK    3  A    between atoms: C_3  and  N_4
REMARK    4  A    between atoms: N_10  and  C_13
REMARK    5  A    between atoms: C_13  and  C_14
REMARK    6  A    between atoms: C_15  and  C_30
REMARK    7  A    between atoms: C_16  and  C_23
REMARK    8  A    between atoms: N_21  and  C_22
REMARK    9  A    between atoms: C_30  and  O_32
REMARK   10  A    between atoms: O_32  and  C_33
REMARK   11  A    between atoms: C_33  and  C_34
REMARK                            x       y       z     vdW  Elec       q    Type
REMARK                         _______ _______ _______ _____ _____    ______ ____
ROOT
ATOM      1  C   UNL     1      -3.567  -8.553  -2.134  0.00  0.00    +0.041 C 
ATOM      2  C   UNL     1      -4.487  -8.726  -3.107  0.00  0.00    +0.080 C 
ATOM      3  C   UNL     1      -5.595  -9.729  -2.859  0.00  0.00    +0.144 C 
ATOM      4  N   UNL     1      -5.578 -10.438  -1.568  0.00  0.00    -0.288 N 
ATOM      5  C   UNL     1      -4.590 -10.156  -0.695  0.00  0.00    +0.307 C 
ATOM      6  O   UNL     1      -4.567 -10.735   0.373  0.00  0.00    -0.252 OA
ATOM      7  N   UNL     1      -3.631  -9.263  -0.969  0.00  0.00    -0.260 N 
ATOM      8  C   UNL     1      -2.596  -9.029   0.041  0.00  0.00    +0.139 C 
ATOM      9  H   UNL     1      -6.261 -11.091  -1.351  0.00  0.00    +0.151 HD
ENDROOT
BRANCH   3  10
ATOM     10  C   UNL     1      -5.542 -10.762  -3.956  0.00  0.00    -0.021 A 
ATOM     11  C   UNL     1      -4.622 -11.793  -3.890  0.00  0.00    +0.006 A 
ATOM     12  C   UNL     1      -4.573 -12.740  -4.895  0.00  0.00    +0.002 A 
ATOM     13  C   UNL     1      -5.441 -12.657  -5.967  0.00  0.00    +0.020 A 
ATOM     14  C   UNL     1      -6.361 -11.626  -6.033  0.00  0.00    +0.041 A 
ATOM     15  C   UNL     1      -6.415 -10.681  -5.024  0.00  0.00    +0.025 A 
ATOM     16 CL   UNL     1      -7.452 -11.521  -7.379  0.00  0.00    -0.084 Cl
ENDBRANCH   3  10
BRANCH   2  17
ATOM     17  C   UNL     1      -4.419  -7.996  -4.317  0.00  0.00    +0.339 C 
ATOM     18  O   UNL     1      -5.184  -7.070  -4.512  0.00  0.00    -0.245 OA
BRANCH  17  19
ATOM     19  O   UNL     1      -3.505  -8.326  -5.253  0.00  0.00    -0.462 OA
BRANCH  19  20
ATOM     20  C   UNL     1      -3.492  -7.545  -6.450  0.00  0.00    +0.229 C 
ATOM     21  C   UNL     1      -2.398  -8.064  -7.386  0.00  0.00    +0.048 C 
ENDBRANCH  19  20
ENDBRANCH  17  19
ENDBRANCH   2  17
BRANCH   1  22
ATOM     22  C   UNL     1      -2.447  -7.566  -2.340  0.00  0.00    +0.136 C 
BRANCH  22  29
ATOM     23  N   UNL     1      -1.636  -1.836  -0.296  0.00  0.00    -0.299 N 
ATOM     24  C   UNL     1      -2.783  -2.544  -0.311  0.00  0.00    +0.302 C 
ATOM     25  O   UNL     1      -3.854  -1.968  -0.305  0.00  0.00    -0.253 OA
ATOM     26  N   UNL     1      -2.743  -3.891  -0.333  0.00  0.00    -0.283 N 
ATOM     27  C   UNL     1      -1.465  -4.610  -0.225  0.00  0.00    +0.124 C 
ATOM     28  C   UNL     1      -1.376  -5.621  -1.373  0.00  0.00    +0.104 C 
ATOM     29  N   UNL     1      -2.571  -6.474  -1.364  0.00  0.00    -0.294 NA
ATOM     30  C   UNL     1      -3.789  -5.689  -1.605  0.00  0.00    +0.104 C 
ATOM     31  C   UNL     1      -3.977  -4.681  -0.460  0.00  0.00    +0.124 C 
ATOM     32  H   UNL     1      -0.784  -2.294  -0.227  0.00  0.00    +0.150 HD
BRANCH  23  33
ATOM     33  C   UNL     1      -1.677  -0.374  -0.384  0.00  0.00    +0.105 C 
BRANCH  33  35
ATOM     34  C   UNL     1      -0.293   1.705  -0.438  0.00  0.00    +0.005 C 
ATOM     35  C   UNL     1      -0.251   0.179  -0.346  0.00  0.00    +0.015 C 
ENDBRANCH  33  35
ENDBRANCH  23  33
ENDBRANCH  22  29
ENDBRANCH   1  22
TORSDOF 8
