REMARK  Name = ZINC59108871
REMARK  6 active torsions:
REMARK  status: ('A' for Active; 'I' for Inactive)
REMARK    1  A    between atoms: C_1  and  C_2
REMARK    2  A    between atoms: C_6  and  N_8
REMARK    3  A    between atoms: C_9  and  C_11
REMARK    4  A    between atoms: N_16  and  C_27
REMARK    5  A    between atoms: N_18  and  C_19
REMARK    6  A    between atoms: C_27  and  C_28
REMARK                            x       y       z     vdW  Elec       q    Type
REMARK                         _______ _______ _______ _____ _____    ______ ____
ROOT
ATOM      1  C   UNL     1      -0.231  -4.673   4.428  0.00  0.00    +0.149 C 
ATOM      2  C   UNL     1       0.302  -5.973   3.820  0.00  0.00    +0.120 C 
ATOM      3  C   UNL     1      -0.115  -7.175   4.595  0.00  0.00    +0.223 C 
ATOM      4  O   UNL     1       0.634  -8.127   4.531  0.00  0.00    -0.275 OA
ATOM      5  N   UNL     1      -1.194  -7.344   5.343  0.00  0.00    -0.246 N 
ATOM      6  C   UNL     1      -2.090  -6.337   5.654  0.00  0.00    +0.164 C 
ATOM      7  N   UNL     1      -2.951  -6.468   6.635  0.00  0.00    -0.226 NA
ATOM      8  S   UNL     1      -2.027  -4.862   4.673  0.00  0.00    -0.077 S 
ENDROOT
BRANCH   7   9
ATOM      9  C   UNL     1      -2.655  -7.271   7.705  0.00  0.00    +0.067 A 
ATOM     10  C   UNL     1      -1.456  -7.099   8.399  0.00  0.00    +0.029 A 
ATOM     11  C   UNL     1      -1.163  -7.911   9.476  0.00  0.00    +0.022 A 
ATOM     12  C   UNL     1      -2.055  -8.895   9.867  0.00  0.00    +0.041 A 
ATOM     13  C   UNL     1      -3.245  -9.072   9.181  0.00  0.00    +0.022 A 
ATOM     14  C   UNL     1      -3.552  -8.262   8.107  0.00  0.00    +0.029 A 
ATOM     15 CL   UNL     1      -1.679  -9.914  11.221  0.00  0.00    -0.084 Cl
ENDBRANCH   7   9
BRANCH   1  17
ATOM     16  N   UNL     1       0.320  -2.303   3.984  0.00  0.00    -0.285 N 
ATOM     17  C   UNL     1       0.038  -3.525   3.490  0.00  0.00    +0.231 C 
ATOM     18  O   UNL     1       0.000  -3.700   2.290  0.00  0.00    -0.274 OA
ATOM     19  H   UNL     1       0.427  -2.179   4.940  0.00  0.00    +0.155 HD
BRANCH  16  25
ATOM     20  C   UNL     1       2.509   1.952   2.853  0.00  0.00    +0.044 C 
ATOM     21  C   UNL     1       1.512   0.864   2.545  0.00  0.00    -0.049 A 
ATOM     22  C   UNL     1       0.733   0.943   1.405  0.00  0.00    +0.003 A 
ATOM     23  C   UNL     1      -0.183  -0.052   1.120  0.00  0.00    +0.002 A 
ATOM     24  C   UNL     1      -0.322  -1.130   1.973  0.00  0.00    +0.023 A 
ATOM     25  C   UNL     1       0.459  -1.213   3.118  0.00  0.00    +0.034 A 
ATOM     26  C   UNL     1       1.381  -0.213   3.399  0.00  0.00    +0.026 A 
ENDBRANCH  16  25
ENDBRANCH   1  17
BRANCH   5  27
ATOM     27  C   UNL     1      -1.456  -8.682   5.878  0.00  0.00    +0.150 C 
BRANCH  27  28
ATOM     28  C   UNL     1      -1.619  -9.655   4.738  0.00  0.00    -0.026 A 
ATOM     29  C   UNL     1      -2.831  -9.747   4.079  0.00  0.00    +0.009 A 
ATOM     30  C   UNL     1      -2.986 -10.637   3.033  0.00  0.00    +0.050 A 
ATOM     31  C   UNL     1      -1.927 -11.440   2.643  0.00  0.00    +0.166 A 
ATOM     32  C   UNL     1      -0.706 -11.347   3.306  0.00  0.00    +0.167 A 
ATOM     33  C   UNL     1      -0.556 -10.448   4.350  0.00  0.00    +0.054 A 
ATOM     34  O   UNL     1       0.167 -12.231   2.740  0.00  0.00    -0.453 OA
ATOM     35  C   UNL     1      -0.650 -13.153   1.995  0.00  0.00    +0.466 C 
ATOM     36  O   UNL     1      -1.819 -12.382   1.661  0.00  0.00    -0.453 OA
ENDBRANCH  27  28
ENDBRANCH   5  27
TORSDOF 5
