REMARK  Name = ZINC59151974
REMARK  6 active torsions:
REMARK  status: ('A' for Active; 'I' for Inactive)
REMARK    1  A    between atoms: N_8  and  N_9
REMARK    2  A    between atoms: N_9  and  C_10
REMARK    3  A    between atoms: C_10  and  N_12
REMARK    4  A    between atoms: N_15  and  C_16
REMARK    5  A    between atoms: C_16  and  C_17
REMARK    6  A    between atoms: C_21  and  N_23
REMARK                            x       y       z     vdW  Elec       q    Type
REMARK                         _______ _______ _______ _____ _____    ______ ____
ROOT
ATOM      1  C   UNL     1      -0.017   1.376   0.010  0.00  0.00    +0.001 A 
ATOM      2  C   UNL     1       1.172   2.086   0.002  0.00  0.00    +0.002 A 
ATOM      3  C   UNL     1       2.385   1.427  -0.013  0.00  0.00    +0.024 A 
ATOM      4  C   UNL     1       2.424   0.037  -0.021  0.00  0.00    +0.046 A 
ATOM      5  C   UNL     1       1.219  -0.677  -0.014  0.00  0.00    +0.028 A 
ATOM      6  C   UNL     1       0.002  -0.004   0.002  0.00  0.00    +0.012 A 
ATOM      7  C   UNL     1       1.584  -2.113  -0.025  0.00  0.00    +0.153 C 
ATOM      8  N   UNL     1       0.772  -3.143  -0.024  0.00  0.00    -0.175 NA
ATOM      9  C   UNL     1       3.059  -2.131  -0.040  0.00  0.00    +0.272 C 
ATOM     10  O   UNL     1       3.763  -3.124  -0.052  0.00  0.00    -0.268 OA
ATOM     11  N   UNL     1       3.488  -0.857  -0.037  0.00  0.00    -0.261 N 
ENDROOT
BRANCH   8  12
ATOM     12  N   UNL     1       1.292  -4.444  -0.036  0.00  0.00    -0.218 N 
ATOM     13  H   UNL     1       2.252  -4.583  -0.046  0.00  0.00    +0.176 HD
BRANCH  12  14
ATOM     14  C   UNL     1       0.458  -5.503  -0.035  0.00  0.00    +0.147 C 
ATOM     15  S   UNL     1       1.093  -7.093  -0.050  0.00  0.00    -0.017 S 
BRANCH  14  16
ATOM     16  N   UNL     1      -0.876  -5.311  -0.021  0.00  0.00    -0.339 N 
ATOM     17  H   UNL     1      -1.236  -4.410  -0.013  0.00  0.00    +0.144 HD
ATOM     18  H   UNL     1      -1.476  -6.073  -0.020  0.00  0.00    +0.144 HD
ENDBRANCH  14  16
ENDBRANCH  12  14
ENDBRANCH   8  12
BRANCH  11  19
ATOM     19  C   UNL     1       4.898  -0.461  -0.049  0.00  0.00    +0.149 C 
BRANCH  19  20
ATOM     20  C   UNL     1       5.396  -0.333   1.368  0.00  0.00    -0.028 A 
ATOM     21  C   UNL     1       5.296   0.877   2.029  0.00  0.00    +0.005 A 
ATOM     22  C   UNL     1       5.752   0.994   3.329  0.00  0.00    +0.003 A 
ATOM     23  C   UNL     1       6.309  -0.098   3.967  0.00  0.00    +0.033 A 
ATOM     24  C   UNL     1       6.408  -1.308   3.306  0.00  0.00    +0.127 A 
ATOM     25  C   UNL     1       5.948  -1.427   2.008  0.00  0.00    +0.038 A 
BRANCH  24  26
ATOM     26  N   UNL     1       7.005  -2.478   3.990  0.00  0.00    +0.056 N 
ATOM     27  O   UNL     1       7.405  -2.375   5.126  0.00  0.00    -0.126 OA
ATOM     28  O   UNL     1       7.092  -3.536   3.412  0.00  0.00    -0.126 OA
ENDBRANCH  24  26
ENDBRANCH  19  20
ENDBRANCH  11  19
TORSDOF 6
