REMARK  Name = ZINC09348008
REMARK  8 active torsions:
REMARK  status: ('A' for Active; 'I' for Inactive)
REMARK    1  A    between atoms: C_1  and  C_2
REMARK    2  A    between atoms: C_5  and  C_40
REMARK    3  A    between atoms: N_6  and  C_7
REMARK    4  A    between atoms: N_20  and  C_22
REMARK    5  A    between atoms: C_27  and  O_28
REMARK    6  A    between atoms: O_28  and  C_29
REMARK    7  A    between atoms: N_32  and  C_39
REMARK    8  A    between atoms: N_35  and  C_38
REMARK                            x       y       z     vdW  Elec       q    Type
REMARK                         _______ _______ _______ _____ _____    ______ ____
ROOT
ATOM      1  C   UNL     1       1.438   4.323   0.012  0.00  0.00    +0.047 A 
ATOM      2  C   UNL     1       2.245   4.602  -1.083  0.00  0.00    +0.028 A 
ATOM      3  C   UNL     1       3.040   5.727  -1.081  0.00  0.00    +0.025 A 
ATOM      4  C   UNL     1       3.041   6.593   0.014  0.00  0.00    +0.033 A 
ATOM      5  C   UNL     1       2.240   6.309   1.108  0.00  0.00    -0.023 A 
ATOM      6  C   UNL     1       1.435   5.181   1.100  0.00  0.00    +0.031 A 
ATOM      7  C   UNL     1       2.208   7.195   2.327  0.00  0.00    +0.064 C 
ATOM      8  C   UNL     1       2.831   8.555   1.999  0.00  0.00    +0.147 C 
ATOM      9  C   UNL     1       4.150   8.300   1.260  0.00  0.00    +0.115 C 
ATOM     10  N   UNL     1       3.851   7.724  -0.052  0.00  0.00    -0.322 N 
ATOM     11  C   UNL     1       5.082   7.472  -0.812  0.00  0.00    +0.124 C 
ATOM     12  C   UNL     1       5.838   8.791  -0.996  0.00  0.00    +0.124 C 
ATOM     13  N   UNL     1       6.138   9.371   0.320  0.00  0.00    -0.324 N 
ATOM     14  C   UNL     1       4.906   9.619   1.085  0.00  0.00    +0.129 C 
ATOM     15  C   UNL     1       3.105   9.303   3.272  0.00  0.00    +0.240 C 
ATOM     16  O   UNL     1       3.844   8.810   4.097  0.00  0.00    -0.274 OA
ATOM     17  N   UNL     1       2.555  10.499   3.523  0.00  0.00    -0.228 N 
ATOM     18  C   UNL     1       1.733  11.099   2.650  0.00  0.00    +0.317 C 
ATOM     19  O   UNL     1       1.262  12.184   2.928  0.00  0.00    -0.252 OA
ATOM     20  N   UNL     1       1.417  10.531   1.476  0.00  0.00    -0.228 N 
ATOM     21  C   UNL     1       1.901   9.335   1.114  0.00  0.00    +0.240 C 
ATOM     22  O   UNL     1       1.580   8.869   0.042  0.00  0.00    -0.274 OA
ATOM     23  C   UNL     1       0.515  11.239   0.563  0.00  0.00    +0.143 C 
ATOM     24  C   UNL     1       2.860  11.171   4.789  0.00  0.00    +0.143 C 
ENDROOT
BRANCH   1  30
ATOM     25  C   UNL     1       2.505   1.447  -0.013  0.00  0.00    +0.064 C 
ATOM     26  C   UNL     1       1.064   1.889   0.002  0.00  0.00    +0.021 A 
ATOM     27  C   UNL     1      -0.013   1.076   0.008  0.00  0.00    +0.023 A 
ATOM     28  C   UNL     1      -1.160   1.894   0.017  0.00  0.00    +0.023 A 
ATOM     29  C   UNL     1      -0.742   3.176   0.026  0.00  0.00    +0.021 A 
ATOM     30  N   UNL     1       0.623   3.180   0.013  0.00  0.00    -0.318 N 
ATOM     31  C   UNL     1      -1.629   4.395   0.041  0.00  0.00    +0.064 C 
ENDBRANCH   1  30
BRANCH  13  32
ATOM     32  C   UNL     1       6.892  10.543   0.192  0.00  0.00    +0.072 A 
ATOM     33  C   UNL     1       6.354  11.651  -0.445  0.00  0.00    +0.027 A 
ATOM     34  C   UNL     1       7.101  12.807  -0.570  0.00  0.00    +0.002 A 
ATOM     35  C   UNL     1       8.386  12.862  -0.062  0.00  0.00    +0.004 A 
ATOM     36  C   UNL     1       8.929  11.761   0.574  0.00  0.00    +0.047 A 
ATOM     37  C   UNL     1       8.185  10.601   0.709  0.00  0.00    +0.141 A 
BRANCH  37  38
ATOM     38  O   UNL     1       8.716   9.519   1.339  0.00  0.00    -0.493 OA
ATOM     39  C   UNL     1      10.047   9.651   1.844  0.00  0.00    +0.277 C 
ENDBRANCH  37  38
ENDBRANCH  13  32
TORSDOF 3
