REMARK  Name = ZINC40034976
REMARK  10 active torsions:
REMARK  status: ('A' for Active; 'I' for Inactive)
REMARK    1  A    between atoms: C_1  and  C_2
REMARK    2  A    between atoms: C_2  and  O_3
REMARK    3  A    between atoms: O_3  and  C_4
REMARK    4  A    between atoms: C_7  and  C_10
REMARK    5  A    between atoms: N_11  and  N_12
REMARK    6  A    between atoms: N_19  and  C_20
REMARK    7  A    between atoms: C_23  and  O_26
REMARK    8  A    between atoms: O_26  and  C_27
REMARK    9  A    between atoms: C_28  and  C_36
REMARK   10  A    between atoms: C_28  and  C_37
REMARK                            x       y       z     vdW  Elec       q    Type
REMARK                         _______ _______ _______ _____ _____    ______ ____
ROOT
ATOM      1  N   UNL     1       2.487  -7.624   2.911  0.00  0.00    -0.206 N 
ATOM      2  C   UNL     1       3.243  -8.189   3.905  0.00  0.00    +0.223 A 
ATOM      3  N   UNL     1       3.536  -7.478   4.974  0.00  0.00    -0.214 NA
ATOM      4  C   UNL     1       4.270  -7.997   5.964  0.00  0.00    +0.084 A 
ATOM      5  C   UNL     1       4.729  -9.304   5.876  0.00  0.00    +0.049 A 
ATOM      6  C   UNL     1       4.415 -10.053   4.735  0.00  0.00    +0.264 A 
ATOM      7  O   UNL     1       4.803 -11.205   4.620  0.00  0.00    -0.267 OA
ATOM      8  N   UNL     1       3.670  -9.477   3.768  0.00  0.00    -0.248 N 
ATOM      9  C   UNL     1       5.541  -9.899   6.991  0.00  0.00    +0.001 C 
ATOM     10  C   UNL     1       6.456  -8.845   7.611  0.00  0.00    +0.047 C 
ATOM     11  C   UNL     1       5.674  -7.611   7.971  0.00  0.00    -0.037 A 
ATOM     12  C   UNL     1       4.612  -7.199   7.163  0.00  0.00    +0.004 A 
ATOM     13  C   UNL     1       3.892  -6.054   7.489  0.00  0.00    +0.010 A 
ATOM     14  C   UNL     1       4.229  -5.330   8.616  0.00  0.00    +0.001 A 
ATOM     15  C   UNL     1       5.279  -5.744   9.416  0.00  0.00    +0.000 A 
ATOM     16  C   UNL     1       6.000  -6.881   9.095  0.00  0.00    +0.004 A 
ATOM     17  C   UNL     1       4.598 -10.444   8.066  0.00  0.00    +0.016 C 
ATOM     18  C   UNL     1       6.392 -11.044   6.439  0.00  0.00    +0.016 C 
ATOM     19  H   UNL     1       2.328  -8.110   2.087  0.00  0.00    +0.177 HD
ENDROOT
BRANCH   8  20
ATOM     20  C   UNL     1       3.338 -10.204   2.616  0.00  0.00    +0.053 A 
ATOM     21  C   UNL     1       4.177 -10.174   1.510  0.00  0.00    +0.030 A 
ATOM     22  C   UNL     1       3.850 -10.890   0.376  0.00  0.00    +0.047 A 
ATOM     23  C   UNL     1       2.682 -11.638   0.340  0.00  0.00    +0.120 A 
ATOM     24  C   UNL     1       1.843 -11.669   1.445  0.00  0.00    +0.047 A 
ATOM     25  C   UNL     1       2.172 -10.958   2.582  0.00  0.00    +0.030 A 
BRANCH  23  26
ATOM     26  O   UNL     1       2.360 -12.342  -0.777  0.00  0.00    -0.495 OA
ATOM     27  C   UNL     1       1.143 -13.091  -0.744  0.00  0.00    +0.277 C 
ENDBRANCH  23  26
ENDBRANCH   8  20
BRANCH   1  29
ATOM     28  C   UNL     1       1.230  -5.808   2.143  0.00  0.00    +0.138 C 
ATOM     29  N   UNL     1       1.946  -6.343   3.084  0.00  0.00    -0.188 NA
BRANCH  28  33
ATOM     30  C   UNL     1      -0.411  -1.928   2.670  0.00  0.00    +0.121 A 
ATOM     31  C   UNL     1      -0.641  -2.623   1.489  0.00  0.00    +0.046 A 
ATOM     32  C   UNL     1      -0.110  -3.882   1.314  0.00  0.00    +0.013 A 
ATOM     33  C   UNL     1       0.661  -4.460   2.326  0.00  0.00    -0.005 A 
ATOM     34  C   UNL     1       0.889  -3.758   3.512  0.00  0.00    +0.013 A 
ATOM     35  C   UNL     1       0.358  -2.497   3.677  0.00  0.00    +0.046 A 
BRANCH  30  36
ATOM     36  O   UNL     1      -0.936  -0.687   2.839  0.00  0.00    -0.492 OA
BRANCH  36  38
ATOM     37  C   UNL     1      -2.221   1.235   2.134  0.00  0.00    +0.048 C 
ATOM     38  C   UNL     1      -1.718  -0.162   1.764  0.00  0.00    +0.225 C 
ENDBRANCH  36  38
ENDBRANCH  30  36
ENDBRANCH  28  33
ENDBRANCH   1  29
TORSDOF 6
