REMARK  Name = ZINC08686929
REMARK  9 active torsions:
REMARK  status: ('A' for Active; 'I' for Inactive)
REMARK    1  A    between atoms: C_1  and  C_2
REMARK    2  A    between atoms: C_5  and  N_9
REMARK    3  A    between atoms: C_6  and  C_8
REMARK    4  A    between atoms: N_9  and  S_10
REMARK    5  A    between atoms: S_10  and  C_13
REMARK    6  A    between atoms: C_16  and  N_22
REMARK    7  A    between atoms: C_17  and  N_19
REMARK    8  A    between atoms: N_25  and  C_28
REMARK    9  A    between atoms: C_31  and  O_34
REMARK                            x       y       z     vdW  Elec       q    Type
REMARK                         _______ _______ _______ _____ _____    ______ ____
ROOT
ATOM      1  C   UNL     1       2.514  -4.709  -1.113  0.00  0.00    +0.111 A 
ATOM      2  C   UNL     1       3.106  -3.635  -1.753  0.00  0.00    +0.031 A 
ATOM      3  C   UNL     1       4.467  -3.428  -1.643  0.00  0.00    +0.027 A 
ATOM      4  C   UNL     1       5.241  -4.300  -0.887  0.00  0.00    +0.060 A 
ATOM      5  C   UNL     1       4.644  -5.377  -0.246  0.00  0.00    +0.149 A 
ATOM      6  C   UNL     1       3.281  -5.575  -0.356  0.00  0.00    +0.063 A 
ENDROOT
BRANCH   4   7
ATOM      7  N   UNL     1       6.618  -4.093  -0.773  0.00  0.00    -0.325 N 
ATOM      8  C   UNL     1       7.547  -4.695  -1.740  0.00  0.00    +0.124 C 
ATOM      9  C   UNL     1       8.407  -3.582  -2.351  0.00  0.00    +0.124 C 
ATOM     10  N   UNL     1       8.953  -2.759  -1.263  0.00  0.00    -0.327 N 
ATOM     11  C   UNL     1       8.024  -2.157  -0.296  0.00  0.00    +0.124 C 
ATOM     12  C   UNL     1       7.163  -3.266   0.312  0.00  0.00    +0.124 C 
BRANCH  10  13
ATOM     13  C   UNL     1      10.332  -2.552  -1.149  0.00  0.00    +0.030 A 
ATOM     14  C   UNL     1      10.845  -1.880  -0.047  0.00  0.00    +0.027 A 
ATOM     15  C   UNL     1      12.206  -1.677   0.065  0.00  0.00    +0.047 A 
ATOM     16  C   UNL     1      13.061  -2.144  -0.922  0.00  0.00    +0.117 A 
ATOM     17  C   UNL     1      12.550  -2.815  -2.023  0.00  0.00    +0.047 A 
ATOM     18  C   UNL     1      11.189  -3.024  -2.134  0.00  0.00    +0.027 A 
BRANCH  16  19
ATOM     19  O   UNL     1      14.402  -1.944  -0.811  0.00  0.00    -0.507 OA
ATOM     20  H   UNL     1      14.868  -2.652  -0.348  0.00  0.00    +0.292 HD
ENDBRANCH  16  19
ENDBRANCH  10  13
ENDBRANCH   4   7
BRANCH   1  21
ATOM     21  S   UNL     1       0.777  -4.970  -1.257  0.00  0.00    +0.072 S 
ATOM     22  O   UNL     1       0.551  -6.350  -1.006  0.00  0.00    -0.150 OA
ATOM     23  O   UNL     1       0.370  -4.338  -2.463  0.00  0.00    -0.150 OA
BRANCH  21  24
ATOM     24  N   UNL     1       0.054  -4.139  -0.020  0.00  0.00    -0.216 N 
ATOM     25  H   UNL     1      -0.481  -4.614   0.635  0.00  0.00    +0.174 HD
BRANCH  24  30
ATOM     26  C   UNL     1       0.700   1.480   0.384  0.00  0.00    +0.044 C 
ATOM     27  C   UNL     1       0.528  -0.013   0.276  0.00  0.00    -0.050 A 
ATOM     28  C   UNL     1       0.439  -0.610  -0.968  0.00  0.00    +0.005 A 
ATOM     29  C   UNL     1       0.281  -1.978  -1.070  0.00  0.00    +0.025 A 
ATOM     30  C   UNL     1       0.213  -2.755   0.079  0.00  0.00    +0.051 A 
ATOM     31  C   UNL     1       0.304  -2.153   1.328  0.00  0.00    -0.028 A 
ATOM     32  C   UNL     1       0.467  -0.785   1.422  0.00  0.00    +0.008 A 
ATOM     33  C   UNL     1       0.230  -2.992   2.577  0.00  0.00    +0.046 C 
ENDBRANCH  24  30
ENDBRANCH  21  24
ENDBRANCH   1  21
BRANCH   5  34
ATOM     34  N   UNL     1       5.465  -6.308   0.560  0.00  0.00    +0.058 N 
ATOM     35  O   UNL     1       4.944  -7.246   1.118  0.00  0.00    -0.126 OA
ATOM     36  O   UNL     1       6.657  -6.132   0.660  0.00  0.00    -0.126 OA
ENDBRANCH   5  34
TORSDOF 7
