REMARK  Name = ZINC00472019
REMARK  4 active torsions:
REMARK  status: ('A' for Active; 'I' for Inactive)
REMARK    1  A    between atoms: C_7  and  O_11
REMARK    2  A    between atoms: O_11  and  C_12
REMARK    3  A    between atoms: C_12  and  C_13
REMARK    4  A    between atoms: C_16  and  N_19
REMARK                            x       y       z     vdW  Elec       q    Type
REMARK                         _______ _______ _______ _____ _____    ______ ____
ROOT
ATOM      1  C   UNL     1       1.091   5.912   0.022  0.00  0.00    +0.020 A 
ATOM      2  C   UNL     1      -0.107   5.256   0.030  0.00  0.00    +0.013 A 
ATOM      3  C   UNL     1      -0.093   3.849   0.023  0.00  0.00    +0.022 A 
ATOM      4  C   UNL     1      -1.286   3.106   0.030  0.00  0.00    +0.050 A 
ATOM      5  C   UNL     1      -1.234   1.745   0.017  0.00  0.00    +0.024 A 
ATOM      6  C   UNL     1      -0.013   1.076   0.008  0.00  0.00    +0.049 A 
ATOM      7  C   UNL     1       1.167   1.764   0.000  0.00  0.00    +0.147 A 
ATOM      8  C   UNL     1       1.152   3.175   0.008  0.00  0.00    +0.114 A 
ATOM      9  N   UNL     1       2.289   3.876   0.000  0.00  0.00    -0.251 NA
ATOM     10  C   UNL     1       2.280   5.187   0.006  0.00  0.00    +0.111 A 
ATOM     11 CL   UNL     1      -2.820   3.919   0.048  0.00  0.00    -0.083 Cl
ENDROOT
BRANCH   7  12
ATOM     12  O   UNL     1       2.349   1.094  -0.015  0.00  0.00    -0.485 OA
BRANCH  12  13
ATOM     13  C   UNL     1       2.284  -0.334  -0.021  0.00  0.00    +0.264 C 
BRANCH  13  14
ATOM     14  C   UNL     1       3.681  -0.899  -0.038  0.00  0.00    -0.010 A 
ATOM     15  C   UNL     1       4.308  -1.158  -1.242  0.00  0.00    +0.009 A 
ATOM     16  C   UNL     1       5.591  -1.672  -1.258  0.00  0.00    +0.033 A 
ATOM     17  C   UNL     1       6.244  -1.938  -0.068  0.00  0.00    +0.126 A 
ATOM     18  C   UNL     1       5.615  -1.684   1.137  0.00  0.00    +0.033 A 
ATOM     19  C   UNL     1       4.333  -1.165   1.152  0.00  0.00    +0.009 A 
BRANCH  17  20
ATOM     20  N   UNL     1       7.615  -2.493  -0.084  0.00  0.00    +0.056 N 
ATOM     21  O   UNL     1       8.190  -2.726   0.964  0.00  0.00    -0.126 OA
ATOM     22  O   UNL     1       8.170  -2.716  -1.145  0.00  0.00    -0.126 OA
ENDBRANCH  17  20
ENDBRANCH  13  14
ENDBRANCH  12  13
ENDBRANCH   7  12
TORSDOF 4
