REMARK  Name = ZINC38128272
REMARK  5 active torsions:
REMARK  status: ('A' for Active; 'I' for Inactive)
REMARK    1  A    between atoms: C_4  and  N_18
REMARK    2  A    between atoms: C_5  and  C_7
REMARK    3  A    between atoms: C_7  and  C_8
REMARK    4  A    between atoms: C_8  and  C_10
REMARK    5  A    between atoms: C_8  and  N_17
REMARK                            x       y       z     vdW  Elec       q    Type
REMARK                         _______ _______ _______ _____ _____    ______ ____
ROOT
ATOM      1  C   UNL     1       1.559  -2.689   1.408  0.00  0.00    -0.040 C 
ENDROOT
BRANCH   1   2
ATOM      2  C   UNL     1       1.851  -4.167   1.398  0.00  0.00    -0.061 A 
ATOM      3  C   UNL     1       0.837  -5.070   1.134  0.00  0.00    +0.002 A 
ATOM      4  C   UNL     1       1.103  -6.426   1.124  0.00  0.00    +0.001 A 
ATOM      5  C   UNL     1       2.384  -6.881   1.378  0.00  0.00    +0.015 A 
ATOM      6  C   UNL     1       3.398  -5.979   1.641  0.00  0.00    +0.018 A 
ATOM      7  C   UNL     1       3.132  -4.621   1.646  0.00  0.00    +0.017 A 
ATOM      8 BR   UNL     1       5.150  -6.600   1.989  0.00  0.00    -0.050 Br
ENDBRANCH   1   2
BRANCH   1   9
ATOM      9  N   UNL     1       0.264  -2.450   2.058  0.00  0.00    +0.383 N 
ATOM     10  H   UNL     1       0.294  -2.793   3.006  0.00  0.00    -0.089 HD
ATOM     11  H   UNL     1       0.069  -1.460   2.065  0.00  0.00    -0.089 HD
ATOM     12  H   UNL     1      -0.462  -2.932   1.548  0.00  0.00    -0.089 HD
ENDBRANCH   1   9
BRANCH   1  13
ATOM     13  C   UNL     1       1.513  -2.168  -0.029  0.00  0.00    +0.026 C 
BRANCH  13  18
ATOM     14  C   UNL     1      -0.061   1.260  -0.197  0.00  0.00    +0.000 A 
ATOM     15  C   UNL     1       1.036   2.077   0.006  0.00  0.00    +0.002 A 
ATOM     16  C   UNL     1       2.286   1.520   0.198  0.00  0.00    +0.033 A 
ATOM     17  C   UNL     1       2.441   0.147   0.186  0.00  0.00    +0.129 A 
ATOM     18  C   UNL     1       1.345  -0.670  -0.016  0.00  0.00    -0.018 A 
ATOM     19  C   UNL     1       0.094  -0.114  -0.209  0.00  0.00    +0.006 A 
BRANCH  17  20
ATOM     20  N   UNL     1       3.780  -0.449   0.391  0.00  0.00    +0.057 N 
ATOM     21  O   UNL     1       4.754   0.264   0.463  0.00  0.00    -0.126 OA
ATOM     22  O   UNL     1       3.901  -1.648   0.485  0.00  0.00    -0.126 OA
ENDBRANCH  17  20
ENDBRANCH  13  18
ENDBRANCH   1  13
TORSDOF 5
