REMARK  Name = ZINC66704597
REMARK  9 active torsions:
REMARK  status: ('A' for Active; 'I' for Inactive)
REMARK    1  A    between atoms: C_1  and  C_2
REMARK    2  A    between atoms: C_2  and  C_3
REMARK    3  A    between atoms: C_3  and  C_4
REMARK    4  A    between atoms: C_4  and  N_5
REMARK    5  A    between atoms: C_10  and  C_12
REMARK    6  A    between atoms: C_12  and  N_13
REMARK    7  A    between atoms: N_16  and  C_17
REMARK    8  A    between atoms: N_16  and  C_18
REMARK    9  A    between atoms: N_21  and  C_24
REMARK                            x       y       z     vdW  Elec       q    Type
REMARK                         _______ _______ _______ _____ _____    ______ ____
ROOT
ATOM      1  N   UNL     1      -0.448  -3.886  -1.189  0.00  0.00    -0.301 N 
ATOM      2  C   UNL     1       0.460  -4.008  -2.177  0.00  0.00    +0.302 C 
ATOM      3  O   UNL     1       0.147  -4.529  -3.230  0.00  0.00    -0.253 OA
ATOM      4  N   UNL     1       1.716  -3.552  -1.998  0.00  0.00    -0.286 N 
ATOM      5  C   UNL     1       2.093  -2.924  -0.729  0.00  0.00    +0.134 C 
ATOM      6  H   UNL     1      -0.199  -3.470  -0.349  0.00  0.00    +0.150 HD
ENDROOT
BRANCH   4   7
ATOM      7  C   UNL     1       2.704  -3.685  -3.072  0.00  0.00    +0.074 C 
ATOM      8  C   UNL     1       3.889  -4.519  -2.577  0.00  0.00    +0.004 C 
ATOM      9  C   UNL     1       4.952  -4.586  -3.676  0.00  0.00    -0.077 C 
ATOM     10  N   UNL     1       5.409  -3.230  -4.004  0.00  0.00    +0.382 N 
ATOM     11  C   UNL     1       4.292  -2.447  -4.547  0.00  0.00    -0.077 C 
ATOM     12  C   UNL     1       3.204  -2.297  -3.481  0.00  0.00    +0.004 C 
ATOM     13  H   UNL     1       5.758  -2.783  -3.170  0.00  0.00    -0.081 HD
BRANCH  10  14
ATOM     14  C   UNL     1       6.483  -3.306  -5.003  0.00  0.00    -0.064 C 
ATOM     15  C   UNL     1       7.658  -4.106  -4.432  0.00  0.00    +0.013 C 
ATOM     16  C   UNL     1       8.803  -4.112  -5.448  0.00  0.00    +0.158 C 
ATOM     17  O   UNL     1       9.179  -2.766  -5.748  0.00  0.00    -0.380 OA
ATOM     18  C   UNL     1       8.134  -1.984  -6.329  0.00  0.00    +0.158 C 
ATOM     19  C   UNL     1       6.962  -1.892  -5.348  0.00  0.00    +0.013 C 
ENDBRANCH  10  14
ENDBRANCH   4   7
BRANCH   1  20
ATOM     20  C   UNL     1      -1.813  -4.381  -1.384  0.00  0.00    +0.090 C 
BRANCH  20  26
ATOM     21  N   UNL     1      -2.021  -4.517   1.051  0.00  0.00    +0.383 N 
ATOM     22  C   UNL     1      -2.870  -4.238   2.215  0.00  0.00    -0.078 C 
ATOM     23  C   UNL     1      -3.022  -2.725   2.390  0.00  0.00    -0.019 C 
ATOM     24  C   UNL     1      -3.666  -2.134   1.133  0.00  0.00    -0.003 C 
ATOM     25  C   UNL     1      -2.811  -2.495  -0.085  0.00  0.00    -0.014 C 
ATOM     26  C   UNL     1      -2.667  -4.016  -0.168  0.00  0.00    -0.051 C 
ATOM     27  H   UNL     1      -1.129  -4.060   1.170  0.00  0.00    -0.081 HD
BRANCH  21  28
ATOM     28  C   UNL     1      -1.814  -5.966   0.933  0.00  0.00    -0.078 C 
BRANCH  28  29
ATOM     29  C   UNL     1      -1.016  -6.467   2.138  0.00  0.00    -0.019 C 
BRANCH  29  31
ATOM     30  C   UNL     1      -0.002  -8.478   3.221  0.00  0.00    +0.004 C 
ATOM     31  C   UNL     1      -0.800  -7.977   2.016  0.00  0.00    -0.005 C 
ENDBRANCH  29  31
ENDBRANCH  28  29
ENDBRANCH  21  28
ENDBRANCH  20  26
ENDBRANCH   1  20
TORSDOF 7
