REMARK  Name = ZINC20207751
REMARK  8 active torsions:
REMARK  status: ('A' for Active; 'I' for Inactive)
REMARK    1  A    between atoms: C_1  and  O_2
REMARK    2  A    between atoms: O_2  and  C_3
REMARK    3  A    between atoms: C_5  and  C_15
REMARK    4  A    between atoms: C_8  and  O_9
REMARK    5  A    between atoms: O_9  and  S_10
REMARK    6  A    between atoms: S_10  and  C_13
REMARK    7  A    between atoms: C_25  and  S_27
REMARK    8  A    between atoms: S_27  and  C_30
REMARK                            x       y       z     vdW  Elec       q    Type
REMARK                         _______ _______ _______ _____ _____    ______ ____
ROOT
ATOM      1  C   UNL     1       2.631   0.429   4.149  0.00  0.00    +0.024 C 
ATOM      2  C   UNL     1       3.590  -0.186   4.921  0.00  0.00    +0.081 C 
ATOM      3  C   UNL     1       4.090  -1.555   4.608  0.00  0.00    +0.153 C 
ATOM      4  N   UNL     1       4.197  -2.020   3.392  0.00  0.00    -0.283 NA
ATOM      5  N   UNL     1       4.438  -2.300   5.756  0.00  0.00    -0.150 N 
ATOM      6  C   UNL     1       4.757  -1.597   6.898  0.00  0.00    +0.182 C 
ATOM      7  N   UNL     1       4.686  -0.303   7.085  0.00  0.00    -0.152 NA
ATOM      8  C   UNL     1       4.186   0.480   6.106  0.00  0.00    +0.273 C 
ATOM      9  O   UNL     1       4.219   1.697   6.192  0.00  0.00    -0.268 OA
ATOM     10  S   UNL     1       5.248  -2.892   8.006  0.00  0.00    -0.015 S 
ATOM     11  C   UNL     1       4.903  -4.271   6.922  0.00  0.00    +0.235 C 
ATOM     12  N   UNL     1       4.501  -3.675   5.836  0.00  0.00    -0.145 NA
ATOM     13  H   UNL     1       4.533  -2.917   3.244  0.00  0.00    +0.188 HD
ENDROOT
BRANCH   1  16
ATOM     14  C   UNL     1       0.885  -0.393   0.936  0.00  0.00    +0.166 A 
ATOM     15  C   UNL     1       1.533   0.322   1.923  0.00  0.00    +0.057 A 
ATOM     16  C   UNL     1       1.942  -0.324   3.098  0.00  0.00    -0.019 A 
ATOM     17  C   UNL     1       1.690  -1.693   3.264  0.00  0.00    +0.032 A 
ATOM     18  C   UNL     1       1.043  -2.398   2.274  0.00  0.00    +0.090 A 
ATOM     19  C   UNL     1       0.633  -1.754   1.111  0.00  0.00    +0.216 A 
ATOM     20 CL   UNL     1       0.731  -4.093   2.480  0.00  0.00    -0.080 Cl
BRANCH  14  22
ATOM     21  C   UNL     1       0.778   1.625  -0.318  0.00  0.00    +0.277 C 
ATOM     22  O   UNL     1       0.487   0.230  -0.205  0.00  0.00    -0.491 OA
ENDBRANCH  14  22
BRANCH  19  23
ATOM     23  O   UNL     1      -0.010  -2.453   0.141  0.00  0.00    -0.341 OA
BRANCH  23  24
ATOM     24  S   UNL     1       0.919  -3.075  -0.893  0.00  0.00    +0.118 S 
ATOM     25  O   UNL     1       0.058  -3.520  -1.932  0.00  0.00    -0.137 OA
ATOM     26  O   UNL     1       1.901  -2.079  -1.142  0.00  0.00    -0.137 OA
ATOM     27  C   UNL     1       1.669  -4.495  -0.051  0.00  0.00    +0.242 C 
ENDBRANCH  23  24
ENDBRANCH  19  23
ENDBRANCH   1  16
BRANCH  11  28
ATOM     28  S   UNL     1       5.067  -5.996   7.240  0.00  0.00    +0.019 S 
ATOM     29  O   UNL     1       4.812  -6.133   8.632  0.00  0.00    -0.168 OA
ATOM     30  O   UNL     1       4.223  -6.623   6.284  0.00  0.00    -0.168 OA
ATOM     31  C   UNL     1       6.805  -6.373   6.882  0.00  0.00    +0.202 C 
ENDBRANCH  11  28
TORSDOF 5
