REMARK  Name = ZINC14550411
REMARK  7 active torsions:
REMARK  status: ('A' for Active; 'I' for Inactive)
REMARK    1  A    between atoms: C_1  and  C_2
REMARK    2  A    between atoms: C_2  and  C_3
REMARK    3  A    between atoms: C_2  and  N_4
REMARK    4  A    between atoms: C_5  and  C_7
REMARK    5  A    between atoms: C_14  and  C_23
REMARK    6  A    between atoms: C_27  and  O_29
REMARK    7  A    between atoms: O_29  and  C_30
REMARK                            x       y       z     vdW  Elec       q    Type
REMARK                         _______ _______ _______ _____ _____    ______ ____
ROOT
ATOM      1  C   UNL     1      -0.958   6.918   1.767  0.00  0.00    +0.058 A 
ATOM      2  C   UNL     1       0.025   7.871   1.499  0.00  0.00    +0.015 A 
ATOM      3  C   UNL     1       0.441   8.075   0.202  0.00  0.00    +0.001 A 
ATOM      4  C   UNL     1      -0.113   7.340  -0.831  0.00  0.00    +0.006 A 
ATOM      5  C   UNL     1      -1.091   6.387  -0.585  0.00  0.00    -0.019 A 
ATOM      6  C   UNL     1      -1.520   6.172   0.713  0.00  0.00    +0.044 A 
ATOM      7  N   UNL     1      -2.496   5.238   1.025  0.00  0.00    -0.336 N 
ATOM      8  C   UNL     1      -2.557   4.152   0.046  0.00  0.00    +0.105 C 
ATOM      9  C   UNL     1      -2.831   4.734  -1.343  0.00  0.00    +0.029 C 
ATOM     10  C   UNL     1      -1.640   5.625  -1.756  0.00  0.00    +0.049 C 
ATOM     11  C   UNL     1      -0.613   4.648  -2.281  0.00  0.00    -0.023 C 
ATOM     12  C   UNL     1      -1.184   3.521  -2.622  0.00  0.00    -0.030 C 
ATOM     13  C   UNL     1      -2.679   3.587  -2.380  0.00  0.00    +0.033 C 
ATOM     14  H   UNL     1      -3.397   5.678   1.133  0.00  0.00    +0.147 HD
ENDROOT
BRANCH   8  15
ATOM     15  C   UNL     1      -1.243   3.414   0.031  0.00  0.00    -0.024 A 
ATOM     16  C   UNL     1      -1.176   2.131  -0.480  0.00  0.00    +0.006 A 
ATOM     17  C   UNL     1       0.027   1.452  -0.495  0.00  0.00    +0.004 A 
ATOM     18  C   UNL     1       1.168   2.053   0.002  0.00  0.00    +0.045 A 
ATOM     19  C   UNL     1       1.104   3.341   0.515  0.00  0.00    +0.120 A 
ATOM     20  C   UNL     1      -0.106   4.019   0.533  0.00  0.00    +0.051 A 
BRANCH  19  21
ATOM     21  O   UNL     1       2.224   3.934   1.005  0.00  0.00    -0.495 OA
ATOM     22  C   UNL     1       3.434   3.175   0.959  0.00  0.00    +0.277 C 
ENDBRANCH  19  21
ENDBRANCH   8  15
BRANCH   1  24
ATOM     23  N   UNL     1      -0.872   7.408   4.161  0.00  0.00    -0.309 N 
ATOM     24  C   UNL     1      -1.410   6.694   3.152  0.00  0.00    +0.246 C 
ATOM     25  O   UNL     1      -2.268   5.864   3.385  0.00  0.00    -0.270 OA
ATOM     26  H   UNL     1      -0.188   8.070   3.975  0.00  0.00    +0.149 HD
BRANCH  23  28
ATOM     27  C   UNL     1      -0.213   7.597   6.508  0.00  0.00    +0.027 C 
ATOM     28  C   UNL     1      -1.321   7.185   5.537  0.00  0.00    +0.067 C 
ATOM     29  C   UNL     1      -2.573   8.023   5.808  0.00  0.00    +0.027 C 
ENDBRANCH  23  28
ENDBRANCH   1  24
TORSDOF 4
