REMARK  Name = ZINC35937911
REMARK  4 active torsions:
REMARK  status: ('A' for Active; 'I' for Inactive)
REMARK    1  A    between atoms: C_1  and  C_2
REMARK    2  A    between atoms: N_15  and  C_18
REMARK    3  A    between atoms: C_18  and  C_19
REMARK    4  A    between atoms: C_22  and  C_25
REMARK                            x       y       z     vdW  Elec       q    Type
REMARK                         _______ _______ _______ _____ _____    ______ ____
ROOT
ATOM      1  C   UNL     1      -0.018   1.503   0.010  0.00  0.00    +0.044 C 
ATOM      2  C   UNL     1       0.002  -0.004   0.002  0.00  0.00    -0.050 A 
ATOM      3  C   UNL     1       0.006  -0.685  -1.205  0.00  0.00    +0.005 A 
ATOM      4  C   UNL     1       0.019  -2.067  -1.232  0.00  0.00    +0.024 A 
ATOM      5  C   UNL     1       0.032  -2.775  -0.043  0.00  0.00    +0.041 A 
ATOM      6  C   UNL     1       0.037  -2.088   1.183  0.00  0.00    +0.058 A 
ATOM      7  C   UNL     1       0.023  -0.695   1.196  0.00  0.00    +0.018 A 
ATOM      8  C   UNL     1       0.079  -2.871   2.431  0.00  0.00    +0.247 C 
ATOM      9  O   UNL     1      -0.079  -2.322   3.505  0.00  0.00    -0.270 OA
ATOM     10  N   UNL     1       0.293  -4.200   2.372  0.00  0.00    -0.291 N 
ATOM     11  C   UNL     1       0.660  -4.853   1.115  0.00  0.00    +0.095 C 
ATOM     12  N   UNL     1       0.032  -4.166  -0.019  0.00  0.00    -0.323 N 
ATOM     13  C   UNL     1       0.193  -6.312   1.143  0.00  0.00    +0.027 C 
ATOM     14  C   UNL     1       0.652  -7.014  -0.136  0.00  0.00    -0.075 C 
ATOM     15  N   UNL     1       2.117  -6.969  -0.226  0.00  0.00    +0.383 N 
ATOM     16  C   UNL     1       2.566  -5.575  -0.326  0.00  0.00    -0.075 C 
ATOM     17  C   UNL     1       2.182  -4.818   0.946  0.00  0.00    +0.027 C 
ATOM     18  H   UNL     1       0.203  -4.733   3.177  0.00  0.00    +0.151 HD
ATOM     19  H   UNL     1      -0.377  -4.672  -0.738  0.00  0.00    +0.148 HD
ATOM     20  H   UNL     1       2.516  -7.391   0.599  0.00  0.00    -0.081 HD
ENDROOT
BRANCH  15  21
ATOM     21  C   UNL     1       2.557  -7.711  -1.415  0.00  0.00    -0.043 C 
BRANCH  21  22
ATOM     22  C   UNL     1       4.062  -7.770  -1.441  0.00  0.00    -0.064 A 
ATOM     23  C   UNL     1       4.782  -6.774  -2.075  0.00  0.00    +0.002 A 
ATOM     24  C   UNL     1       6.163  -6.829  -2.099  0.00  0.00    +0.012 A 
ATOM     25  C   UNL     1       6.824  -7.878  -1.490  0.00  0.00    +0.055 A 
ATOM     26  C   UNL     1       6.105  -8.874  -0.856  0.00  0.00    +0.012 A 
ATOM     27  C   UNL     1       4.724  -8.817  -0.828  0.00  0.00    +0.002 A 
BRANCH  25  28
ATOM     28  C   UNL     1       8.330  -7.938  -1.518  0.00  0.00    +0.417 C 
ATOM     29  F   UNL     1       8.844  -7.273  -0.399  0.00  0.00    -0.166 F 
ATOM     30  F   UNL     1       8.744  -9.274  -1.496  0.00  0.00    -0.166 F 
ATOM     31  F   UNL     1       8.800  -7.323  -2.683  0.00  0.00    -0.166 F 
ENDBRANCH  25  28
ENDBRANCH  21  22
ENDBRANCH  15  21
TORSDOF 3
