REMARK  Name = ZINC01434701
REMARK  6 active torsions:
REMARK  status: ('A' for Active; 'I' for Inactive)
REMARK    1  A    between atoms: C_8  and  S_9
REMARK    2  A    between atoms: S_9  and  N_12
REMARK    3  A    between atoms: N_12  and  C_13
REMARK    4  A    between atoms: C_19  and  S_21
REMARK    5  A    between atoms: S_21  and  N_24
REMARK    6  A    between atoms: N_24  and  C_25
REMARK                            x       y       z     vdW  Elec       q    Type
REMARK                         _______ _______ _______ _____ _____    ______ ____
ROOT
ATOM      1  C   UNL     1       0.203  -0.113  -1.053  0.00  0.00    +0.003 A 
ATOM      2  C   UNL     1       1.473  -0.008  -0.574  0.00  0.00    +0.010 A 
ATOM      3  C   UNL     1       1.946   1.236  -0.123  0.00  0.00    +0.010 A 
ATOM      4  C   UNL     1       1.090   2.365  -0.175  0.00  0.00    +0.010 A 
ATOM      5  C   UNL     1       1.562   3.609   0.276  0.00  0.00    +0.010 A 
ATOM      6  C   UNL     1       2.832   3.714   0.754  0.00  0.00    +0.003 A 
ATOM      7  C   UNL     1       3.674   2.604   0.805  0.00  0.00    +0.029 A 
ATOM      8  C   UNL     1       3.250   1.383   0.378  0.00  0.00    +0.113 A 
ATOM      9  C   UNL     1      -0.215   2.218  -0.675  0.00  0.00    +0.113 A 
ATOM     10  C   UNL     1      -0.637   0.998  -1.109  0.00  0.00    +0.029 A 
ENDROOT
BRANCH   8  11
ATOM     11  S   UNL     1       4.332  -0.005   0.452  0.00  0.00    +0.059 S 
ATOM     12  O   UNL     1       5.574   0.474   0.950  0.00  0.00    -0.153 OA
ATOM     13  O   UNL     1       3.609  -1.050   1.088  0.00  0.00    -0.153 OA
BRANCH  11  14
ATOM     14  N   UNL     1       4.605  -0.498  -1.105  0.00  0.00    -0.187 NA
ATOM     15  H   UNL     1       4.287  -1.364  -1.403  0.00  0.00    +0.148 HD
BRANCH  14  16
ATOM     16  C   UNL     1       5.326   0.376  -2.034  0.00  0.00    +0.077 C 
ATOM     17  C   UNL     1       4.322   1.162  -2.879  0.00  0.00    +0.020 C 
ATOM     18  C   UNL     1       5.075   2.074  -3.849  0.00  0.00    +0.002 C 
ATOM     19  C   UNL     1       5.959   1.225  -4.766  0.00  0.00    +0.000 C 
ATOM     20  C   UNL     1       6.963   0.440  -3.920  0.00  0.00    +0.002 C 
ATOM     21  C   UNL     1       6.210  -0.473  -2.950  0.00  0.00    +0.020 C 
ENDBRANCH  14  16
ENDBRANCH  11  14
ENDBRANCH   8  11
BRANCH   9  22
ATOM     22  S   UNL     1      -1.297   3.607  -0.750  0.00  0.00    +0.059 S 
ATOM     23  O   UNL     1      -2.502   3.151  -1.349  0.00  0.00    -0.153 OA
ATOM     24  O   UNL     1      -1.267   4.214   0.534  0.00  0.00    -0.153 OA
BRANCH  22  25
ATOM     25  N   UNL     1      -0.626   4.694  -1.804  0.00  0.00    -0.187 NA
ATOM     26  H   UNL     1      -0.318   5.555  -1.481  0.00  0.00    +0.148 HD
BRANCH  25  27
ATOM     27  C   UNL     1      -0.499   4.355  -3.223  0.00  0.00    +0.077 C 
ATOM     28  C   UNL     1       0.910   3.825  -3.497  0.00  0.00    +0.020 C 
ATOM     29  C   UNL     1       1.043   3.472  -4.979  0.00  0.00    +0.002 C 
ATOM     30  C   UNL     1       0.795   4.722  -5.826  0.00  0.00    +0.000 C 
ATOM     31  C   UNL     1      -0.614   5.252  -5.552  0.00  0.00    +0.002 C 
ATOM     32  C   UNL     1      -0.747   5.606  -4.070  0.00  0.00    +0.020 C 
ENDBRANCH  25  27
ENDBRANCH  22  25
ENDBRANCH   9  22
TORSDOF 6
