REMARK  Name = ZINC63666502
REMARK  8 active torsions:
REMARK  status: ('A' for Active; 'I' for Inactive)
REMARK    1  A    between atoms: C_1  and  S_2
REMARK    2  A    between atoms: S_2  and  C_5
REMARK    3  A    between atoms: C_7  and  S_22
REMARK    4  A    between atoms: C_8  and  N_10
REMARK    5  A    between atoms: N_10  and  C_11
REMARK    6  A    between atoms: C_11  and  C_12
REMARK    7  A    between atoms: C_12  and  C_13
REMARK    8  A    between atoms: S_22  and  C_25
REMARK                            x       y       z     vdW  Elec       q    Type
REMARK                         _______ _______ _______ _____ _____    ______ ____
ROOT
ATOM      1  C   UNL     1       0.845  -0.437  -1.483  0.00  0.00    +0.218 A 
ATOM      2  N   UNL     1       2.129  -0.638  -1.684  0.00  0.00    -0.201 NA
ATOM      3  C   UNL     1       2.599  -0.960  -2.871  0.00  0.00    +0.212 A 
ATOM      4  C   UNL     1       1.739  -1.089  -3.923  0.00  0.00    +0.113 A 
ATOM      5  S   UNL     1       0.183  -0.729  -3.118  0.00  0.00    -0.032 S 
ENDROOT
BRANCH   1   7
ATOM      6  C   UNL     1      -0.022   1.810   0.012  0.00  0.00    +0.202 C 
ATOM      7  S   UNL     1       0.002  -0.004   0.002  0.00  0.00    +0.018 S 
ATOM      8  O   UNL     1       0.835  -0.488   1.046  0.00  0.00    -0.168 OA
ATOM      9  O   UNL     1      -1.315  -0.510  -0.168  0.00  0.00    -0.168 OA
ENDBRANCH   1   7
BRANCH   3  10
ATOM     10  S   UNL     1       4.327  -1.220  -3.101  0.00  0.00    +0.044 S 
ATOM     11  O   UNL     1       4.593  -0.990  -4.478  0.00  0.00    -0.163 OA
ATOM     12  O   UNL     1       4.987  -0.502  -2.067  0.00  0.00    -0.163 OA
BRANCH  10  13
ATOM     13  C   UNL     1       4.640  -2.929  -2.806  0.00  0.00    +0.095 A 
ATOM     14  C   UNL     1       4.946  -3.365  -1.530  0.00  0.00    +0.029 A 
ATOM     15  C   UNL     1       5.192  -4.705  -1.298  0.00  0.00    +0.022 A 
ATOM     16  C   UNL     1       5.131  -5.610  -2.343  0.00  0.00    +0.041 A 
ATOM     17  C   UNL     1       4.824  -5.173  -3.619  0.00  0.00    +0.022 A 
ATOM     18  C   UNL     1       4.573  -3.834  -3.849  0.00  0.00    +0.029 A 
ATOM     19 CL   UNL     1       5.439  -7.294  -2.052  0.00  0.00    -0.084 Cl
ENDBRANCH  10  13
ENDBRANCH   3  10
BRANCH   4  20
ATOM     20  N   UNL     1       2.001  -1.418  -5.255  0.00  0.00    -0.335 N 
ATOM     21  H   UNL     1       2.911  -1.592  -5.542  0.00  0.00    +0.147 HD
BRANCH  20  22
ATOM     22  C   UNL     1       0.900  -1.499  -6.219  0.00  0.00    +0.106 C 
BRANCH  22  23
ATOM     23  C   UNL     1       1.455  -1.872  -7.595  0.00  0.00    +0.052 C 
BRANCH  23  24
ATOM     24  C   UNL     1       0.323  -1.956  -8.587  0.00  0.00    -0.040 C 
ATOM     25  C   UNL     1      -0.096  -0.981  -9.426  0.00  0.00    -0.001 A 
ATOM     26  C   UNL     1       0.358   0.395  -9.657  0.00  0.00    +0.010 A 
ATOM     27  C   UNL     1      -0.275   1.148 -10.586  0.00  0.00    +0.001 A 
ATOM     28  C   UNL     1      -1.351   0.647 -11.331  0.00  0.00    +0.002 A 
ATOM     29  C   UNL     1      -1.826  -0.607 -11.175  0.00  0.00    +0.026 A 
ATOM     30  C   UNL     1      -1.235  -1.486 -10.226  0.00  0.00    +0.043 A 
ATOM     31  N   UNL     1      -1.509  -2.725  -9.895  0.00  0.00    -0.380 N 
ATOM     32  C   UNL     1      -0.570  -3.148  -8.850  0.00  0.00    +0.144 C 
ATOM     33  H   UNL     1      -2.212  -3.271 -10.279  0.00  0.00    +0.160 HD
ENDBRANCH  23  24
ENDBRANCH  22  23
ENDBRANCH  20  22
ENDBRANCH   4  20
TORSDOF 7
