REMARK  Name = ZINC37407926
REMARK  7 active torsions:
REMARK  status: ('A' for Active; 'I' for Inactive)
REMARK    1  A    between atoms: C_1  and  C_2
REMARK    2  A    between atoms: C_5  and  C_26
REMARK    3  A    between atoms: N_8  and  C_10
REMARK    4  A    between atoms: C_10  and  C_11
REMARK    5  A    between atoms: C_11  and  C_13
REMARK    6  A    between atoms: C_11  and  O_25
REMARK    7  A    between atoms: C_22  and  C_24
REMARK                            x       y       z     vdW  Elec       q    Type
REMARK                         _______ _______ _______ _____ _____    ______ ____
ROOT
ATOM      1  C   UNL     1       2.136   0.221   3.668  0.00  0.00    +0.128 C 
ENDROOT
BRANCH   1   2
ATOM      2  C   UNL     1       2.839  -0.216   4.928  0.00  0.00    -0.021 A 
ATOM      3  C   UNL     1       3.965   0.460   5.364  0.00  0.00    +0.008 A 
ATOM      4  C   UNL     1       4.610   0.063   6.515  0.00  0.00    +0.024 A 
ATOM      5  C   UNL     1       4.133  -1.024   7.251  0.00  0.00    +0.039 A 
ATOM      6  C   UNL     1       3.004  -1.694   6.806  0.00  0.00    -0.024 A 
ATOM      7  C   UNL     1       2.357  -1.288   5.654  0.00  0.00    +0.011 A 
ATOM      8  C   UNL     1       2.700  -2.817   7.771  0.00  0.00    +0.056 C 
ATOM      9  C   UNL     1       3.800  -2.717   8.841  0.00  0.00    +0.118 C 
ATOM     10  N   UNL     1       4.632  -1.583   8.431  0.00  0.00    -0.271 N 
ATOM     11  C   UNL     1       5.720  -1.143   9.095  0.00  0.00    +0.217 C 
ATOM     12  O   UNL     1       6.344  -0.193   8.673  0.00  0.00    -0.276 OA
ATOM     13  C   UNL     1       6.160  -1.832  10.361  0.00  0.00    +0.109 C 
ENDBRANCH   1   2
BRANCH   1  14
ATOM     14  O   UNL     1       2.213   1.643   3.548  0.00  0.00    -0.389 OA
ATOM     15  H   UNL     1       3.116   1.985   3.504  0.00  0.00    +0.210 HD
ENDBRANCH   1  14
BRANCH   1  16
ATOM     16  C   UNL     1       2.808  -0.431   2.458  0.00  0.00    -0.042 C 
BRANCH  16  22
ATOM     17  C   UNL     1      -0.019   1.526   0.010  0.00  0.00    +0.005 C 
ATOM     18  C   UNL     1       0.002  -0.004   0.002  0.00  0.00    -0.031 C 
ATOM     19  C   UNL     1       0.721  -0.499  -1.257  0.00  0.00    +0.003 C 
ATOM     20  C   UNL     1       2.177  -0.027  -1.220  0.00  0.00    -0.031 C 
ATOM     21  C   UNL     1       2.839  -0.534   0.063  0.00  0.00    -0.076 C 
ATOM     22  N   UNL     1       2.123  -0.005   1.230  0.00  0.00    +0.382 N 
ATOM     23  C   UNL     1       0.744  -0.512   1.240  0.00  0.00    -0.076 C 
ATOM     24  C   UNL     1       2.924  -0.581  -2.434  0.00  0.00    +0.005 C 
ATOM     25  H   UNL     1       2.109   1.003   1.187  0.00  0.00    -0.082 HD
ENDBRANCH  16  22
ENDBRANCH   1  16
TORSDOF 4
