REMARK  Name = ZINC11973806
REMARK  6 active torsions:
REMARK  status: ('A' for Active; 'I' for Inactive)
REMARK    1  A    between atoms: C_3  and  C_6
REMARK    2  A    between atoms: C_13  and  C_33
REMARK    3  A    between atoms: C_14  and  C_17
REMARK    4  A    between atoms: C_22  and  N_67
REMARK    5  A    between atoms: C_28  and  C_31
REMARK    6  A    between atoms: C_31  and  O_32
REMARK                            x       y       z     vdW  Elec       q    Type
REMARK                         _______ _______ _______ _____ _____    ______ ____
ROOT
ATOM      1  C   UNL     1      -1.292   4.798  -9.328  0.00  0.00    +0.083 A 
ATOM      2  C   UNL     1      -0.879   6.132  -9.212  0.00  0.00    +0.049 A 
ATOM      3  C   UNL     1      -0.084   6.483  -8.138  0.00  0.00    +0.117 A 
ATOM      4  N   UNL     1       0.261   5.556  -7.256  0.00  0.00    -0.219 NA
ATOM      5  C   UNL     1      -0.143   4.303  -7.390  0.00  0.00    +0.252 A 
ATOM      6  N   UNL     1      -0.900   3.920  -8.404  0.00  0.00    -0.210 NA
ATOM      7  N   UNL     1       0.245   3.360  -6.438  0.00  0.00    -0.201 N 
ATOM      8  C   UNL     1       0.951   3.614  -5.319  0.00  0.00    +0.063 A 
ATOM      9  C   UNL     1       1.124   2.415  -4.660  0.00  0.00    +0.078 A 
ATOM     10  C   UNL     1       0.479   1.419  -5.429  0.00  0.00    +0.148 A 
ATOM     11  N   UNL     1      -0.038   1.990  -6.481  0.00  0.00    -0.171 NA
ENDROOT
BRANCH   9  12
ATOM     12  C   UNL     1       1.841   2.211  -3.388  0.00  0.00    +0.250 C 
ATOM     13  O   UNL     1       2.887   2.796  -3.179  0.00  0.00    -0.270 OA
ATOM     14  N   UNL     1       1.339   1.376  -2.457  0.00  0.00    -0.298 N 
ATOM     15  C   UNL     1       2.098   1.072  -1.236  0.00  0.00    +0.106 C 
ATOM     16  C   UNL     1       1.212   1.360  -0.020  0.00  0.00    +0.004 C 
ATOM     17  C   UNL     1      -0.100   0.583  -0.155  0.00  0.00    -0.066 C 
ATOM     18  C   UNL     1      -0.841   1.044  -1.412  0.00  0.00    +0.004 C 
ATOM     19  C   UNL     1       0.022   0.752  -2.644  0.00  0.00    +0.106 C 
BRANCH  17  25
ATOM     20  C   UNL     1      -1.167   2.269   1.216  0.00  0.00    -0.078 C 
ATOM     21  C   UNL     1      -1.918   2.498   2.530  0.00  0.00    -0.018 C 
ATOM     22  C   UNL     1      -3.255   1.752   2.485  0.00  0.00    +0.002 C 
ATOM     23  C   UNL     1      -2.991   0.264   2.237  0.00  0.00    -0.002 C 
ATOM     24  C   UNL     1      -2.209   0.100   0.932  0.00  0.00    -0.073 C 
ATOM     25  N   UNL     1      -0.924   0.821   1.049  0.00  0.00    +0.382 N 
ATOM     26  H   UNL     1      -0.419   0.471   1.872  0.00  0.00    -0.081 HD
BRANCH  23  27
ATOM     27  C   UNL     1      -4.324  -0.480   2.131  0.00  0.00    +0.157 C 
BRANCH  27  28
ATOM     28  O   UNL     1      -5.002  -0.425   3.388  0.00  0.00    -0.395 OA
ATOM     29  H   UNL     1      -5.856  -0.878   3.394  0.00  0.00    +0.209 HD
ENDBRANCH  27  28
ENDBRANCH  23  27
ENDBRANCH  17  25
ENDBRANCH   9  12
BRANCH   1  32
ATOM     30  C   UNL     1      -3.419   2.964 -11.860  0.00  0.00    +0.008 A 
ATOM     31  C   UNL     1      -2.641   3.126 -10.738  0.00  0.00    +0.017 A 
ATOM     32  C   UNL     1      -2.141   4.371 -10.456  0.00  0.00    +0.038 A 
ATOM     33  S   UNL     1      -2.792   5.343 -11.805  0.00  0.00    -0.095 S 
ATOM     34  C   UNL     1      -3.669   4.040 -12.653  0.00  0.00    +0.046 A 
ENDBRANCH   1  32
BRANCH   8  35
ATOM     35  C   UNL     1       1.461   4.960  -4.872  0.00  0.00    +0.039 C 
ATOM     36  C   UNL     1       1.225   5.356  -3.413  0.00  0.00    +0.010 C 
ATOM     37  C   UNL     1       0.423   6.030  -4.528  0.00  0.00    +0.010 C 
ENDBRANCH   8  35
TORSDOF 6
