REMARK  Name = ZINC59914693
REMARK  13 active torsions:
REMARK  status: ('A' for Active; 'I' for Inactive)
REMARK    1  A    between atoms: C_1  and  C_2
REMARK    2  A    between atoms: C_2  and  C_3
REMARK    3  A    between atoms: C_3  and  C_29
REMARK    4  A    between atoms: N_4  and  N_5
REMARK    5  A    between atoms: C_6  and  C_8
REMARK    6  A    between atoms: C_8  and  C_10
REMARK    7  A    between atoms: C_8  and  S_11
REMARK    8  A    between atoms: S_11  and  C_12
REMARK    9  A    between atoms: C_15  and  C_20
REMARK   10  A    between atoms: N_16  and  C_17
REMARK   11  A    between atoms: C_17  and  C_18
REMARK   12  A    between atoms: C_20  and  N_21
REMARK   13  A    between atoms: N_21  and  C_22
REMARK                            x       y       z     vdW  Elec       q    Type
REMARK                         _______ _______ _______ _____ _____    ______ ____
ROOT
ATOM      1  C   UNL     1      -7.286  -3.671  -3.562  0.00  0.00    +0.193 A 
ATOM      2  N   UNL     1      -7.973  -3.730  -2.445  0.00  0.00    -0.122 NA
ATOM      3  N   UNL     1      -9.179  -4.096  -2.693  0.00  0.00    -0.132 NA
ATOM      4  C   UNL     1      -9.334  -4.291  -3.972  0.00  0.00    +0.152 A 
ATOM      5  N   UNL     1      -8.135  -4.022  -4.572  0.00  0.00    -0.301 N 
ENDROOT
BRANCH   1   6
ATOM      6  S   UNL     1      -5.591  -3.218  -3.728  0.00  0.00    -0.073 S 
BRANCH   6   7
ATOM      7  C   UNL     1      -5.059  -2.878  -2.028  0.00  0.00    +0.139 C 
ATOM      8  C   UNL     1      -5.121  -4.168  -1.207  0.00  0.00    +0.029 C 
BRANCH   7  10
ATOM      9  N   UNL     1      -3.174  -1.666  -0.981  0.00  0.00    -0.206 N 
ATOM     10  C   UNL     1      -3.646  -2.357  -2.038  0.00  0.00    +0.245 C 
ATOM     11  O   UNL     1      -2.932  -2.558  -2.998  0.00  0.00    -0.273 OA
ATOM     12  H   UNL     1      -3.745  -1.505  -0.214  0.00  0.00    +0.177 HD
BRANCH   9  14
ATOM     13  C   UNL     1      -1.412  -0.526   0.013  0.00  0.00    +0.034 C 
ATOM     14  N   UNL     1      -1.860  -1.181  -0.991  0.00  0.00    -0.189 NA
ATOM     15  C   UNL     1      -2.298  -0.275   1.205  0.00  0.00    +0.062 C 
BRANCH  13  17
ATOM     16  C   UNL     1      -0.019   1.526   0.010  0.00  0.00    +0.010 C 
ATOM     17  C   UNL     1       0.002  -0.004   0.002  0.00  0.00    +0.049 C 
ENDBRANCH  13  17
ENDBRANCH   9  14
ENDBRANCH   7  10
ENDBRANCH   6   7
ENDBRANCH   1   6
BRANCH   5  18
ATOM     18  C   UNL     1      -7.826  -4.097  -6.002  0.00  0.00    +0.152 C 
BRANCH  18  19
ATOM     19  C   UNL     1      -7.342  -5.484  -6.339  0.00  0.00    -0.013 C 
ATOM     20  C   UNL     1      -7.933  -6.173  -7.283  0.00  0.00    +0.005 C 
ENDBRANCH  18  19
ENDBRANCH   5  18
BRANCH   4  21
ATOM     21  C   UNL     1     -10.601  -4.726  -4.662  0.00  0.00    +0.178 C 
BRANCH  21  22
ATOM     22  N   UNL     1     -11.380  -3.545  -5.043  0.00  0.00    -0.337 N 
ATOM     23  H   UNL     1     -11.047  -2.658  -4.838  0.00  0.00    +0.147 HD
BRANCH  22  24
ATOM     24  C   UNL     1     -12.603  -3.698  -5.701  0.00  0.00    +0.028 A 
ATOM     25  C   UNL     1     -13.084  -4.968  -5.990  0.00  0.00    +0.024 A 
ATOM     26  C   UNL     1     -14.293  -5.116  -6.640  0.00  0.00    +0.016 A 
ATOM     27  C   UNL     1     -15.025  -3.999  -7.005  0.00  0.00    +0.013 A 
ATOM     28  C   UNL     1     -14.548  -2.733  -6.719  0.00  0.00    +0.016 A 
ATOM     29  C   UNL     1     -13.343  -2.579  -6.063  0.00  0.00    +0.024 A 
ATOM     30  I   UNL     1     -16.858  -4.228  -7.993  0.00  0.00    -0.044 I 
ENDBRANCH  22  24
ENDBRANCH  21  22
ENDBRANCH   4  21
TORSDOF 10
