REMARK  Name = ZINC04991004
REMARK  7 active torsions:
REMARK  status: ('A' for Active; 'I' for Inactive)
REMARK    1  A    between atoms: C_1  and  C_2
REMARK    2  A    between atoms: C_5  and  N_9
REMARK    3  A    between atoms: N_9  and  C_10
REMARK    4  A    between atoms: C_10  and  N_12
REMARK    5  A    between atoms: N_12  and  C_13
REMARK    6  A    between atoms: N_12  and  C_24
REMARK    7  A    between atoms: C_13  and  C_14
REMARK                            x       y       z     vdW  Elec       q    Type
REMARK                         _______ _______ _______ _____ _____    ______ ____
ROOT
ATOM      1  N   UNL     1      -0.124  -6.184  -1.190  0.00  0.00    -0.305 N 
ENDROOT
BRANCH   1   2
ATOM      2  C   UNL     1      -0.218  -6.913   0.077  0.00  0.00    +0.075 C 
ATOM      3  C   UNL     1      -1.400  -6.378   0.887  0.00  0.00    +0.022 C 
ATOM      4  C   UNL     1      -1.498  -7.139   2.210  0.00  0.00    +0.002 C 
ATOM      5  C   UNL     1      -0.206  -6.947   3.006  0.00  0.00    +0.000 C 
ATOM      6  C   UNL     1       0.976  -7.482   2.196  0.00  0.00    +0.002 C 
ATOM      7  C   UNL     1       1.074  -6.721   0.873  0.00  0.00    +0.022 C 
ENDBRANCH   1   2
BRANCH   1   8
ATOM      8  C   UNL     1      -0.053  -4.838  -1.190  0.00  0.00    +0.138 C 
ATOM      9  S   UNL     1      -0.074  -3.979  -2.671  0.00  0.00    -0.018 S 
BRANCH   8  10
ATOM     10  N   UNL     1       0.036  -4.168  -0.024  0.00  0.00    -0.296 N 
ATOM     11  H   UNL     1       0.118  -4.656   0.811  0.00  0.00    +0.154 HD
BRANCH  10  16
ATOM     12  C   UNL     1      -0.075   1.504   0.004  0.00  0.00    +0.044 C 
ATOM     13  C   UNL     1      -0.046  -0.002  -0.003  0.00  0.00    -0.049 A 
ATOM     14  C   UNL     1       0.800  -0.672  -0.868  0.00  0.00    +0.005 A 
ATOM     15  C   UNL     1       0.829  -2.053  -0.877  0.00  0.00    +0.025 A 
ATOM     16  C   UNL     1       0.009  -2.769  -0.017  0.00  0.00    +0.051 A 
ATOM     17  C   UNL     1      -0.840  -2.094   0.852  0.00  0.00    +0.062 A 
ATOM     18  C   UNL     1      -0.861  -0.712   0.859  0.00  0.00    +0.025 A 
ATOM     19 CL   UNL     1      -1.869  -2.984   1.930  0.00  0.00    -0.082 Cl
ENDBRANCH  10  16
ENDBRANCH   8  10
ENDBRANCH   1   8
BRANCH   1  20
ATOM     20  C   UNL     1      -0.108  -6.918  -2.458  0.00  0.00    +0.144 C 
BRANCH  20  21
ATOM     21  C   UNL     1       1.315  -7.245  -2.831  0.00  0.00    -0.005 A 
ATOM     22  C   UNL     1       2.082  -6.582  -3.711  0.00  0.00    +0.088 A 
ATOM     23  N   UNL     1       3.316  -7.169  -3.789  0.00  0.00    -0.360 N 
ATOM     24  H   UNL     1       4.042  -6.867  -4.358  0.00  0.00    +0.165 HD
ATOM     25  C   UNL     1       3.374  -8.251  -2.940  0.00  0.00    +0.047 A 
ATOM     26  C   UNL     1       2.125  -8.343  -2.298  0.00  0.00    +0.004 A 
ATOM     27  C   UNL     1       1.894  -9.356  -1.366  0.00  0.00    +0.010 A 
ATOM     28  C   UNL     1       2.884 -10.253  -1.079  0.00  0.00    +0.001 A 
ATOM     29  C   UNL     1       4.119 -10.164  -1.706  0.00  0.00    +0.002 A 
ATOM     30  C   UNL     1       4.366  -9.178  -2.636  0.00  0.00    +0.026 A 
ENDBRANCH  20  21
ENDBRANCH   1  20
TORSDOF 6
