REMARK  Name = ZINC12801668
REMARK  3 active torsions:
REMARK  status: ('A' for Active; 'I' for Inactive)
REMARK    1  A    between atoms: C_3  and  C_9
REMARK    2  A    between atoms: C_10  and  C_11
REMARK    3  A    between atoms: C_17  and  C_19
REMARK                            x       y       z     vdW  Elec       q    Type
REMARK                         _______ _______ _______ _____ _____    ______ ____
ROOT
ATOM      1  C   UNL     1      -3.747  -1.080   0.012  0.00  0.00    +0.240 C 
ATOM      2  O   UNL     1      -4.807  -0.481   0.021  0.00  0.00    -0.271 OA
ATOM      3  N   UNL     1      -3.734  -2.427   0.004  0.00  0.00    -0.288 N 
ATOM      4  C   UNL     1      -2.529  -3.275  -0.013  0.00  0.00    +0.109 C 
ATOM      5  C   UNL     1      -2.987  -4.625   0.599  0.00  0.00    +0.021 C 
ATOM      6  C   UNL     1      -4.421  -4.755   0.020  0.00  0.00    +0.032 C 
ATOM      7  C   UNL     1      -4.921  -3.295   0.005  0.00  0.00    +0.144 C 
ENDROOT
BRANCH   7   8
ATOM      8  C   UNL     1      -5.740  -3.044  -1.235  0.00  0.00    +0.154 A 
ATOM      9  N   UNL     1      -5.284  -2.902  -2.451  0.00  0.00    -0.132 NA
ATOM     10  N   UNL     1      -6.264  -2.708  -3.263  0.00  0.00    -0.134 NA
ATOM     11  C   UNL     1      -7.386  -2.722  -2.602  0.00  0.00    +0.134 A 
ATOM     12  N   UNL     1      -7.085  -2.929  -1.299  0.00  0.00    -0.313 N 
ATOM     13  C   UNL     1      -8.032  -2.981  -0.184  0.00  0.00    +0.125 C 
ATOM     14  C   UNL     1      -9.387  -3.476  -0.695  0.00  0.00    +0.022 C 
ATOM     15  C   UNL     1     -10.232  -2.287  -1.150  0.00  0.00    +0.002 C 
ATOM     16  C   UNL     1      -9.545  -1.551  -2.297  0.00  0.00    +0.008 C 
ATOM     17  C   UNL     1      -8.775  -2.554  -3.162  0.00  0.00    +0.076 C 
ENDBRANCH   7   8
BRANCH   1  19
ATOM     18  C   UNL     1      -2.499   1.013   0.019  0.00  0.00    +0.014 C 
ATOM     19  C   UNL     1      -2.487  -0.336   0.011  0.00  0.00    +0.068 C 
BRANCH  18  22
ATOM     20  C   UNL     1       1.171   1.783   0.001  0.00  0.00    +0.020 A 
ATOM     21  C   UNL     1      -0.013   1.076   0.008  0.00  0.00    +0.011 A 
ATOM     22  C   UNL     1      -1.232   1.760   0.018  0.00  0.00    -0.006 A 
ATOM     23  C   UNL     1      -1.241   3.160   0.032  0.00  0.00    +0.049 A 
ATOM     24  C   UNL     1      -0.049   3.854   0.024  0.00  0.00    +0.040 A 
ATOM     25  C   UNL     1       1.155   3.168   0.008  0.00  0.00    +0.042 A 
ATOM     26 CL   UNL     1       2.651   4.049  -0.002  0.00  0.00    -0.083 Cl
ATOM     27 CL   UNL     1      -2.749   4.021   0.052  0.00  0.00    -0.083 Cl
ENDBRANCH  18  22
ENDBRANCH   1  19
TORSDOF 3
