REMARK  Name = ZINC20353412
REMARK  6 active torsions:
REMARK  status: ('A' for Active; 'I' for Inactive)
REMARK    1  A    between atoms: C_1  and  O_2
REMARK    2  A    between atoms: O_2  and  C_3
REMARK    3  A    between atoms: C_4  and  C_11
REMARK    4  A    between atoms: N_13  and  C_14
REMARK    5  A    between atoms: C_14  and  N_16
REMARK    6  A    between atoms: N_16  and  C_17
REMARK                            x       y       z     vdW  Elec       q    Type
REMARK                         _______ _______ _______ _____ _____    ______ ____
ROOT
ATOM      1  C   UNL     1      -0.564   1.536   4.749  0.00  0.00    +0.253 C 
ATOM      2  O   UNL     1       0.435   0.850   4.851  0.00  0.00    -0.270 OA
ATOM      3  N   UNL     1      -0.980   1.943   3.533  0.00  0.00    -0.264 N 
ATOM      4  H   UNL     1      -1.883   2.564   3.441  0.00  0.00    +0.157 HD
ENDROOT
BRANCH   1   6
ATOM      5  C   UNL     1      -0.894   1.495   7.220  0.00  0.00    +0.146 A 
ATOM      6  C   UNL     1      -1.320   1.922   5.954  0.00  0.00    +0.081 A 
ATOM      7  C   UNL     1      -2.468   2.710   5.841  0.00  0.00    +0.032 A 
ATOM      8  C   UNL     1      -3.171   3.067   6.973  0.00  0.00    +0.020 A 
ATOM      9  C   UNL     1      -2.744   2.648   8.223  0.00  0.00    +0.034 A 
ATOM     10  C   UNL     1      -1.610   1.869   8.348  0.00  0.00    +0.061 A 
ATOM     11 BR   UNL     1      -1.038   1.303  10.060  0.00  0.00    -0.046 Br
ATOM     12 BR   UNL     1      -4.725   4.134   6.817  0.00  0.00    -0.050 Br
BRANCH   5  14
ATOM     13  C   UNL     1       1.462   1.405   7.513  0.00  0.00    +0.277 C 
ATOM     14  O   UNL     1       0.216   0.725   7.341  0.00  0.00    -0.493 OA
ENDBRANCH   5  14
ENDBRANCH   1   6
BRANCH   3  15
ATOM     15  C   UNL     1      -0.288   1.591   2.431  0.00  0.00    +0.137 C 
ATOM     16  S   UNL     1       1.118   0.625   2.575  0.00  0.00    -0.018 S 
BRANCH  15  17
ATOM     17  N   UNL     1      -0.704   1.998   1.216  0.00  0.00    -0.321 N 
ATOM     18  H   UNL     1      -1.556   2.688   1.129  0.00  0.00    +0.148 HD
BRANCH  17  19
ATOM     19  C   UNL     1      -0.022   1.522   0.010  0.00  0.00    +0.034 C 
ATOM     20  C   UNL     1       1.431   2.003   0.023  0.00  0.00    +0.029 C 
ATOM     21  C   UNL     1       2.144   1.506  -1.236  0.00  0.00    -0.008 C 
ATOM     22  C   UNL     1       2.113  -0.024  -1.269  0.00  0.00    +0.007 C 
ATOM     23  C   UNL     1       0.661  -0.504  -1.282  0.00  0.00    -0.008 C 
ATOM     24  C   UNL     1      -0.052  -0.007  -0.023  0.00  0.00    +0.029 C 
ATOM     25  C   UNL     1      -0.048   0.047  -2.521  0.00  0.00    +0.007 C 
ATOM     26  C   UNL     1      -0.017   1.576  -2.488  0.00  0.00    -0.008 C 
ATOM     27  C   UNL     1       1.435   2.057  -2.475  0.00  0.00    +0.007 C 
ATOM     28  C   UNL     1      -0.730   2.073  -1.229  0.00  0.00    +0.029 C 
ENDBRANCH  17  19
ENDBRANCH  15  17
ENDBRANCH   3  15
TORSDOF 5
