REMARK  Name = ZINC54514200
REMARK  12 active torsions:
REMARK  status: ('A' for Active; 'I' for Inactive)
REMARK    1  A    between atoms: C_1  and  C_2
REMARK    2  A    between atoms: C_2  and  C_3
REMARK    3  A    between atoms: C_3  and  S_4
REMARK    4  A    between atoms: S_4  and  N_7
REMARK    5  A    between atoms: N_7  and  C_8
REMARK    6  A    between atoms: N_11  and  C_14
REMARK    7  A    between atoms: C_14  and  C_15
REMARK    8  A    between atoms: C_17  and  C_23
REMARK    9  A    between atoms: C_18  and  C_22
REMARK   10  A    between atoms: C_20  and  O_21
REMARK   11  A    between atoms: C_23  and  C_24
REMARK   12  A    between atoms: C_23  and  C_25
REMARK                            x       y       z     vdW  Elec       q    Type
REMARK                         _______ _______ _______ _____ _____    ______ ____
ROOT
ATOM      1  C   UNL     1       3.172  -1.450  -2.700  0.00  0.00    +0.073 C 
ATOM      2  C   UNL     1       3.809  -2.785  -2.303  0.00  0.00    +0.002 C 
ATOM      3  C   UNL     1       5.308  -2.738  -2.608  0.00  0.00    -0.077 C 
ATOM      4  N   UNL     1       5.512  -2.505  -4.043  0.00  0.00    +0.383 N 
ATOM      5  C   UNL     1       4.966  -1.194  -4.416  0.00  0.00    -0.077 C 
ATOM      6  C   UNL     1       3.454  -1.181  -4.181  0.00  0.00    +0.002 C 
ATOM      7  H   UNL     1       5.043  -3.226  -4.570  0.00  0.00    -0.081 HD
ENDROOT
BRANCH   1   8
ATOM      8  N   UNL     1       1.724  -1.515  -2.481  0.00  0.00    -0.192 NA
ATOM      9  H   UNL     1       1.147  -1.893  -3.163  0.00  0.00    +0.148 HD
BRANCH   8  10
ATOM     10  S   UNL     1       1.074  -0.943  -1.070  0.00  0.00    +0.030 S 
ATOM     11  O   UNL     1       1.831  -1.567  -0.042  0.00  0.00    -0.158 OA
ATOM     12  O   UNL     1      -0.321  -1.183  -1.190  0.00  0.00    -0.158 OA
BRANCH  10  13
ATOM     13  C   UNL     1       1.404   0.841  -1.095  0.00  0.00    +0.185 C 
BRANCH  13  15
ATOM     14  C   UNL     1       1.120   2.986   0.155  0.00  0.00    +0.005 C 
ATOM     15  C   UNL     1       0.841   1.481   0.176  0.00  0.00    +0.021 C 
ENDBRANCH  13  15
ENDBRANCH  10  13
ENDBRANCH   8  10
ENDBRANCH   1   8
BRANCH   4  16
ATOM     16  C   UNL     1       6.949  -2.538  -4.343  0.00  0.00    -0.039 C 
BRANCH  16  17
ATOM     17  C   UNL     1       7.154  -2.421  -5.832  0.00  0.00    -0.022 A 
ATOM     18  C   UNL     1       7.607  -1.235  -6.376  0.00  0.00    +0.009 A 
ATOM     19  C   UNL     1       7.795  -1.127  -7.742  0.00  0.00    -0.041 A 
ATOM     20  C   UNL     1       7.530  -2.205  -8.566  0.00  0.00    -0.044 A 
ATOM     21  C   UNL     1       7.077  -3.393  -8.027  0.00  0.00    +0.049 A 
ATOM     22  C   UNL     1       6.893  -3.506  -6.656  0.00  0.00    +0.118 A 
ATOM     23  C   UNL     1       7.735  -2.084 -10.054  0.00  0.00    +0.044 C 
BRANCH  19  24
ATOM     24  C   UNL     1       8.288   0.169  -8.333  0.00  0.00    +0.013 C 
ATOM     25  C   UNL     1       7.232   1.257  -8.130  0.00  0.00    +0.012 C 
ATOM     26  C   UNL     1       9.588   0.584  -7.640  0.00  0.00    +0.012 C 
ENDBRANCH  19  24
BRANCH  22  27
ATOM     27  O   UNL     1       6.454  -4.676  -6.122  0.00  0.00    -0.507 OA
ATOM     28  H   UNL     1       5.491  -4.743  -6.061  0.00  0.00    +0.292 HD
ENDBRANCH  22  27
ENDBRANCH  16  17
ENDBRANCH   4  16
TORSDOF 8
