REMARK  Name = ZINC12192178
REMARK  6 active torsions:
REMARK  status: ('A' for Active; 'I' for Inactive)
REMARK    1  A    between atoms: C_7  and  C_11
REMARK    2  A    between atoms: N_12  and  N_13
REMARK    3  A    between atoms: C_18  and  C_21
REMARK    4  A    between atoms: C_21  and  C_22
REMARK    5  A    between atoms: C_25  and  S_28
REMARK    6  A    between atoms: S_28  and  C_29
REMARK                            x       y       z     vdW  Elec       q    Type
REMARK                         _______ _______ _______ _____ _____    ______ ____
ROOT
ATOM      1  N   UNL     1      -1.467  -4.167  -0.006  0.00  0.00    -0.127 NA
ATOM      2  C   UNL     1      -2.768  -3.978   0.007  0.00  0.00    +0.183 C 
ATOM      3  N   UNL     1      -3.768  -4.929   0.018  0.00  0.00    -0.263 N 
ATOM      4  C   UNL     1      -5.050  -4.610   0.031  0.00  0.00    +0.232 C 
ATOM      5  O   UNL     1      -5.924  -5.451   0.041  0.00  0.00    -0.274 OA
ATOM      6  C   UNL     1      -5.362  -3.122   0.034  0.00  0.00    +0.144 C 
ATOM      7  S   UNL     1      -3.657  -2.428   0.024  0.00  0.00    -0.075 S 
ATOM      8  H   UNL     1      -3.520  -5.867   0.015  0.00  0.00    +0.157 HD
ENDROOT
BRANCH   1  10
ATOM      9  C   UNL     1       0.693  -3.255  -0.022  0.00  0.00    +0.145 C 
ATOM     10  N   UNL     1      -0.599  -3.067  -0.009  0.00  0.00    -0.155 NA
BRANCH   9  17
ATOM     11  C   UNL     1      -0.017   1.373   0.010  0.00  0.00    +0.001 A 
ATOM     12  C   UNL     1       1.172   2.090   0.002  0.00  0.00    +0.002 A 
ATOM     13  C   UNL     1       2.385   1.438  -0.013  0.00  0.00    +0.026 A 
ATOM     14  C   UNL     1       2.425   0.046  -0.021  0.00  0.00    +0.047 A 
ATOM     15  C   UNL     1       1.222  -0.677  -0.013  0.00  0.00    +0.008 A 
ATOM     16  C   UNL     1       0.002  -0.004   0.002  0.00  0.00    +0.010 A 
ATOM     17  C   UNL     1       1.603  -2.101  -0.024  0.00  0.00    +0.020 A 
ATOM     18  C   UNL     1       2.965  -2.138  -0.038  0.00  0.00    +0.093 A 
ATOM     19  N   UNL     1       3.458  -0.867  -0.035  0.00  0.00    -0.360 N 
ATOM     20  H   UNL     1       4.401  -0.638  -0.044  0.00  0.00    +0.165 HD
ENDBRANCH   9  17
ENDBRANCH   1  10
BRANCH   6  21
ATOM     21  C   UNL     1      -6.140  -2.716  -1.220  0.00  0.00    +0.059 C 
BRANCH  21  22
ATOM     22  C   UNL     1      -6.534  -1.265  -1.119  0.00  0.00    -0.046 A 
ATOM     23  C   UNL     1      -7.737  -0.916  -0.533  0.00  0.00    +0.005 A 
ATOM     24  C   UNL     1      -8.101   0.413  -0.439  0.00  0.00    +0.015 A 
ATOM     25  C   UNL     1      -7.257   1.400  -0.933  0.00  0.00    +0.013 A 
ATOM     26  C   UNL     1      -6.048   1.045  -1.521  0.00  0.00    +0.015 A 
ATOM     27  C   UNL     1      -5.688  -0.285  -1.607  0.00  0.00    +0.005 A 
BRANCH  25  28
ATOM     28  S   UNL     1      -7.718   3.096  -0.816  0.00  0.00    -0.056 S 
BRANCH  28  29
ATOM     29  C   UNL     1      -6.330   3.982  -1.578  0.00  0.00    +0.404 C 
ATOM     30  F   UNL     1      -5.155   3.705  -0.871  0.00  0.00    -0.197 F 
ATOM     31  F   UNL     1      -6.184   3.566  -2.906  0.00  0.00    -0.197 F 
ENDBRANCH  28  29
ENDBRANCH  25  28
ENDBRANCH  21  22
ENDBRANCH   6  21
TORSDOF 6
