REMARK  Name = ZINC04832628
REMARK  5 active torsions:
REMARK  status: ('A' for Active; 'I' for Inactive)
REMARK    1  A    between atoms: C_4  and  C_7
REMARK    2  A    between atoms: C_7  and  O_29
REMARK    3  A    between atoms: C_8  and  C_27
REMARK    4  A    between atoms: C_10  and  C_20
REMARK    5  A    between atoms: C_12  and  C_17
REMARK                            x       y       z     vdW  Elec       q    Type
REMARK                         _______ _______ _______ _____ _____    ______ ____
ROOT
ATOM      1  C   UNL     1       1.332   2.197   2.414  0.00  0.00    +0.175 C 
ATOM      2  C   UNL     1       2.044   1.335   1.371  0.00  0.00    +0.155 C 
ATOM      3  C   UNL     1       1.424   1.614  -0.003  0.00  0.00    +0.061 C 
ATOM      4  C   UNL     1      -0.012   1.084  -0.002  0.00  0.00    +0.169 C 
ATOM      5  C   UNL     1      -0.734   1.566   1.224  0.00  0.00    +0.228 C 
ATOM      6  O   UNL     1      -1.946   1.519   1.232  0.00  0.00    -0.275 OA
ATOM      7  N   UNL     1      -0.113   2.041   2.304  0.00  0.00    -0.282 N 
ATOM      8  H   UNL     1      -0.657   2.300   3.064  0.00  0.00    +0.152 HD
ENDROOT
BRANCH   3   9
ATOM      9  C   UNL     1       1.417   3.098  -0.265  0.00  0.00    -0.041 A 
ATOM     10  C   UNL     1       0.302   3.851   0.054  0.00  0.00    +0.004 A 
ATOM     11  C   UNL     1       0.295   5.212  -0.185  0.00  0.00    +0.001 A 
ATOM     12  C   UNL     1       1.404   5.822  -0.743  0.00  0.00    +0.015 A 
ATOM     13  C   UNL     1       2.519   5.069  -1.062  0.00  0.00    +0.018 A 
ATOM     14  C   UNL     1       2.527   3.707  -0.818  0.00  0.00    +0.019 A 
ATOM     15 BR   UNL     1       4.036   5.902  -1.826  0.00  0.00    -0.050 Br
ENDBRANCH   3   9
BRANCH   1  19
ATOM     16  C   UNL     1       2.586   1.012   6.322  0.00  0.00    +0.000 A 
ATOM     17  C   UNL     1       3.277   1.998   5.644  0.00  0.00    +0.000 A 
ATOM     18  C   UNL     1       2.872   2.381   4.379  0.00  0.00    +0.008 A 
ATOM     19  C   UNL     1       1.774   1.779   3.793  0.00  0.00    +0.003 A 
ATOM     20  C   UNL     1       1.079   0.796   4.473  0.00  0.00    +0.008 A 
ATOM     21  C   UNL     1       1.488   0.410   5.736  0.00  0.00    +0.000 A 
ENDBRANCH   1  19
BRANCH   4  22
ATOM     22  C   UNL     1      -0.730   1.581  -1.231  0.00  0.00    +0.223 C 
ATOM     23  O   UNL     1      -0.151   2.291  -2.026  0.00  0.00    -0.275 OA
ATOM     24  N   UNL     1      -2.015   1.236  -1.446  0.00  0.00    -0.329 N 
ATOM     25  H   UNL     1      -2.478   0.668  -0.810  0.00  0.00    +0.145 HD
ATOM     26  H   UNL     1      -2.477   1.556  -2.237  0.00  0.00    +0.145 HD
ENDBRANCH   4  22
BRANCH   2  27
ATOM     27  C   UNL     1       1.877  -0.088   1.709  0.00  0.00    +0.071 C 
ATOM     28  N   UNL     1       1.748  -1.186   1.970  0.00  0.00    -0.196 NA
ENDBRANCH   2  27
BRANCH   1  29
ATOM     29  O   UNL     1       1.672   3.569   2.205  0.00  0.00    -0.366 OA
ATOM     30  H   UNL     1       1.256   4.178   2.831  0.00  0.00    +0.212 HD
ENDBRANCH   1  29
TORSDOF 5
