REMARK  Name = ZINC59386468
REMARK  4 active torsions:
REMARK  status: ('A' for Active; 'I' for Inactive)
REMARK    1  A    between atoms: C_4  and  C_20
REMARK    2  A    between atoms: C_5  and  C_7
REMARK    3  A    between atoms: C_7  and  N_8
REMARK    4  A    between atoms: C_12  and  N_15
REMARK                            x       y       z     vdW  Elec       q    Type
REMARK                         _______ _______ _______ _____ _____    ______ ____
ROOT
ATOM      1  N   UNL     1       1.601  -2.680   1.309  0.00  0.00    -0.300 NA
ATOM      2  C   UNL     1       2.941  -2.211   1.683  0.00  0.00    +0.084 C 
ATOM      3  C   UNL     1       3.241  -2.619   3.127  0.00  0.00    +0.014 C 
ATOM      4  C   UNL     1       3.162  -4.144   3.248  0.00  0.00    -0.013 C 
ATOM      5  C   UNL     1       1.773  -4.611   2.807  0.00  0.00    -0.054 C 
ATOM      6  C   UNL     1       1.515  -4.145   1.372  0.00  0.00    +0.069 C 
ENDROOT
BRANCH   5   7
ATOM      7  N   UNL     1       1.707  -6.078   2.866  0.00  0.00    +0.382 N 
ATOM      8  C   UNL     1       1.873  -6.542   4.267  0.00  0.00    -0.078 C 
ATOM      9  C   UNL     1       1.236  -7.954   4.251  0.00  0.00    -0.020 C 
ATOM     10  C   UNL     1       0.029  -7.777   3.301  0.00  0.00    -0.020 C 
ATOM     11  C   UNL     1       0.369  -6.546   2.442  0.00  0.00    -0.078 C 
ATOM     12  H   UNL     1       2.420  -6.482   2.278  0.00  0.00    -0.081 HD
ENDBRANCH   5   7
BRANCH   1  13
ATOM     13  C   UNL     1       1.223  -2.188  -0.022  0.00  0.00    +0.120 C 
BRANCH  13  18
ATOM     14  C   UNL     1       1.607   1.550  -0.394  0.00  0.00    +0.000 A 
ATOM     15  C   UNL     1       0.438   2.017   0.183  0.00  0.00    +0.001 A 
ATOM     16  C   UNL     1      -0.483   1.128   0.696  0.00  0.00    +0.019 A 
ATOM     17  C   UNL     1      -0.235  -0.245   0.633  0.00  0.00    +0.056 A 
ATOM     18  C   UNL     1       0.946  -0.708   0.050  0.00  0.00    -0.016 A 
ATOM     19  C   UNL     1       1.859   0.192  -0.459  0.00  0.00    +0.006 A 
BRANCH  17  20
ATOM     20  C   UNL     1      -1.187  -1.173   1.165  0.00  0.00    +0.099 C 
ATOM     21  N   UNL     1      -1.942  -1.909   1.587  0.00  0.00    -0.191 NA
ENDBRANCH  17  20
ENDBRANCH  13  18
ENDBRANCH   1  13
TORSDOF 4
