REMARK  Name = ZINC35991620
REMARK  11 active torsions:
REMARK  status: ('A' for Active; 'I' for Inactive)
REMARK    1  A    between atoms: C_1  and  C_2
REMARK    2  A    between atoms: C_2  and  N_3
REMARK    3  A    between atoms: C_4  and  C_21
REMARK    4  A    between atoms: C_5  and  C_16
REMARK    5  A    between atoms: C_6  and  C_11
REMARK    6  A    between atoms: C_16  and  O_18
REMARK    7  A    between atoms: O_18  and  C_19
REMARK    8  A    between atoms: C_19  and  C_20
REMARK    9  A    between atoms: C_21  and  N_22
REMARK   10  A    between atoms: N_22  and  C_23
REMARK   11  A    between atoms: N_22  and  C_24
REMARK                            x       y       z     vdW  Elec       q    Type
REMARK                         _______ _______ _______ _____ _____    ______ ____
ROOT
ATOM      1  N   UNL     1       1.073   0.070   1.720  0.00  0.00    -0.261 N 
ATOM      2  C   UNL     1       2.249  -0.569   1.449  0.00  0.00    +0.010 C 
ATOM      3  C   UNL     1       2.751  -1.494   2.296  0.00  0.00    +0.076 C 
ATOM      4  C   UNL     1       1.966  -1.796   3.556  0.00  0.00    +0.144 C 
ATOM      5  N   UNL     1       0.711  -1.052   3.755  0.00  0.00    -0.288 N 
ATOM      6  C   UNL     1       0.342  -0.154   2.819  0.00  0.00    +0.307 C 
ATOM      7  O   UNL     1      -0.690   0.468   2.976  0.00  0.00    -0.252 OA
ATOM      8  H   UNL     1       0.164  -1.201   4.542  0.00  0.00    +0.151 HD
ENDROOT
BRANCH   4   9
ATOM      9  C   UNL     1       1.638  -3.267   3.557  0.00  0.00    -0.015 A 
ATOM     10  C   UNL     1       2.385  -4.152   4.312  0.00  0.00    +0.013 A 
ATOM     11  C   UNL     1       2.063  -5.468   4.291  0.00  0.00    +0.045 A 
ATOM     12  S   UNL     1       0.667  -5.489   3.179  0.00  0.00    -0.105 S 
ATOM     13  C   UNL     1       0.603  -3.741   2.822  0.00  0.00    +0.051 A 
ENDBRANCH   4   9
BRANCH   1  15
ATOM     14  C   UNL     1       1.118   2.445   1.139  0.00  0.00    +0.025 C 
ATOM     15  C   UNL     1       0.588   1.062   0.757  0.00  0.00    +0.111 C 
ENDBRANCH   1  15
BRANCH   3  16
ATOM     16  C   UNL     1       3.969  -2.157   2.016  0.00  0.00    +0.339 C 
ATOM     17  O   UNL     1       4.528  -1.979   0.950  0.00  0.00    -0.245 OA
BRANCH  16  18
ATOM     18  O   UNL     1       4.510  -2.989   2.930  0.00  0.00    -0.462 OA
BRANCH  18  19
ATOM     19  C   UNL     1       5.740  -3.626   2.581  0.00  0.00    +0.229 C 
ATOM     20  C   UNL     1       6.196  -4.523   3.733  0.00  0.00    +0.048 C 
ENDBRANCH  18  19
ENDBRANCH  16  18
ENDBRANCH   3  16
BRANCH   2  21
ATOM     21  C   UNL     1       2.998  -0.238   0.184  0.00  0.00    -0.026 C 
BRANCH  21  22
ATOM     22  N   UNL     1       2.744  -1.278  -0.822  0.00  0.00    +0.383 N 
ATOM     23  C   UNL     1       1.311  -1.310  -1.142  0.00  0.00    -0.095 C 
ATOM     24  H   UNL     1       3.028  -2.175  -0.458  0.00  0.00    -0.081 HD
BRANCH  22  25
ATOM     25  C   UNL     1       3.510  -0.980  -2.039  0.00  0.00    -0.068 C 
ATOM     26  C   UNL     1       3.245  -2.063  -3.087  0.00  0.00    -0.015 C 
ATOM     27  C   UNL     1       4.044  -1.752  -4.355  0.00  0.00    -0.002 C 
ATOM     28  C   UNL     1       5.537  -1.718  -4.022  0.00  0.00    -0.000 C 
ATOM     29  C   UNL     1       5.801  -0.635  -2.974  0.00  0.00    -0.002 C 
ATOM     30  C   UNL     1       5.003  -0.946  -1.707  0.00  0.00    -0.015 C 
ENDBRANCH  22  25
ENDBRANCH  21  22
ENDBRANCH   2  21
TORSDOF 8
