REMARK  Name = ZINC39293376
REMARK  6 active torsions:
REMARK  status: ('A' for Active; 'I' for Inactive)
REMARK    1  A    between atoms: C_1  and  C_2
REMARK    2  A    between atoms: C_2  and  C_4
REMARK    3  A    between atoms: C_2  and  N_10
REMARK    4  A    between atoms: C_19  and  O_34
REMARK    5  A    between atoms: C_30  and  O_31
REMARK    6  A    between atoms: O_31  and  C_32
REMARK                            x       y       z     vdW  Elec       q    Type
REMARK                         _______ _______ _______ _____ _____    ______ ____
ROOT
ATOM      1  N   UNL     1       0.687  -0.479  -1.203  0.00  0.00    -0.293 N 
ATOM      2  C   UNL     1       0.006  -0.608  -2.358  0.00  0.00    +0.303 C 
ATOM      3  O   UNL     1      -1.195  -0.420  -2.381  0.00  0.00    -0.253 OA
ATOM      4  N   UNL     1       0.656  -0.945  -3.490  0.00  0.00    -0.281 N 
ATOM      5  C   UNL     1      -0.084  -0.966  -4.737  0.00  0.00    +0.111 C 
ATOM      6  C   UNL     1      -0.331  -2.361  -5.310  0.00  0.00    +0.038 C 
ATOM      7  C   UNL     1       1.031  -2.980  -5.652  0.00  0.00    +0.056 C 
ATOM      8  C   UNL     1       1.819  -2.082  -6.546  0.00  0.00    -0.013 C 
ATOM      9  C   UNL     1       1.372  -2.044  -7.795  0.00  0.00    +0.001 C 
ATOM     10  C   UNL     1       0.164  -2.786  -8.268  0.00  0.00    +0.141 C 
ATOM     11  C   UNL     1      -0.140  -4.085  -7.519  0.00  0.00    +0.081 C 
ATOM     12  C   UNL     1       0.890  -4.299  -6.451  0.00  0.00    +0.191 C 
ATOM     13  O   UNL     1       0.749  -5.289  -5.455  0.00  0.00    -0.484 OA
ATOM     14  C   UNL     1       1.455  -4.877  -4.364  0.00  0.00    +0.167 A 
ATOM     15  C   UNL     1       1.630  -3.487  -4.388  0.00  0.00    +0.016 A 
ATOM     16  C   UNL     1       2.169  -2.791  -3.321  0.00  0.00    -0.022 A 
ATOM     17  C   UNL     1       2.687  -3.509  -2.273  0.00  0.00    +0.009 A 
ATOM     18  C   UNL     1       2.611  -4.894  -2.275  0.00  0.00    +0.050 A 
ATOM     19  C   UNL     1       1.992  -5.604  -3.301  0.00  0.00    +0.162 A 
ATOM     20  C   UNL     1       2.094  -1.273  -3.409  0.00  0.00    +0.144 C 
ATOM     21  H   UNL     1       1.631  -0.702  -1.169  0.00  0.00    +0.151 HD
ENDROOT
BRANCH   1  23
ATOM     22  C   UNL     1      -0.011   1.526   0.010  0.00  0.00    +0.033 C 
ATOM     23  C   UNL     1       0.003  -0.004   0.002  0.00  0.00    +0.102 C 
BRANCH  23  24
ATOM     24  C   UNL     1       0.728  -0.506   1.224  0.00  0.00    -0.027 A 
ATOM     25  C   UNL     1       2.110  -0.523   1.248  0.00  0.00    +0.005 A 
ATOM     26  C   UNL     1       2.776  -0.984   2.369  0.00  0.00    +0.000 A 
ATOM     27  C   UNL     1       2.059  -1.427   3.465  0.00  0.00    +0.000 A 
ATOM     28  C   UNL     1       0.677  -1.410   3.440  0.00  0.00    +0.000 A 
ATOM     29  C   UNL     1       0.012  -0.945   2.321  0.00  0.00    +0.005 A 
ENDBRANCH  23  24
ENDBRANCH   1  23
BRANCH  19  30
ATOM     30  O   UNL     1       1.911  -6.961  -3.267  0.00  0.00    -0.491 OA
ATOM     31  C   UNL     1       2.490  -7.617  -2.137  0.00  0.00    +0.277 C 
ENDBRANCH  19  30
BRANCH  10  32
ATOM     32  O   UNL     1      -0.969  -1.924  -8.145  0.00  0.00    -0.388 OA
ATOM     33  H   UNL     1      -0.902  -1.109  -8.661  0.00  0.00    +0.210 HD
ENDBRANCH  10  32
TORSDOF 4
