REMARK  Name = ZINC44163186
REMARK  8 active torsions:
REMARK  status: ('A' for Active; 'I' for Inactive)
REMARK    1  A    between atoms: C_1  and  C_2
REMARK    2  A    between atoms: C_2  and  C_3
REMARK    3  A    between atoms: C_2  and  C_4
REMARK    4  A    between atoms: C_4  and  C_5
REMARK    5  A    between atoms: C_5  and  C_7
REMARK    6  A    between atoms: C_5  and  N_25
REMARK    7  A    between atoms: C_9  and  C_12
REMARK    8  A    between atoms: N_17  and  C_18
REMARK                            x       y       z     vdW  Elec       q    Type
REMARK                         _______ _______ _______ _____ _____    ______ ____
ROOT
ATOM      1  C   UNL     1       2.997  -0.907  -3.111  0.00  0.00    +0.182 A 
ATOM      2  N   UNL     1       3.917  -1.826  -3.097  0.00  0.00    -0.210 NA
ATOM      3  C   UNL     1       4.553  -1.818  -4.298  0.00  0.00    +0.165 A 
ATOM      4  C   UNL     1       3.976  -0.846  -5.051  0.00  0.00    +0.230 A 
ATOM      5  O   UNL     1       3.006  -0.291  -4.300  0.00  0.00    -0.449 OA
ENDROOT
BRANCH   3   6
ATOM      6  C   UNL     1       5.665  -2.700  -4.708  0.00  0.00    +0.271 A 
ATOM      7  N   UNL     1       6.218  -3.642  -3.982  0.00  0.00    -0.104 NA
ATOM      8  N   UNL     1       7.155  -4.208  -4.657  0.00  0.00    -0.092 NA
ATOM      9  C   UNL     1       7.238  -3.652  -5.841  0.00  0.00    +0.312 A 
ATOM     10  O   UNL     1       6.296  -2.691  -5.903  0.00  0.00    -0.403 OA
ATOM     11  N   UNL     1       8.126  -3.993  -6.845  0.00  0.00    -0.268 N 
ATOM     12  H   UNL     1       8.163  -3.467  -7.659  0.00  0.00    +0.157 HD
BRANCH  11  13
ATOM     13  C   UNL     1       8.971  -5.096  -6.686  0.00  0.00    +0.035 A 
ATOM     14  C   UNL     1       8.565  -6.178  -5.915  0.00  0.00    +0.025 A 
ATOM     15  C   UNL     1       9.402  -7.266  -5.760  0.00  0.00    +0.022 A 
ATOM     16  C   UNL     1      10.643  -7.278  -6.371  0.00  0.00    +0.041 A 
ATOM     17  C   UNL     1      11.050  -6.202  -7.140  0.00  0.00    +0.022 A 
ATOM     18  C   UNL     1      10.215  -5.114  -7.303  0.00  0.00    +0.025 A 
ATOM     19 CL   UNL     1      11.692  -8.648  -6.174  0.00  0.00    -0.084 Cl
ENDBRANCH  11  13
ENDBRANCH   3   6
BRANCH   1  20
ATOM     20  C   UNL     1       2.064  -0.590  -1.970  0.00  0.00    +0.013 C 
BRANCH  20  21
ATOM     21  N   UNL     1       1.981   0.867  -1.796  0.00  0.00    +0.386 N 
ATOM     22  H   UNL     1       1.683   1.292  -2.661  0.00  0.00    -0.089 HD
ATOM     23  H   UNL     1       1.315   1.081  -1.069  0.00  0.00    -0.089 HD
ATOM     24  H   UNL     1       2.888   1.227  -1.539  0.00  0.00    -0.089 HD
ENDBRANCH  20  21
BRANCH  20  25
ATOM     25  C   UNL     1       0.673  -1.146  -2.280  0.00  0.00    -0.004 C 
BRANCH  25  27
ATOM     26  C   UNL     1      -1.661  -1.385  -1.419  0.00  0.00    +0.007 C 
ATOM     27  C   UNL     1      -0.238  -0.946  -1.067  0.00  0.00    -0.018 C 
ATOM     28  C   UNL     1       0.280  -1.785   0.104  0.00  0.00    +0.007 C 
ENDBRANCH  25  27
ENDBRANCH  20  25
ENDBRANCH   1  20
TORSDOF 6
