REMARK  Name = ZINC64348541
REMARK  6 active torsions:
REMARK  status: ('A' for Active; 'I' for Inactive)
REMARK    1  A    between atoms: N_10  and  C_11
REMARK    2  A    between atoms: C_11  and  C_13
REMARK    3  A    between atoms: C_13  and  S_14
REMARK    4  A    between atoms: S_14  and  C_15
REMARK    5  A    between atoms: C_16  and  C_30
REMARK    6  A    between atoms: C_23  and  C_28
REMARK                            x       y       z     vdW  Elec       q    Type
REMARK                         _______ _______ _______ _____ _____    ______ ____
ROOT
ATOM      1  C   UNL     1       1.875  -8.831   0.387  0.00  0.00    +0.085 C 
ATOM      2  C   UNL     1       0.954 -10.016   0.501  0.00  0.00    +0.152 C 
ATOM      3  C   UNL     1       1.634 -11.242  -0.116  0.00  0.00    +0.016 C 
ATOM      4  C   UNL     1       1.824 -11.023  -1.617  0.00  0.00    +0.010 C 
ATOM      5  C   UNL     1       0.459 -10.827  -2.281  0.00  0.00    +0.001 C 
ATOM      6  C   UNL     1      -0.403 -12.069  -2.049  0.00  0.00    +0.000 C 
ATOM      7  C   UNL     1      -0.595 -12.285  -0.546  0.00  0.00    +0.001 C 
ATOM      8  C   UNL     1       0.769 -12.481   0.119  0.00  0.00    +0.010 C 
ATOM      9  C   UNL     1       2.998 -11.432   0.553  0.00  0.00    +0.187 C 
ATOM     10  C   UNL     1       3.784 -10.152   0.436  0.00  0.00    +0.254 C 
ATOM     11  N   UNL     1       3.176  -8.972   0.361  0.00  0.00    -0.176 NA
ATOM     12  O   UNL     1       4.997 -10.198   0.406  0.00  0.00    -0.272 OA
ENDROOT
BRANCH   9  13
ATOM     13  C   UNL     1       3.728 -12.522  -0.116  0.00  0.00    +0.076 C 
ATOM     14  N   UNL     1       4.290 -13.363  -0.632  0.00  0.00    -0.196 NA
ENDBRANCH   9  13
BRANCH   2  15
ATOM     15  C   UNL     1       0.662 -10.277   1.920  0.00  0.00    +0.073 C 
ATOM     16  N   UNL     1       0.437 -10.479   3.015  0.00  0.00    -0.196 NA
ENDBRANCH   2  15
BRANCH   1  17
ATOM     17  S   UNL     1       1.225  -7.307   0.284  0.00  0.00    -0.102 S 
BRANCH  17  18
ATOM     18  C   UNL     1       2.671  -6.220   0.156  0.00  0.00    +0.173 C 
BRANCH  18  19
ATOM     19  C   UNL     1       2.215  -4.787   0.055  0.00  0.00    +0.249 C 
ATOM     20  O   UNL     1       1.028  -4.524   0.068  0.00  0.00    -0.273 OA
BRANCH  19  30
ATOM     21  C   UNL     1      -0.015   1.372   0.021  0.00  0.00    +0.002 A 
ATOM     22  C   UNL     1       1.161   2.105   0.025  0.00  0.00    +0.001 A 
ATOM     23  C   UNL     1       2.374   1.440   0.013  0.00  0.00    +0.017 A 
ATOM     24  C   UNL     1       2.394   0.066  -0.002  0.00  0.00    +0.039 A 
ATOM     25  C   UNL     1       1.219  -0.701  -0.007  0.00  0.00    +0.055 A 
ATOM     26  C   UNL     1       0.003  -0.003   0.005  0.00  0.00    +0.027 A 
ATOM     27  N   UNL     1       1.443  -2.064  -0.022  0.00  0.00    -0.335 N 
ATOM     28  H   UNL     1       0.694  -2.680  -0.027  0.00  0.00    +0.168 HD
ATOM     29  C   UNL     1       2.714  -2.540  -0.032  0.00  0.00    +0.164 A 
ATOM     30  N   UNL     1       3.110  -3.811  -0.048  0.00  0.00    -0.156 NA
ATOM     31  S   UNL     1       3.675  -1.161  -0.021  0.00  0.00    -0.052 S 
ENDBRANCH  19  30
ENDBRANCH  18  19
ENDBRANCH  17  18
ENDBRANCH   1  17
TORSDOF 6
