REMARK  Name = ZINC12149674
REMARK  10 active torsions:
REMARK  status: ('A' for Active; 'I' for Inactive)
REMARK    1  A    between atoms: C_2  and  C_3
REMARK    2  A    between atoms: C_3  and  O_4
REMARK    3  A    between atoms: O_4  and  C_5
REMARK    4  A    between atoms: C_10  and  C_11
REMARK    5  A    between atoms: C_11  and  N_64
REMARK    6  A    between atoms: C_15  and  C_18
REMARK    7  A    between atoms: C_22  and  S_24
REMARK    8  A    between atoms: S_24  and  C_25
REMARK    9  A    between atoms: C_25  and  C_26
REMARK   10  A    between atoms: C_26  and  N_66
REMARK                            x       y       z     vdW  Elec       q    Type
REMARK                         _______ _______ _______ _____ _____    ______ ____
ROOT
ATOM      1  C   UNL     1      -1.866   1.483  -1.793  0.00  0.00    -0.078 C 
ATOM      2  C   UNL     1      -2.145   1.826  -3.258  0.00  0.00    -0.018 C 
ATOM      3  C   UNL     1      -3.574   2.360  -3.389  0.00  0.00    +0.006 C 
ATOM      4  C   UNL     1      -4.554   1.310  -2.858  0.00  0.00    +0.021 C 
ATOM      5  C   UNL     1      -4.205   0.982  -1.405  0.00  0.00    -0.069 C 
ATOM      6  N   UNL     1      -2.826   0.450  -1.351  0.00  0.00    +0.383 N 
ATOM      7  H   UNL     1      -2.757  -0.360  -1.978  0.00  0.00    -0.081 HD
ENDROOT
BRANCH   4   8
ATOM      8  C   UNL     1      -5.959   1.851  -2.928  0.00  0.00    +0.047 A 
ATOM      9  C   UNL     1      -6.205   3.196  -2.702  0.00  0.00    +0.043 A 
ATOM     10  C   UNL     1      -7.511   3.653  -2.781  0.00  0.00    +0.115 A 
ATOM     11  N   UNL     1      -8.479   2.796  -3.058  0.00  0.00    -0.230 NA
ATOM     12  C   UNL     1      -8.211   1.514  -3.263  0.00  0.00    +0.188 A 
ATOM     13  N   UNL     1      -6.972   1.046  -3.200  0.00  0.00    -0.227 NA
BRANCH  12  14
ATOM     14  S   UNL     1      -9.532   0.407  -3.628  0.00  0.00    -0.088 S 
BRANCH  14  15
ATOM     15  C   UNL     1     -10.928   1.557  -3.583  0.00  0.00    +0.059 C 
BRANCH  15  16
ATOM     16  C   UNL     1     -12.224   0.799  -3.881  0.00  0.00    -0.068 C 
BRANCH  16  21
ATOM     17  C   UNL     1     -13.111   2.903  -4.726  0.00  0.00    -0.079 C 
ATOM     18  C   UNL     1     -14.534   3.464  -4.976  0.00  0.00    -0.020 C 
ATOM     19  C   UNL     1     -15.395   2.185  -5.084  0.00  0.00    -0.020 C 
ATOM     20  C   UNL     1     -14.588   1.093  -4.358  0.00  0.00    -0.079 C 
ATOM     21  N   UNL     1     -13.378   1.747  -3.856  0.00  0.00    +0.380 N 
ATOM     22  H   UNL     1     -13.531   2.066  -2.892  0.00  0.00    -0.082 HD
ENDBRANCH  16  21
ENDBRANCH  15  16
ENDBRANCH  14  15
ENDBRANCH  12  14
ENDBRANCH   4   8
BRANCH   6  23
ATOM     23  C   UNL     1      -2.505   0.019   0.025  0.00  0.00    -0.039 C 
BRANCH  23  29
ATOM     24  C   UNL     1       0.002  -0.004   0.002  0.00  0.00    +0.122 A 
ATOM     25  C   UNL     1       1.212  -0.682  -0.019  0.00  0.00    +0.046 A 
ATOM     26  C   UNL     1       1.228  -2.064  -0.021  0.00  0.00    +0.004 A 
ATOM     27  C   UNL     1       0.040  -2.770  -0.013  0.00  0.00    +0.000 A 
ATOM     28  C   UNL     1      -1.167  -2.096   0.002  0.00  0.00    +0.005 A 
ATOM     29  C   UNL     1      -1.189  -0.715   0.010  0.00  0.00    -0.022 A 
BRANCH  24  30
ATOM     30  O   UNL     1      -0.016   1.355   0.009  0.00  0.00    -0.488 OA
BRANCH  30  31
ATOM     31  C   UNL     1       1.248   2.021   0.001  0.00  0.00    +0.256 C 
BRANCH  31  33
ATOM     32  C   UNL     1       1.737   4.272   0.811  0.00  0.00    +0.007 C 
ATOM     33  C   UNL     1       1.030   3.512   0.011  0.00  0.00    +0.006 C 
ENDBRANCH  31  33
ENDBRANCH  30  31
ENDBRANCH  24  30
ENDBRANCH  23  29
ENDBRANCH   6  23
TORSDOF 10
