REMARK  Name = ZINC35698369
REMARK  13 active torsions:
REMARK  status: ('A' for Active; 'I' for Inactive)
REMARK    1  A    between atoms: C_1  and  C_2
REMARK    2  A    between atoms: C_2  and  N_3
REMARK    3  A    between atoms: N_3  and  C_4
REMARK    4  A    between atoms: C_4  and  C_5
REMARK    5  A    between atoms: C_6  and  C_8
REMARK    6  A    between atoms: C_9  and  C_38
REMARK    7  A    between atoms: C_13  and  C_15
REMARK    8  A    between atoms: C_20  and  O_21
REMARK    9  A    between atoms: O_21  and  C_22
REMARK   10  A    between atoms: C_23  and  C_26
REMARK   11  A    between atoms: C_27  and  N_29
REMARK   12  A    between atoms: N_29  and  C_30
REMARK   13  A    between atoms: C_30  and  C_31
REMARK                            x       y       z     vdW  Elec       q    Type
REMARK                         _______ _______ _______ _____ _____    ______ ____
ROOT
ATOM      1  C   UNL     1      -1.569  -0.740   2.923  0.00  0.00    +0.061 C 
ATOM      2  C   UNL     1      -2.291  -0.805   4.097  0.00  0.00    +0.051 C 
ATOM      3  N   UNL     1      -1.741  -0.439   5.245  0.00  0.00    -0.230 NA
ATOM      4  C   UNL     1      -0.508   0.004   5.379  0.00  0.00    +0.166 C 
ATOM      5  N   UNL     1       0.369   0.143   4.341  0.00  0.00    -0.267 N 
ATOM      6  C   UNL     1      -0.141  -0.246   2.999  0.00  0.00    +0.151 C 
ATOM      7  C   UNL     1       1.629   0.621   4.644  0.00  0.00    +0.048 C 
ATOM      8  C   UNL     1       1.895   0.911   5.937  0.00  0.00    +0.072 C 
ATOM      9  S   UNL     1       0.351   0.508   6.730  0.00  0.00    -0.060 S 
ATOM     10  C   UNL     1      -3.715  -1.296   4.074  0.00  0.00    +0.066 C 
ENDROOT
BRANCH   6  11
ATOM     11  C   UNL     1       0.754  -1.328   2.453  0.00  0.00    +0.020 A 
ATOM     12  C   UNL     1       1.285  -2.280   3.301  0.00  0.00    +0.009 A 
ATOM     13  C   UNL     1       2.107  -3.272   2.801  0.00  0.00    +0.001 A 
ATOM     14  C   UNL     1       2.399  -3.315   1.450  0.00  0.00    +0.004 A 
ATOM     15  C   UNL     1       1.870  -2.366   0.597  0.00  0.00    +0.046 A 
ATOM     16  C   UNL     1       1.041  -1.372   1.096  0.00  0.00    +0.125 A 
BRANCH  16  17
ATOM     17  O   UNL     1       0.515  -0.440   0.259  0.00  0.00    -0.495 OA
ATOM     18  C   UNL     1       0.773  -0.603  -1.137  0.00  0.00    +0.277 C 
ENDBRANCH  16  17
ENDBRANCH   6  11
BRANCH   1  20
ATOM     19  N   UNL     1      -2.877  -0.245   0.994  0.00  0.00    -0.298 N 
ATOM     20  C   UNL     1      -2.138  -1.125   1.700  0.00  0.00    +0.246 C 
ATOM     21  O   UNL     1      -1.965  -2.255   1.276  0.00  0.00    -0.270 OA
BRANCH  19  23
ATOM     22  C   UNL     1      -4.207   1.257   2.393  0.00  0.00    +0.024 C 
ATOM     23  C   UNL     1      -3.004   1.140   1.454  0.00  0.00    +0.104 C 
ENDBRANCH  19  23
BRANCH  19  24
ATOM     24  C   UNL     1      -3.552  -0.675  -0.233  0.00  0.00    +0.104 C 
ATOM     25  C   UNL     1      -2.622  -0.462  -1.428  0.00  0.00    +0.024 C 
ENDBRANCH  19  24
ENDBRANCH   1  20
BRANCH   7  26
ATOM     26  C   UNL     1       2.645   0.806   3.598  0.00  0.00    +0.091 C 
ATOM     27  C   UNL     1       3.911   1.119   3.937  0.00  0.00    +0.239 C 
ATOM     28  O   UNL     1       4.283   1.122   5.240  0.00  0.00    -0.271 OA
BRANCH  27  29
ATOM     29  N   UNL     1       4.832   1.439   2.953  0.00  0.00    -0.308 N 
ATOM     30  H   UNL     1       4.549   1.509   2.028  0.00  0.00    +0.149 HD
BRANCH  29  31
ATOM     31  C   UNL     1       6.233   1.672   3.310  0.00  0.00    +0.139 C 
BRANCH  31  32
ATOM     32  C   UNL     1       7.043   1.879   2.056  0.00  0.00    -0.030 A 
ATOM     33  C   UNL     1       7.620   0.796   1.420  0.00  0.00    +0.008 A 
ATOM     34  C   UNL     1       8.362   0.985   0.270  0.00  0.00    +0.038 A 
ATOM     35  C   UNL     1       8.528   2.259  -0.245  0.00  0.00    +0.123 A 
ATOM     36  C   UNL     1       7.950   3.343   0.393  0.00  0.00    +0.038 A 
ATOM     37  C   UNL     1       7.204   3.151   1.540  0.00  0.00    +0.008 A 
ATOM     38  F   UNL     1       9.254   2.445  -1.369  0.00  0.00    -0.205 F 
ENDBRANCH  31  32
ENDBRANCH  29  31
ENDBRANCH  27  29
ENDBRANCH   7  26
TORSDOF 9
