REMARK  Name = ZINC19320682
REMARK  6 active torsions:
REMARK  status: ('A' for Active; 'I' for Inactive)
REMARK    1  A    between atoms: C_1  and  C_2
REMARK    2  A    between atoms: C_6  and  C_7
REMARK    3  A    between atoms: N_8  and  C_20
REMARK    4  A    between atoms: N_12  and  C_13
REMARK    5  A    between atoms: C_13  and  C_14
REMARK    6  A    between atoms: C_20  and  C_21
REMARK                            x       y       z     vdW  Elec       q    Type
REMARK                         _______ _______ _______ _____ _____    ______ ____
ROOT
ATOM      1  C   UNL     1      -1.112  -0.680  -0.004  0.00  0.00    +0.041 C 
ATOM      2  N   UNL     1      -0.712  -1.944  -0.635  0.00  0.00    +0.396 N 
ATOM      3  C   UNL     1      -1.629  -3.031  -0.265  0.00  0.00    -0.074 C 
ATOM      4  C   UNL     1      -3.048  -2.667  -0.713  0.00  0.00    -0.003 C 
ATOM      5  C   UNL     1      -3.444  -1.329  -0.082  0.00  0.00    +0.081 C 
ATOM      6  N   UNL     1      -2.458  -0.306  -0.458  0.00  0.00    -0.307 NA
ATOM      7  H   UNL     1      -0.769  -1.809  -1.726  0.00  0.00    -0.079 HD
ENDROOT
BRANCH   1  13
ATOM      8  C   UNL     1       0.524   1.073   1.917  0.00  0.00    +0.044 C 
ATOM      9  C   UNL     1       0.609   1.202   0.418  0.00  0.00    -0.041 A 
ATOM     10  C   UNL     1       1.448   2.136  -0.159  0.00  0.00    +0.011 A 
ATOM     11  C   UNL     1       1.502   2.226  -1.510  0.00  0.00    +0.046 A 
ATOM     12  S   UNL     1       0.343   0.964  -2.010  0.00  0.00    -0.102 S 
ATOM     13  C   UNL     1      -0.135   0.402  -0.385  0.00  0.00    -0.007 A 
ENDBRANCH   1  13
BRANCH   6  14
ATOM     14  C   UNL     1      -2.842   1.013   0.062  0.00  0.00    +0.118 C 
BRANCH  14  15
ATOM     15  C   UNL     1      -4.261   1.319  -0.343  0.00  0.00    -0.033 A 
ATOM     16  C   UNL     1      -4.513   1.977  -1.532  0.00  0.00    +0.005 A 
ATOM     17  C   UNL     1      -5.815   2.254  -1.906  0.00  0.00    +0.000 A 
ATOM     18  C   UNL     1      -6.864   1.882  -1.086  0.00  0.00    +0.000 A 
ATOM     19  C   UNL     1      -6.611   1.228   0.105  0.00  0.00    +0.000 A 
ATOM     20  C   UNL     1      -5.309   0.947   0.477  0.00  0.00    +0.005 A 
ENDBRANCH  14  15
ENDBRANCH   6  14
BRANCH   2  21
ATOM     21  C   UNL     1       0.675  -2.287  -0.294  0.00  0.00    -0.040 C 
BRANCH  21  22
ATOM     22  C   UNL     1       1.021  -3.628  -0.888  0.00  0.00    -0.064 A 
ATOM     23  C   UNL     1       0.806  -4.783  -0.160  0.00  0.00    +0.002 A 
ATOM     24  C   UNL     1       1.119  -6.014  -0.707  0.00  0.00    +0.000 A 
ATOM     25  C   UNL     1       1.658  -6.088  -1.978  0.00  0.00    +0.000 A 
ATOM     26  C   UNL     1       1.878  -4.933  -2.704  0.00  0.00    +0.000 A 
ATOM     27  C   UNL     1       1.560  -3.703  -2.159  0.00  0.00    +0.002 A 
ENDBRANCH  21  22
ENDBRANCH   2  21
TORSDOF 5
