REMARK  Name = ZINC15134489
REMARK  6 active torsions:
REMARK  status: ('A' for Active; 'I' for Inactive)
REMARK    1  A    between atoms: C_1  and  C_2
REMARK    2  A    between atoms: C_10  and  C_22
REMARK    3  A    between atoms: C_12  and  C_18
REMARK    4  A    between atoms: C_12  and  C_20
REMARK    5  A    between atoms: C_13  and  N_17
REMARK    6  A    between atoms: C_14  and  C_15
REMARK                            x       y       z     vdW  Elec       q    Type
REMARK                         _______ _______ _______ _____ _____    ______ ____
ROOT
ATOM      1  C   UNL     1      -4.394   3.363  -3.832  0.00  0.00    +0.008 C 
ATOM      2  C   UNL     1      -3.668   3.198  -2.495  0.00  0.00    -0.010 C 
ATOM      3  C   UNL     1      -4.687   3.215  -1.348  0.00  0.00    +0.030 C 
ATOM      4  C   UNL     1      -3.926   3.077  -0.055  0.00  0.00    -0.021 C 
ATOM      5  C   UNL     1      -2.809   2.380   0.006  0.00  0.00    -0.029 C 
ATOM      6  C   UNL     1      -2.227   1.630  -1.155  0.00  0.00    +0.031 C 
ATOM      7  C   UNL     1      -2.941   1.880  -2.462  0.00  0.00    +0.012 C 
ATOM      8  C   UNL     1      -0.736   1.964  -1.245  0.00  0.00    +0.066 C 
ATOM      9  C   UNL     1      -0.040   1.472   0.024  0.00  0.00    +0.188 C 
ATOM     10  C   UNL     1      -0.745   1.946   1.259  0.00  0.00    +0.054 C 
ATOM     11  C   UNL     1      -2.034   2.363   1.275  0.00  0.00    +0.074 C 
ENDROOT
BRANCH   8  12
ATOM     12  C   UNL     1      -0.558   3.455  -1.373  0.00  0.00    -0.039 A 
ATOM     13  C   UNL     1      -0.518   4.246  -0.239  0.00  0.00    +0.004 A 
ATOM     14  C   UNL     1      -0.354   5.613  -0.355  0.00  0.00    +0.002 A 
ATOM     15  C   UNL     1      -0.231   6.191  -1.605  0.00  0.00    +0.020 A 
ATOM     16  C   UNL     1      -0.271   5.400  -2.739  0.00  0.00    +0.041 A 
ATOM     17  C   UNL     1      -0.429   4.031  -2.622  0.00  0.00    +0.024 A 
ATOM     18 CL   UNL     1      -0.117   6.125  -4.309  0.00  0.00    -0.084 Cl
ENDBRANCH   8  12
BRANCH  10  19
ATOM     19  N   UNL     1      -0.049   1.960   2.435  0.00  0.00    -0.358 N 
ATOM     20  H   UNL     1      -0.537   2.303   3.359  0.00  0.00    +0.142 HD
ATOM     21  H   UNL     1       1.000   1.629   2.458  0.00  0.00    +0.142 HD
ENDBRANCH  10  19
BRANCH  11  22
ATOM     22  C   UNL     1      -2.645   2.780   2.501  0.00  0.00    +0.101 C 
ATOM     23  N   UNL     1      -3.130   3.111   3.474  0.00  0.00    -0.191 NA
ENDBRANCH  11  22
BRANCH   9  24
ATOM     24  C   UNL     1      -0.018  -0.000   0.020  0.00  0.00    +0.091 C 
ATOM     25  N   UNL     1      -0.001  -1.136   0.016  0.00  0.00    -0.194 NA
ENDBRANCH   9  24
BRANCH   9  26
ATOM     26  C   UNL     1       1.344   1.973   0.038  0.00  0.00    +0.091 C 
ATOM     27  N   UNL     1       2.412   2.359   0.049  0.00  0.00    -0.194 NA
ENDBRANCH   9  26
TORSDOF 5
