REMARK  Name = ZINC47205495
REMARK  2 active torsions:
REMARK  status: ('A' for Active; 'I' for Inactive)
REMARK    1  A    between atoms: C_2  and  N_12
REMARK    2  A    between atoms: C_13  and  C_15
REMARK                            x       y       z     vdW  Elec       q    Type
REMARK                         _______ _______ _______ _____ _____    ______ ____
ROOT
ATOM      1  C   UNL     1      -0.026   1.387   0.022  0.00  0.00    +0.073 A 
ATOM      2  C   UNL     1       1.169   2.093   0.011  0.00  0.00    +0.051 A 
ATOM      3  C   UNL     1       2.378   1.409   0.000  0.00  0.00    +0.043 A 
ATOM      4  C   UNL     1       2.391   0.027  -0.001  0.00  0.00    +0.066 A 
ATOM      5  C   UNL     1       1.199  -0.681   0.010  0.00  0.00    +0.163 A 
ATOM      6  C   UNL     1      -0.013   0.001   0.023  0.00  0.00    +0.164 A 
ATOM      7  O   UNL     1      -1.193  -0.677   0.041  0.00  0.00    -0.485 OA
ATOM      8  C   UNL     1      -1.149  -2.058  -0.335  0.00  0.00    +0.270 C 
ATOM      9  C   UNL     1       0.030  -2.716   0.395  0.00  0.00    +0.270 C 
ATOM     10  O   UNL     1       1.231  -2.043   0.004  0.00  0.00    -0.485 OA
ATOM     11 BR   UNL     1       4.007   2.369  -0.013  0.00  0.00    -0.048 Br
ENDROOT
BRANCH   2  12
ATOM     12  N   UNL     1       1.156   3.493   0.010  0.00  0.00    -0.280 N 
ATOM     13  C   UNL     1       0.185   4.157  -0.647  0.00  0.00    +0.258 C 
ATOM     14  O   UNL     1      -0.727   3.543  -1.170  0.00  0.00    -0.269 OA
ATOM     15  H   UNL     1       1.846   3.985   0.482  0.00  0.00    +0.155 HD
BRANCH  13  16
ATOM     16  C   UNL     1       0.225   5.620  -0.732  0.00  0.00    +0.112 A 
ATOM     17  C   UNL     1      -0.659   6.499  -1.343  0.00  0.00    +0.149 A 
ATOM     18  N   UNL     1      -0.363   7.773  -1.256  0.00  0.00    -0.235 NA
ATOM     19  C   UNL     1       0.710   8.190  -0.624  0.00  0.00    +0.158 A 
ATOM     20  S   UNL     1       1.421   6.769  -0.070  0.00  0.00    -0.069 S 
ATOM     21 CL   UNL     1      -2.076   5.942  -2.177  0.00  0.00    -0.061 Cl
ENDBRANCH  13  16
ENDBRANCH   2  12
TORSDOF 2
