REMARK  Name = ZINC50362173
REMARK  7 active torsions:
REMARK  status: ('A' for Active; 'I' for Inactive)
REMARK    1  A    between atoms: C_1  and  N_2
REMARK    2  A    between atoms: N_2  and  C_3
REMARK    3  A    between atoms: N_2  and  C_10
REMARK    4  A    between atoms: C_3  and  C_4
REMARK    5  A    between atoms: C_10  and  C_12
REMARK    6  A    between atoms: C_10  and  C_14
REMARK    7  A    between atoms: C_12  and  N_13
REMARK                            x       y       z     vdW  Elec       q    Type
REMARK                         _______ _______ _______ _____ _____    ______ ____
ROOT
ATOM      1  C   UNL     1      -1.390  -0.397   0.352  0.00  0.00    -0.019 C 
ENDROOT
BRANCH   1   2
ATOM      2  C   UNL     1      -2.047   0.209  -0.862  0.00  0.00    +0.092 A 
ATOM      3  C   UNL     1      -3.283   0.738  -0.905  0.00  0.00    +0.059 A 
ATOM      4  C   UNL     1      -3.490   1.187  -2.231  0.00  0.00    +0.070 A 
ATOM      5  C   UNL     1      -2.367   0.904  -2.918  0.00  0.00    +0.184 A 
ATOM      6  O   UNL     1      -1.495   0.316  -2.082  0.00  0.00    -0.454 OA
ATOM      7 BR   UNL     1      -2.067   1.276  -4.747  0.00  0.00    -0.007 Br
ATOM      8 BR   UNL     1      -5.046   2.022  -2.907  0.00  0.00    -0.046 Br
ENDBRANCH   1   2
BRANCH   1  10
ATOM      9  C   UNL     1       0.121   1.466   0.343  0.00  0.00    -0.095 C 
ATOM     10  N   UNL     1       0.023   0.001   0.393  0.00  0.00    +0.386 N 
ATOM     11  H   UNL     1       0.508  -0.396  -0.398  0.00  0.00    -0.081 HD
BRANCH  10  12
ATOM     12  C   UNL     1       0.633  -0.488   1.637  0.00  0.00    -0.035 C 
BRANCH  12  13
ATOM     13  C   UNL     1       2.108  -0.179   1.628  0.00  0.00    -0.025 A 
ATOM     14  C   UNL     1       2.752   0.922   2.087  0.00  0.00    +0.011 A 
ATOM     15  C   UNL     1       4.128   0.990   1.974  0.00  0.00    +0.028 A 
ATOM     16  C   UNL     1       4.793  -0.047   1.406  0.00  0.00    +0.078 A 
ATOM     17  S   UNL     1       3.461  -1.171   1.018  0.00  0.00    -0.084 S 
ATOM     18 CL   UNL     1       6.497  -0.236   1.134  0.00  0.00    -0.076 Cl
ENDBRANCH  12  13
ENDBRANCH  10  12
ENDBRANCH   1  10
BRANCH   1  19
ATOM     19  C   UNL     1      -1.489  -1.921   0.278  0.00  0.00    -0.094 C 
BRANCH  19  20
ATOM     20  N   UNL     1      -2.899  -2.326   0.361  0.00  0.00    +0.377 N 
ATOM     21  H   UNL     1      -2.958  -3.332   0.406  0.00  0.00    -0.090 HD
ATOM     22  H   UNL     1      -3.315  -1.927   1.190  0.00  0.00    -0.090 HD
ATOM     23  H   UNL     1      -3.392  -1.996  -0.455  0.00  0.00    -0.090 HD
ENDBRANCH  19  20
ENDBRANCH   1  19
TORSDOF 6
