REMARK  Name = ZINC65298449
REMARK  9 active torsions:
REMARK  status: ('A' for Active; 'I' for Inactive)
REMARK    1  A    between atoms: C_1  and  C_2
REMARK    2  A    between atoms: C_2  and  O_3
REMARK    3  A    between atoms: O_3  and  C_4
REMARK    4  A    between atoms: C_8  and  C_11
REMARK    5  A    between atoms: C_9  and  O_10
REMARK    6  A    between atoms: C_14  and  C_26
REMARK    7  A    between atoms: C_23  and  C_25
REMARK    8  A    between atoms: C_29  and  C_33
REMARK    9  A    between atoms: C_31  and  C_32
REMARK                            x       y       z     vdW  Elec       q    Type
REMARK                         _______ _______ _______ _____ _____    ______ ____
ROOT
ATOM      1  C   UNL     1       2.274  -4.228  -3.870  0.00  0.00    -0.028 C 
ATOM      2  C   UNL     1       3.786  -4.287  -3.632  0.00  0.00    +0.044 C 
ATOM      3  C   UNL     1       4.414  -5.195  -4.654  0.00  0.00    +0.040 C 
ATOM      4  N   UNL     1       3.734  -6.007  -5.372  0.00  0.00    -0.300 NA
ATOM      5  C   UNL     1       2.284  -6.148  -5.298  0.00  0.00    +0.032 C 
ATOM      6  N   UNL     1       1.777  -5.604  -4.031  0.00  0.00    +0.401 N 
ATOM      7  C   UNL     1       1.637  -5.390  -6.462  0.00  0.00    +0.029 C 
ATOM      8  C   UNL     1       2.178  -5.940  -7.785  0.00  0.00    +0.108 C 
ATOM      9  N   UNL     1       1.960  -7.393  -7.820  0.00  0.00    -0.302 N 
ATOM     10  C   UNL     1       2.455  -8.207  -6.702  0.00  0.00    +0.108 C 
ATOM     11  C   UNL     1       1.910  -7.631  -5.392  0.00  0.00    +0.029 C 
ATOM     12  C   UNL     1       1.316  -7.966  -8.856  0.00  0.00    +0.212 C 
ATOM     13  O   UNL     1       1.000  -7.299  -9.818  0.00  0.00    -0.276 OA
ATOM     14  C   UNL     1       0.990  -9.437  -8.819  0.00  0.00    +0.109 C 
ATOM     15  H   UNL     1       2.105  -6.173  -3.264  0.00  0.00    -0.081 HD
ATOM     16  H   UNL     1       0.768  -5.600  -4.043  0.00  0.00    -0.081 HD
ENDROOT
BRANCH   3  17
ATOM     17  C   UNL     1       5.878  -5.146  -4.837  0.00  0.00    -0.001 A 
ATOM     18  C   UNL     1       6.663  -6.253  -4.506  0.00  0.00    +0.010 A 
ATOM     19  C   UNL     1       8.030  -6.200  -4.680  0.00  0.00    +0.004 A 
ATOM     20  C   UNL     1       8.624  -5.055  -5.179  0.00  0.00    -0.050 A 
ATOM     21  C   UNL     1       7.853  -3.954  -5.508  0.00  0.00    +0.007 A 
ATOM     22  C   UNL     1       6.483  -3.995  -5.346  0.00  0.00    -0.041 A 
ATOM     23  C   UNL     1       5.643  -2.799  -5.711  0.00  0.00    +0.044 C 
ATOM     24  C   UNL     1      10.119  -5.005  -5.365  0.00  0.00    +0.044 C 
ENDBRANCH   3  17
BRANCH   1  29
ATOM     25  C   UNL     1       0.871  -1.603  -1.531  0.00  0.00    +0.162 A 
ATOM     26  C   UNL     1       0.357  -2.392  -0.514  0.00  0.00    +0.049 A 
ATOM     27  C   UNL     1       0.465  -3.768  -0.586  0.00  0.00    +0.004 A 
ATOM     28  C   UNL     1       1.084  -4.360  -1.671  0.00  0.00    +0.006 A 
ATOM     29  C   UNL     1       1.599  -3.579  -2.689  0.00  0.00    -0.016 A 
ATOM     30  C   UNL     1       1.489  -2.199  -2.626  0.00  0.00    +0.160 A 
BRANCH  30  31
ATOM     31  O   UNL     1       1.989  -1.429  -3.628  0.00  0.00    -0.503 OA
ATOM     32  H   UNL     1       2.911  -1.167  -3.501  0.00  0.00    +0.292 HD
ENDBRANCH  30  31
BRANCH  25  33
ATOM     33  O   UNL     1       0.765  -0.249  -1.461  0.00  0.00    -0.489 OA
BRANCH  33  35
ATOM     34  C   UNL     1       0.095   1.820  -0.407  0.00  0.00    +0.048 C 
ATOM     35  C   UNL     1       0.118   0.294  -0.308  0.00  0.00    +0.226 C 
ENDBRANCH  33  35
ENDBRANCH  25  33
ENDBRANCH   1  29
TORSDOF 5
