REMARK  Name = ZINC64678701
REMARK  8 active torsions:
REMARK  status: ('A' for Active; 'I' for Inactive)
REMARK    1  A    between atoms: C_1  and  C_2
REMARK    2  A    between atoms: C_7  and  C_13
REMARK    3  A    between atoms: C_9  and  C_12
REMARK    4  A    between atoms: C_16  and  C_19
REMARK    5  A    between atoms: C_19  and  C_20
REMARK    6  A    between atoms: C_20  and  N_21
REMARK    7  A    between atoms: N_21  and  C_22
REMARK    8  A    between atoms: C_23  and  C_25
REMARK                            x       y       z     vdW  Elec       q    Type
REMARK                         _______ _______ _______ _____ _____    ______ ____
ROOT
ATOM      1  C   UNL     1       1.017  -5.247   1.394  0.00  0.00    +0.318 C 
ATOM      2  N   UNL     1       1.174  -6.375   0.462  0.00  0.00    -0.291 N 
ATOM      3  C   UNL     1       2.476  -6.348   0.020  0.00  0.00    +0.139 C 
ATOM      4  N   UNL     1       3.131  -5.376   0.542  0.00  0.00    -0.072 NA
ATOM      5  O   UNL     1       2.310  -4.623   1.421  0.00  0.00    -0.367 OA
ATOM      6  H   UNL     1       0.490  -7.015   0.208  0.00  0.00    +0.151 HD
ENDROOT
BRANCH   1  13
ATOM      7  C   UNL     1       0.730   1.767   0.631  0.00  0.00    +0.044 C 
ATOM      8  C   UNL     1       0.634   0.293   0.332  0.00  0.00    -0.050 A 
ATOM      9  C   UNL     1       0.910  -0.160  -0.966  0.00  0.00    +0.005 A 
ATOM     10  C   UNL     1       0.846  -1.463  -1.312  0.00  0.00    +0.026 A 
ATOM     11  C   UNL     1       0.486  -2.446  -0.350  0.00  0.00    +0.043 A 
ATOM     12  N   UNL     1       0.356  -3.748  -0.438  0.00  0.00    -0.373 N 
ATOM     13  C   UNL     1      -0.039  -4.268   0.876  0.00  0.00    +0.168 C 
ATOM     14  C   UNL     1      -0.129  -3.066   1.788  0.00  0.00    -0.036 C 
ATOM     15  C   UNL     1       0.190  -1.994   1.028  0.00  0.00    -0.001 A 
ATOM     16  C   UNL     1       0.289  -0.559   1.324  0.00  0.00    +0.013 A 
ATOM     17  C   UNL     1      -0.500  -3.063   3.249  0.00  0.00    +0.042 C 
ATOM     18  H   UNL     1       0.496  -4.278  -1.238  0.00  0.00    +0.160 HD
ENDBRANCH   1  13
BRANCH   3  19
ATOM     19  C   UNL     1       3.061  -7.337  -0.956  0.00  0.00    +0.094 C 
BRANCH  19  20
ATOM     20  C   UNL     1       4.530  -6.994  -1.211  0.00  0.00    +0.115 C 
BRANCH  20  21
ATOM     21  N   UNL     1       5.099  -7.955  -2.159  0.00  0.00    -0.300 N 
ATOM     22  C   UNL     1       5.040  -7.686  -3.598  0.00  0.00    +0.132 C 
ATOM     23  C   UNL     1       5.676  -9.086  -1.707  0.00  0.00    +0.249 C 
ATOM     24  O   UNL     1       5.640  -9.355  -0.522  0.00  0.00    -0.270 OA
BRANCH  23  25
ATOM     25  C   UNL     1       6.351  -9.999  -2.652  0.00  0.00    +0.072 A 
ATOM     26  C   UNL     1       7.175  -9.486  -3.656  0.00  0.00    +0.016 A 
ATOM     27  C   UNL     1       7.803 -10.343  -4.534  0.00  0.00    +0.001 A 
ATOM     28  C   UNL     1       7.618 -11.711  -4.425  0.00  0.00    +0.003 A 
ATOM     29  C   UNL     1       6.803 -12.228  -3.435  0.00  0.00    +0.039 A 
ATOM     30  C   UNL     1       6.172 -11.381  -2.543  0.00  0.00    +0.135 A 
ATOM     31  F   UNL     1       5.380 -11.887  -1.572  0.00  0.00    -0.205 F 
ENDBRANCH  23  25
ENDBRANCH  20  21
ENDBRANCH  19  20
ENDBRANCH   3  19
TORSDOF 5
