REMARK  Name = ZINC01028475
REMARK  8 active torsions:
REMARK  status: ('A' for Active; 'I' for Inactive)
REMARK    1  A    between atoms: C_1  and  C_2
REMARK    2  A    between atoms: C_2  and  C_3
REMARK    3  A    between atoms: C_2  and  C_4
REMARK    4  A    between atoms: C_2  and  C_5
REMARK    5  A    between atoms: C_8  and  S_11
REMARK    6  A    between atoms: S_11  and  N_14
REMARK    7  A    between atoms: C_17  and  C_20
REMARK    8  A    between atoms: C_17  and  O_27
REMARK                            x       y       z     vdW  Elec       q    Type
REMARK                         _______ _______ _______ _____ _____    ______ ____
ROOT
ATOM      1  N   UNL     1       2.580  -0.816  -6.143  0.00  0.00    -0.176 NA
ATOM      2  C   UNL     1       1.415  -0.905  -7.034  0.00  0.00    +0.112 C 
ATOM      3  C   UNL     1       0.657   0.426  -6.988  0.00  0.00    +0.056 C 
ATOM      4  C   UNL     1       1.620   1.568  -7.323  0.00  0.00    +0.093 C 
ATOM      5  C   UNL     1       2.741   1.614  -6.283  0.00  0.00    +0.056 C 
ATOM      6  C   UNL     1       3.519   0.300  -6.316  0.00  0.00    +0.112 C 
ENDROOT
BRANCH   4   7
ATOM      7  C   UNL     1       0.871   2.876  -7.313  0.00  0.00    -0.016 A 
ATOM      8  C   UNL     1      -0.219   3.041  -6.479  0.00  0.00    +0.008 A 
ATOM      9  C   UNL     1      -0.907   4.240  -6.468  0.00  0.00    +0.020 A 
ATOM     10  C   UNL     1      -0.504   5.275  -7.293  0.00  0.00    +0.041 A 
ATOM     11  C   UNL     1       0.587   5.109  -8.128  0.00  0.00    +0.020 A 
ATOM     12  C   UNL     1       1.277   3.911  -8.133  0.00  0.00    +0.008 A 
ATOM     13 CL   UNL     1      -1.367   6.781  -7.282  0.00  0.00    -0.084 Cl
ENDBRANCH   4   7
BRANCH   1  14
ATOM     14  S   UNL     1       2.826  -1.950  -4.962  0.00  0.00    +0.061 S 
ATOM     15  O   UNL     1       4.217  -1.937  -4.669  0.00  0.00    -0.153 OA
ATOM     16  O   UNL     1       2.148  -3.127  -5.380  0.00  0.00    -0.153 OA
BRANCH  14  20
ATOM     17  C   UNL     1       0.707  -0.490  -1.238  0.00  0.00    -0.042 A 
ATOM     18  C   UNL     1       0.036  -1.284  -2.148  0.00  0.00    +0.006 A 
ATOM     19  C   UNL     1       0.683  -1.730  -3.286  0.00  0.00    +0.029 A 
ATOM     20  C   UNL     1       2.001  -1.381  -3.513  0.00  0.00    +0.105 A 
ATOM     21  C   UNL     1       2.672  -0.586  -2.603  0.00  0.00    +0.029 A 
ATOM     22  C   UNL     1       2.024  -0.137  -1.467  0.00  0.00    +0.006 A 
BRANCH  17  24
ATOM     23  C   UNL     1      -0.019   1.526   0.010  0.00  0.00    +0.015 C 
ATOM     24  C   UNL     1       0.002  -0.004   0.002  0.00  0.00    -0.013 C 
ATOM     25  C   UNL     1       0.742  -0.511   1.242  0.00  0.00    +0.015 C 
ATOM     26  C   UNL     1      -1.433  -0.534   0.013  0.00  0.00    +0.015 C 
ENDBRANCH  17  24
ENDBRANCH  14  20
ENDBRANCH   1  14
BRANCH   4  27
ATOM     27  O   UNL     1       2.182   1.352  -8.619  0.00  0.00    -0.384 OA
ATOM     28  H   UNL     1       2.803   2.039  -8.898  0.00  0.00    +0.211 HD
ENDBRANCH   4  27
TORSDOF 5
