REMARK  Name = ZINC06206427
REMARK  7 active torsions:
REMARK  status: ('A' for Active; 'I' for Inactive)
REMARK    1  A    between atoms: C_1  and  C_2
REMARK    2  A    between atoms: C_2  and  O_3
REMARK    3  A    between atoms: O_3  and  C_4
REMARK    4  A    between atoms: C_4  and  C_6
REMARK    5  A    between atoms: C_10  and  C_31
REMARK    6  A    between atoms: C_22  and  C_30
REMARK    7  A    between atoms: C_27  and  O_29
REMARK                            x       y       z     vdW  Elec       q    Type
REMARK                         _______ _______ _______ _____ _____    ______ ____
ROOT
ATOM      1  C   UNL     1      -0.013   1.085   0.008  0.00  0.00    +0.098 C 
ATOM      2  C   UNL     1       1.423   1.616  -0.003  0.00  0.00    +0.015 C 
ATOM      3  C   UNL     1       2.130   1.105  -1.255  0.00  0.00    +0.008 C 
ATOM      4  C   UNL     1       1.421   1.612  -2.515  0.00  0.00    -0.026 C 
ATOM      5  C   UNL     1      -0.042   1.148  -2.508  0.00  0.00    -0.004 C 
ATOM      6  C   UNL     1      -0.747   1.598  -1.228  0.00  0.00    +0.018 C 
ATOM      7  C   UNL     1      -0.815   1.715  -3.701  0.00  0.00    +0.004 C 
ATOM      8  C   UNL     1      -0.746   3.252  -3.723  0.00  0.00    +0.004 C 
ATOM      9  C   UNL     1       0.727   3.622  -3.825  0.00  0.00    -0.004 C 
ATOM     10  C   UNL     1       1.428   3.127  -2.551  0.00  0.00    -0.001 C 
ATOM     11  C   UNL     1       2.778   3.810  -2.424  0.00  0.00    +0.005 C 
ATOM     12  C   UNL     1       2.538   5.276  -2.009  0.00  0.00    +0.010 C 
ATOM     13  C   UNL     1       1.353   5.838  -2.756  0.00  0.00    -0.003 C 
ATOM     14  C   UNL     1       1.060   5.061  -4.053  0.00  0.00    +0.001 C 
ATOM     15  C   UNL     1      -0.016   5.934  -4.715  0.00  0.00    +0.007 C 
ATOM     16  C   UNL     1       0.448   7.382  -4.396  0.00  0.00    +0.032 C 
ATOM     17  C   UNL     1       1.556   7.260  -3.318  0.00  0.00    +0.121 C 
ATOM     18  C   UNL     1       0.128   5.891  -1.838  0.00  0.00    +0.014 C 
ATOM     19  C   UNL     1       2.151   1.024  -3.727  0.00  0.00    +0.012 C 
ENDROOT
BRANCH   1  20
ATOM     20  C   UNL     1      -0.716   1.572   1.249  0.00  0.00    +0.310 C 
ATOM     21  O   UNL     1      -1.709   2.253   1.153  0.00  0.00    -0.251 OA
BRANCH  20  22
ATOM     22  O   UNL     1      -0.240   1.247   2.462  0.00  0.00    -0.465 OA
BRANCH  22  24
ATOM     23  C   UNL     1      -0.281   1.281   4.896  0.00  0.00    +0.048 C 
ATOM     24  C   UNL     1      -0.968   1.750   3.612  0.00  0.00    +0.229 C 
ENDBRANCH  22  24
ENDBRANCH  20  22
ENDBRANCH   1  20
BRANCH  17  25
ATOM     25  O   UNL     1       2.844   7.372  -3.918  0.00  0.00    -0.391 OA
ATOM     26  H   UNL     1       3.030   8.245  -4.290  0.00  0.00    +0.210 HD
ENDBRANCH  17  25
TORSDOF 4
