REMARK  Name = ZINC09680042
REMARK  10 active torsions:
REMARK  status: ('A' for Active; 'I' for Inactive)
REMARK    1  A    between atoms: C_1  and  C_2
REMARK    2  A    between atoms: C_2  and  C_3
REMARK    3  A    between atoms: C_8  and  N_9
REMARK    4  A    between atoms: N_9  and  S_10
REMARK    5  A    between atoms: S_10  and  C_13
REMARK    6  A    between atoms: C_21  and  C_25
REMARK    7  A    between atoms: N_27  and  C_28
REMARK    8  A    between atoms: C_28  and  C_30
REMARK    9  A    between atoms: C_28  and  C_31
REMARK   10  A    between atoms: C_31  and  C_32
REMARK                            x       y       z     vdW  Elec       q    Type
REMARK                         _______ _______ _______ _____ _____    ______ ____
ROOT
ATOM      1  C   UNL     1       1.329  -0.796   0.113  0.00  0.00    +0.109 A 
ATOM      2  C   UNL     1       0.155  -0.060   0.196  0.00  0.00    +0.031 A 
ATOM      3  C   UNL     1       0.191   1.314   0.284  0.00  0.00    +0.028 A 
ATOM      4  C   UNL     1       1.415   1.979   0.288  0.00  0.00    +0.050 A 
ATOM      5  C   UNL     1       2.602   1.232   0.203  0.00  0.00    +0.048 A 
ATOM      6  C   UNL     1       2.550  -0.160   0.116  0.00  0.00    +0.042 A 
ATOM      7  C   UNL     1       3.891   1.948   0.209  0.00  0.00    +0.202 A 
ATOM      8  O   UNL     1       4.950   1.350   0.138  0.00  0.00    -0.286 OA
ATOM      9  C   UNL     1       3.844   3.416   0.304  0.00  0.00    +0.100 A 
ATOM     10  C   UNL     1       2.616   4.039   0.382  0.00  0.00    +0.100 A 
ATOM     11  N   UNL     1       1.465   3.354   0.374  0.00  0.00    -0.360 N 
ATOM     12  H   UNL     1       0.631   3.846   0.430  0.00  0.00    +0.165 HD
ENDROOT
BRANCH   9  13
ATOM     13  C   UNL     1       5.085   4.205   0.316  0.00  0.00    +0.249 C 
ATOM     14  O   UNL     1       6.163   3.644   0.248  0.00  0.00    -0.270 OA
ATOM     15  N   UNL     1       5.029   5.548   0.404  0.00  0.00    -0.309 N 
ATOM     16  H   UNL     1       4.170   5.995   0.458  0.00  0.00    +0.149 HD
BRANCH  15  17
ATOM     17  C   UNL     1       6.266   6.334   0.416  0.00  0.00    +0.070 C 
ATOM     18  C   UNL     1       6.807   6.411   1.845  0.00  0.00    +0.028 C 
BRANCH  17  19
ATOM     19  C   UNL     1       5.977   7.747  -0.097  0.00  0.00    +0.018 C 
ATOM     20  C   UNL     1       5.555   7.680  -1.566  0.00  0.00    +0.005 C 
ENDBRANCH  17  19
ENDBRANCH  15  17
ENDBRANCH   9  13
BRANCH   1  21
ATOM     21  S   UNL     1       1.255  -2.553   0.003  0.00  0.00    +0.072 S 
ATOM     22  O   UNL     1       2.499  -3.042   0.485  0.00  0.00    -0.150 OA
ATOM     23  O   UNL     1       0.012  -2.944   0.569  0.00  0.00    -0.150 OA
BRANCH  21  24
ATOM     24  N   UNL     1       1.186  -2.941  -1.606  0.00  0.00    -0.216 N 
ATOM     25  H   UNL     1       0.423  -3.427  -1.955  0.00  0.00    +0.174 HD
BRANCH  24  31
ATOM     26  C   UNL     1       1.951  -2.186  -3.767  0.00  0.00    -0.025 A 
ATOM     27  C   UNL     1       2.982  -1.816  -4.608  0.00  0.00    +0.005 A 
ATOM     28  C   UNL     1       4.287  -1.825  -4.151  0.00  0.00    +0.000 A 
ATOM     29  C   UNL     1       4.564  -2.204  -2.850  0.00  0.00    +0.002 A 
ATOM     30  C   UNL     1       3.538  -2.570  -2.002  0.00  0.00    +0.025 A 
ATOM     31  C   UNL     1       2.226  -2.567  -2.460  0.00  0.00    +0.051 A 
BRANCH  26  33
ATOM     32  C   UNL     1      -0.132  -0.846  -3.895  0.00  0.00    +0.009 C 
ATOM     33  C   UNL     1       0.529  -2.175  -4.266  0.00  0.00    +0.033 C 
ENDBRANCH  26  33
ENDBRANCH  24  31
ENDBRANCH  21  24
ENDBRANCH   1  21
TORSDOF 7
