REMARK  Name = ZINC24818586
REMARK  6 active torsions:
REMARK  status: ('A' for Active; 'I' for Inactive)
REMARK    1  A    between atoms: C_1  and  C_2
REMARK    2  A    between atoms: C_15  and  C_17
REMARK    3  A    between atoms: C_17  and  N_18
REMARK    4  A    between atoms: N_18  and  C_19
REMARK    5  A    between atoms: N_18  and  C_20
REMARK    6  A    between atoms: C_20  and  C_21
REMARK                            x       y       z     vdW  Elec       q    Type
REMARK                         _______ _______ _______ _____ _____    ______ ____
ROOT
ATOM      1  C   UNL     1       0.404   4.094  -2.278  0.00  0.00    +0.029 C 
ATOM      2  C   UNL     1       1.567   4.152  -1.286  0.00  0.00    +0.087 C 
ATOM      3  C   UNL     1       2.785   3.453  -1.890  0.00  0.00    +0.118 C 
ATOM      4  C   UNL     1       3.793   3.146  -0.814  0.00  0.00    +0.219 C 
ATOM      5  O   UNL     1       4.796   3.821  -0.717  0.00  0.00    -0.275 OA
ATOM      6  N   UNL     1       3.586   2.124   0.044  0.00  0.00    -0.284 N 
ATOM      7  C   UNL     1       2.390   1.397   0.008  0.00  0.00    +0.055 A 
ATOM      8  C   UNL     1       2.400   0.012  -0.005  0.00  0.00    +0.025 A 
ATOM      9  C   UNL     1       1.206  -0.685  -0.011  0.00  0.00    +0.002 A 
ATOM     10  C   UNL     1       0.002  -0.004   0.002  0.00  0.00    +0.002 A 
ATOM     11  C   UNL     1      -0.017   1.379   0.010  0.00  0.00    +0.025 A 
ATOM     12  C   UNL     1       1.175   2.084   0.002  0.00  0.00    +0.058 A 
ATOM     13  N   UNL     1       1.177   3.486  -0.042  0.00  0.00    -0.268 N 
ATOM     14  C   UNL     1       0.826   4.206   1.041  0.00  0.00    +0.204 C 
ATOM     15  O   UNL     1       0.831   5.418   0.991  0.00  0.00    -0.277 OA
ATOM     16  H   UNL     1       4.360   1.857   0.779  0.00  0.00    +0.155 HD
ENDROOT
BRANCH  14  17
ATOM     17  C   UNL     1       0.427   3.506   2.315  0.00  0.00    +0.019 C 
BRANCH  17  18
ATOM     18  N   UNL     1       0.092   4.506   3.338  0.00  0.00    +0.386 N 
ATOM     19  C   UNL     1      -1.111   5.261   2.963  0.00  0.00    -0.095 C 
ATOM     20  H   UNL     1       0.930   5.215   3.405  0.00  0.00    -0.081 HD
BRANCH  18  21
ATOM     21  C   UNL     1      -0.071   3.876   4.656  0.00  0.00    -0.040 C 
BRANCH  21  22
ATOM     22  C   UNL     1      -0.169   4.944   5.714  0.00  0.00    -0.029 A 
ATOM     23  C   UNL     1       0.936   5.258   6.483  0.00  0.00    +0.004 A 
ATOM     24  C   UNL     1       0.848   6.242   7.450  0.00  0.00    +0.000 A 
ATOM     25  C   UNL     1      -0.348   6.904   7.658  0.00  0.00    +0.003 A 
ATOM     26  C   UNL     1      -1.455   6.588   6.894  0.00  0.00    +0.038 A 
ATOM     27  C   UNL     1      -1.367   5.606   5.921  0.00  0.00    +0.125 A 
ATOM     28  F   UNL     1      -2.449   5.296   5.174  0.00  0.00    -0.205 F 
ENDBRANCH  21  22
ENDBRANCH  18  21
ENDBRANCH  17  18
ENDBRANCH  14  17
TORSDOF 4
