REMARK  Name = ZINC09124653
REMARK  8 active torsions:
REMARK  status: ('A' for Active; 'I' for Inactive)
REMARK    1  A    between atoms: C_4  and  O_7
REMARK    2  A    between atoms: O_7  and  C_8
REMARK    3  A    between atoms: C_12  and  C_14
REMARK    4  A    between atoms: C_17  and  C_28
REMARK    5  A    between atoms: N_24  and  C_25
REMARK    6  A    between atoms: C_25  and  C_26
REMARK    7  A    between atoms: C_26  and  O_27
REMARK    8  A    between atoms: C_33  and  O_34
REMARK                            x       y       z     vdW  Elec       q    Type
REMARK                         _______ _______ _______ _____ _____    ______ ____
ROOT
ATOM      1  C   UNL     1       5.838  -5.172  -0.018  0.00  0.00    +0.141 C 
ATOM      2  C   UNL     1       6.607  -5.639  -1.224  0.00  0.00    +0.035 A 
ATOM      3  C   UNL     1       7.215  -5.301  -2.438  0.00  0.00    +0.102 A 
ATOM      4  N   UNL     1       7.725  -6.407  -2.945  0.00  0.00    -0.173 NA
ATOM      5  N   UNL     1       7.498  -7.409  -2.171  0.00  0.00    -0.272 N 
ATOM      6  H   UNL     1       7.782  -8.320  -2.343  0.00  0.00    +0.189 HD
ATOM      7  C   UNL     1       6.800  -6.998  -1.071  0.00  0.00    +0.126 A 
ATOM      8  C   UNL     1       6.182  -7.418   0.191  0.00  0.00    +0.266 C 
ATOM      9  O   UNL     1       6.178  -8.557   0.617  0.00  0.00    -0.268 OA
ATOM     10  N   UNL     1       5.620  -6.364   0.812  0.00  0.00    -0.283 N 
ENDROOT
BRANCH   1  15
ATOM     11  C   UNL     1       3.070  -2.690  -0.693  0.00  0.00    +0.129 A 
ATOM     12  C   UNL     1       2.085  -3.514  -1.219  0.00  0.00    +0.046 A 
ATOM     13  C   UNL     1       2.319  -4.868  -1.355  0.00  0.00    +0.004 A 
ATOM     14  C   UNL     1       3.534  -5.404  -0.966  0.00  0.00    +0.006 A 
ATOM     15  C   UNL     1       4.516  -4.585  -0.441  0.00  0.00    -0.019 A 
ATOM     16  C   UNL     1       4.290  -3.229  -0.309  0.00  0.00    +0.052 A 
BRANCH  11  17
ATOM     17  O   UNL     1       2.842  -1.357  -0.559  0.00  0.00    -0.456 OA
BRANCH  17  21
ATOM     18  C   UNL     1       0.867  -0.060   2.823  0.00  0.00    +0.000 A 
ATOM     19  C   UNL     1       1.091  -1.411   2.630  0.00  0.00    +0.004 A 
ATOM     20  C   UNL     1       1.752  -1.848   1.498  0.00  0.00    +0.046 A 
ATOM     21  C   UNL     1       2.192  -0.930   0.555  0.00  0.00    +0.128 A 
ATOM     22  C   UNL     1       1.965   0.425   0.751  0.00  0.00    +0.046 A 
ATOM     23  C   UNL     1       1.304   0.856   1.884  0.00  0.00    +0.004 A 
ENDBRANCH  17  21
ENDBRANCH  11  17
ENDBRANCH   1  15
BRANCH   3  24
ATOM     24  C   UNL     1       7.276  -3.948  -3.045  0.00  0.00    +0.044 A 
ATOM     25  C   UNL     1       6.812  -2.843  -2.336  0.00  0.00    +0.014 A 
ATOM     26  C   UNL     1       6.870  -1.586  -2.904  0.00  0.00    +0.001 A 
ATOM     27  C   UNL     1       7.388  -1.420  -4.176  0.00  0.00    +0.004 A 
ATOM     28  C   UNL     1       7.851  -2.510  -4.888  0.00  0.00    +0.046 A 
ATOM     29  C   UNL     1       7.804  -3.777  -4.327  0.00  0.00    +0.126 A 
BRANCH  29  30
ATOM     30  O   UNL     1       8.265  -4.848  -5.023  0.00  0.00    -0.506 OA
ATOM     31  H   UNL     1       7.595  -5.278  -5.572  0.00  0.00    +0.292 HD
ENDBRANCH  29  30
ENDBRANCH   3  24
BRANCH  10  32
ATOM     32  C   UNL     1       4.912  -6.398   2.095  0.00  0.00    +0.137 C 
BRANCH  32  33
ATOM     33  C   UNL     1       3.452  -6.789   1.861  0.00  0.00    +0.175 C 
BRANCH  33  34
ATOM     34  O   UNL     1       3.393  -8.114   1.328  0.00  0.00    -0.393 OA
ATOM     35  H   UNL     1       2.495  -8.428   1.155  0.00  0.00    +0.209 HD
ENDBRANCH  33  34
ENDBRANCH  32  33
ENDBRANCH  10  32
TORSDOF 8
