REMARK  Name = ZINC13648109
REMARK  11 active torsions:
REMARK  status: ('A' for Active; 'I' for Inactive)
REMARK    1  A    between atoms: C_1  and  C_2
REMARK    2  A    between atoms: C_5  and  C_8
REMARK    3  A    between atoms: C_8  and  C_9
REMARK    4  A    between atoms: C_9  and  C_10
REMARK    5  A    between atoms: C_10  and  N_11
REMARK    6  A    between atoms: C_12  and  C_14
REMARK    7  A    between atoms: C_14  and  N_15
REMARK    8  A    between atoms: N_15  and  C_16
REMARK    9  A    between atoms: N_15  and  S_23
REMARK   10  A    between atoms: S_23  and  C_26
REMARK   11  A    between atoms: C_29  and  C_32
REMARK                            x       y       z     vdW  Elec       q    Type
REMARK                         _______ _______ _______ _____ _____    ______ ____
ROOT
ATOM      1  N   UNL     1       1.110  -2.367   0.011  0.00  0.00    -0.194 N 
ENDROOT
BRANCH   1   2
ATOM      2  C   UNL     1       0.923  -1.008   0.272  0.00  0.00    +0.052 A 
ATOM      3  C   UNL     1      -0.362  -0.493   0.395  0.00  0.00    +0.026 A 
ATOM      4  C   UNL     1      -0.544   0.851   0.652  0.00  0.00    +0.017 A 
ATOM      5  C   UNL     1       0.551   1.686   0.786  0.00  0.00    +0.018 A 
ATOM      6  C   UNL     1       1.832   1.177   0.663  0.00  0.00    +0.017 A 
ATOM      7  C   UNL     1       2.020  -0.167   0.407  0.00  0.00    +0.026 A 
ATOM      8 BR   UNL     1       0.297   3.527   1.137  0.00  0.00    -0.050 Br
ENDBRANCH   1   2
BRANCH   1   9
ATOM      9  S   UNL     1       2.485  -2.882  -0.755  0.00  0.00    +0.075 S 
ATOM     10  O   UNL     1       2.161  -4.111  -1.390  0.00  0.00    -0.150 OA
ATOM     11  O   UNL     1       2.993  -1.765  -1.472  0.00  0.00    -0.150 OA
BRANCH   9  12
ATOM     12  C   UNL     1       3.669  -3.258   0.495  0.00  0.00    +0.109 A 
ATOM     13  C   UNL     1       4.624  -2.323   0.847  0.00  0.00    +0.029 A 
ATOM     14  C   UNL     1       5.550  -2.616   1.831  0.00  0.00    +0.005 A 
ATOM     15  C   UNL     1       5.526  -3.849   2.456  0.00  0.00    -0.050 A 
ATOM     16  C   UNL     1       4.574  -4.786   2.102  0.00  0.00    +0.005 A 
ATOM     17  C   UNL     1       3.645  -4.491   1.121  0.00  0.00    +0.029 A 
ATOM     18  C   UNL     1       6.538  -4.170   3.526  0.00  0.00    +0.044 C 
ENDBRANCH   9  12
ENDBRANCH   1   9
BRANCH   1  19
ATOM     19  C   UNL     1       0.091  -3.338   0.417  0.00  0.00    +0.227 C 
BRANCH  19  21
ATOM     20  N   UNL     1      -2.015  -4.264  -0.493  0.00  0.00    -0.314 N 
ATOM     21  C   UNL     1      -0.969  -3.428  -0.651  0.00  0.00    +0.232 C 
ATOM     22  O   UNL     1      -0.882  -2.748  -1.651  0.00  0.00    -0.274 OA
ATOM     23  H   UNL     1      -2.085  -4.808   0.307  0.00  0.00    +0.149 HD
BRANCH  20  24
ATOM     24  C   UNL     1      -3.045  -4.352  -1.531  0.00  0.00    +0.104 C 
BRANCH  24  25
ATOM     25  C   UNL     1      -4.110  -5.366  -1.108  0.00  0.00    +0.023 C 
BRANCH  25  26
ATOM     26  C   UNL     1      -5.187  -5.457  -2.191  0.00  0.00    +0.036 C 
BRANCH  26  31
ATOM     27  C   UNL     1      -9.209  -9.286  -0.594  0.00  0.00    +0.044 C 
ATOM     28  C   UNL     1      -8.160  -8.287  -1.011  0.00  0.00    -0.050 A 
ATOM     29  C   UNL     1      -8.296  -6.957  -0.662  0.00  0.00    +0.003 A 
ATOM     30  C   UNL     1      -7.333  -6.041  -1.044  0.00  0.00    +0.004 A 
ATOM     31  C   UNL     1      -6.235  -6.456  -1.774  0.00  0.00    -0.047 A 
ATOM     32  C   UNL     1      -6.103  -7.785  -2.127  0.00  0.00    +0.004 A 
ATOM     33  C   UNL     1      -7.062  -8.702  -1.741  0.00  0.00    +0.003 A 
ENDBRANCH  26  31
ENDBRANCH  25  26
ENDBRANCH  24  25
ENDBRANCH  20  24
ENDBRANCH  19  21
ENDBRANCH   1  19
TORSDOF 9
