REMARK  Name = ZINC44165201
REMARK  5 active torsions:
REMARK  status: ('A' for Active; 'I' for Inactive)
REMARK    1  A    between atoms: C_1  and  C_2
REMARK    2  A    between atoms: C_10  and  C_11
REMARK    3  A    between atoms: C_16  and  C_19
REMARK    4  A    between atoms: N_21  and  C_22
REMARK    5  A    between atoms: C_22  and  C_23
REMARK                            x       y       z     vdW  Elec       q    Type
REMARK                         _______ _______ _______ _____ _____    ______ ____
ROOT
ATOM      1  C   UNL     1       0.028  -0.145   2.561  0.00  0.00    -0.023 C 
ATOM      2  C   UNL     1      -1.362  -0.326   3.183  0.00  0.00    +0.058 C 
ATOM      3  S   UNL     1      -1.339   0.399   4.852  0.00  0.00    -0.163 S 
ATOM      4  C   UNL     1       0.151  -0.342   5.589  0.00  0.00    +0.062 C 
ATOM      5  C   UNL     1       1.314  -0.159   4.607  0.00  0.00    +0.027 C 
ATOM      6  N   UNL     1       1.025  -0.864   3.357  0.00  0.00    +0.393 N 
ATOM      7  H   UNL     1       0.675  -1.786   3.570  0.00  0.00    -0.084 HD
ATOM      8  H   UNL     1       1.876  -0.950   2.821  0.00  0.00    -0.084 HD
ENDROOT
BRANCH   1  18
ATOM      9  C   UNL     1      -0.018   1.503   0.010  0.00  0.00    +0.045 C 
ATOM     10  C   UNL     1       0.002  -0.004   0.002  0.00  0.00    -0.034 A 
ATOM     11  C   UNL     1       0.006  -0.732  -1.258  0.00  0.00    -0.006 A 
ATOM     12  C   UNL     1      -0.007  -0.220  -2.577  0.00  0.00    +0.029 A 
ATOM     13  C   UNL     1      -0.001  -1.058  -3.649  0.00  0.00    +0.042 A 
ATOM     14  C   UNL     1       0.019  -2.438  -3.490  0.00  0.00    +0.021 A 
ATOM     15  C   UNL     1       0.033  -2.977  -2.219  0.00  0.00    +0.017 A 
ATOM     16  C   UNL     1       0.026  -2.138  -1.126  0.00  0.00    +0.020 A 
ATOM     17  S   UNL     1       0.038  -2.391   0.630  0.00  0.00    -0.095 S 
ATOM     18  C   UNL     1       0.022  -0.687   1.155  0.00  0.00    -0.019 A 
ATOM     19 CL   UNL     1      -0.018  -0.388  -5.250  0.00  0.00    -0.084 Cl
ENDBRANCH   1  18
BRANCH   5  20
ATOM     20  C   UNL     1       2.575  -0.717   5.215  0.00  0.00    +0.200 C 
ATOM     21  O   UNL     1       3.168  -1.618   4.661  0.00  0.00    -0.278 OA
ATOM     22  N   UNL     1       3.044  -0.214   6.375  0.00  0.00    -0.314 N 
ATOM     23  H   UNL     1       2.569   0.506   6.818  0.00  0.00    +0.149 HD
BRANCH  22  24
ATOM     24  C   UNL     1       4.270  -0.757   6.966  0.00  0.00    +0.135 C 
BRANCH  24  25
ATOM     25  C   UNL     1       4.579  -0.017   8.269  0.00  0.00    +0.135 C 
ATOM     26  C   UNL     1       5.931  -0.498   8.836  0.00  0.00    +0.035 C 
ATOM     27  C   UNL     1       5.650  -0.547  10.363  0.00  0.00    +0.031 C 
ATOM     28  C   UNL     1       4.160  -0.974  10.373  0.00  0.00    +0.160 C 
ATOM     29  O   UNL     1       3.570  -0.307   9.243  0.00  0.00    -0.375 OA
ENDBRANCH  24  25
ENDBRANCH  22  24
ENDBRANCH   5  20
TORSDOF 4
