REMARK  Name = ZINC06894721
REMARK  7 active torsions:
REMARK  status: ('A' for Active; 'I' for Inactive)
REMARK    1  A    between atoms: C_1  and  C_2
REMARK    2  A    between atoms: C_2  and  C_3
REMARK    3  A    between atoms: C_2  and  O_4
REMARK    4  A    between atoms: O_4  and  C_5
REMARK    5  A    between atoms: C_8  and  C_11
REMARK    6  A    between atoms: C_11  and  N_12
REMARK    7  A    between atoms: C_13  and  C_15
REMARK                            x       y       z     vdW  Elec       q    Type
REMARK                         _______ _______ _______ _____ _____    ______ ____
ROOT
ATOM      1  C   UNL     1      -1.389   1.690  -0.261  0.00  0.00    +0.076 C 
ATOM      2  C   UNL     1      -2.117   2.459   0.876  0.00  0.00    -0.003 C 
ATOM      3  C   UNL     1      -1.134   2.280   2.057  0.00  0.00    -0.066 C 
ATOM      4  C   UNL     1      -1.265   3.477   3.012  0.00  0.00    -0.017 C 
ATOM      5  C   UNL     1       0.092   4.211   2.930  0.00  0.00    -0.020 C 
ATOM      6  C   UNL     1       0.642   3.768   1.553  0.00  0.00    -0.077 C 
ATOM      7  C   UNL     1       0.092   1.979   0.028  0.00  0.00    +0.052 C 
ATOM      8  C   UNL     1       0.947   0.784  -0.302  0.00  0.00    -0.027 A 
ATOM      9  C   UNL     1       0.976  -0.512   0.161  0.00  0.00    +0.004 A 
ATOM     10  C   UNL     1       1.903  -1.407  -0.346  0.00  0.00    +0.000 A 
ATOM     11  C   UNL     1       2.798  -0.994  -1.317  0.00  0.00    +0.002 A 
ATOM     12  C   UNL     1       2.771   0.303  -1.783  0.00  0.00    +0.023 A 
ATOM     13  C   UNL     1       1.840   1.210  -1.279  0.00  0.00    +0.036 A 
ATOM     14  N   UNL     1       1.615   2.552  -1.589  0.00  0.00    -0.286 N 
ATOM     15  C   UNL     1       0.606   3.077  -0.868  0.00  0.00    +0.212 C 
ATOM     16  O   UNL     1       0.190   4.215  -0.928  0.00  0.00    -0.277 OA
ATOM     17  H   UNL     1       2.126   3.049  -2.246  0.00  0.00    +0.155 HD
ATOM     18  N   UNL     1       0.189   2.369   1.448  0.00  0.00    +0.394 N 
ATOM     19  H   UNL     1       0.846   1.749   1.935  0.00  0.00    -0.079 HD
ENDROOT
BRANCH   1  21
ATOM     20  N   UNL     1      -1.542   1.504  -2.723  0.00  0.00    -0.311 N 
ATOM     21  C   UNL     1      -1.784   2.228  -1.612  0.00  0.00    +0.216 C 
ATOM     22  O   UNL     1      -2.320   3.313  -1.700  0.00  0.00    -0.276 OA
ATOM     23  H   UNL     1      -1.113   0.637  -2.652  0.00  0.00    +0.149 HD
BRANCH  20  24
ATOM     24  C   UNL     1      -1.926   2.027  -4.036  0.00  0.00    +0.139 C 
BRANCH  24  28
ATOM     25  C   UNL     1      -0.853  -0.794  -7.061  0.00  0.00    +0.121 A 
ATOM     26  C   UNL     1      -2.103  -0.858  -6.463  0.00  0.00    +0.046 A 
ATOM     27  C   UNL     1      -2.448   0.055  -5.485  0.00  0.00    +0.009 A 
ATOM     28  C   UNL     1      -1.548   1.032  -5.103  0.00  0.00    -0.030 A 
ATOM     29  C   UNL     1      -0.303   1.102  -5.702  0.00  0.00    +0.009 A 
ATOM     30  C   UNL     1       0.048   0.188  -6.676  0.00  0.00    +0.046 A 
BRANCH  25  31
ATOM     31  O   UNL     1      -0.512  -1.692  -8.023  0.00  0.00    -0.489 OA
BRANCH  31  33
ATOM     32  C   UNL     1      -2.494  -2.263  -9.283  0.00  0.00    +0.051 C 
ATOM     33  C   UNL     1      -1.440  -2.746  -8.285  0.00  0.00    +0.167 C 
ATOM     34  C   UNL     1      -0.695  -3.947  -8.871  0.00  0.00    +0.051 C 
ENDBRANCH  31  33
ENDBRANCH  25  31
ENDBRANCH  24  28
ENDBRANCH  20  24
ENDBRANCH   1  21
TORSDOF 5
