REMARK  Name = ZINC64202201
REMARK  9 active torsions:
REMARK  status: ('A' for Active; 'I' for Inactive)
REMARK    1  A    between atoms: C_1  and  C_2
REMARK    2  A    between atoms: C_5  and  C_7
REMARK    3  A    between atoms: C_10  and  C_12
REMARK    4  A    between atoms: C_12  and  N_13
REMARK    5  A    between atoms: N_13  and  C_14
REMARK    6  A    between atoms: C_15  and  C_17
REMARK    7  A    between atoms: C_22  and  N_23
REMARK    8  A    between atoms: N_23  and  S_24
REMARK    9  A    between atoms: S_24  and  C_27
REMARK                            x       y       z     vdW  Elec       q    Type
REMARK                         _______ _______ _______ _____ _____    ______ ____
ROOT
ATOM      1  C   UNL     1       1.647  -8.039   1.934  0.00  0.00    +0.059 A 
ATOM      2  C   UNL     1       0.267  -8.226   1.821  0.00  0.00    +0.015 A 
ATOM      3  C   UNL     1      -0.367  -9.160   2.610  0.00  0.00    +0.001 A 
ATOM      4  C   UNL     1       0.357  -9.916   3.519  0.00  0.00    +0.002 A 
ATOM      5  C   UNL     1       1.720  -9.743   3.643  0.00  0.00    +0.025 A 
ATOM      6  C   UNL     1       2.378  -8.810   2.850  0.00  0.00    +0.060 A 
ENDROOT
BRANCH   1   9
ATOM      7  N   UNL     1       1.782  -5.823   0.908  0.00  0.00    -0.293 N 
ATOM      8  C   UNL     1       0.568  -5.450   1.638  0.00  0.00    +0.133 C 
ATOM      9  C   UNL     1       2.331  -7.040   1.092  0.00  0.00    +0.249 C 
ATOM     10  O   UNL     1       3.391  -7.316   0.563  0.00  0.00    -0.270 OA
BRANCH   7  11
ATOM     11  C   UNL     1       2.400  -4.874  -0.020  0.00  0.00    +0.182 C 
BRANCH  11  15
ATOM     12  C   UNL     1       4.284  -2.393   1.885  0.00  0.00    +0.109 A 
ATOM     13  C   UNL     1       5.276  -3.263   1.629  0.00  0.00    +0.045 A 
ATOM     14  C   UNL     1       4.711  -4.319   0.877  0.00  0.00    +0.046 A 
ATOM     15  C   UNL     1       3.407  -4.030   0.719  0.00  0.00    +0.122 A 
ATOM     16  O   UNL     1       3.152  -2.865   1.337  0.00  0.00    -0.463 OA
BRANCH  12  20
ATOM     17  C   UNL     1       4.879   1.440   2.286  0.00  0.00    +0.008 C 
ATOM     18  C   UNL     1       4.061   0.194   1.940  0.00  0.00    -0.003 C 
ATOM     19  C   UNL     1       3.130  -0.362   3.020  0.00  0.00    +0.015 C 
ATOM     20  C   UNL     1       4.417  -1.108   2.661  0.00  0.00    +0.058 C 
ENDBRANCH  12  20
ENDBRANCH  11  15
ENDBRANCH   7  11
ENDBRANCH   1   9
BRANCH   6  21
ATOM     21  N   UNL     1       3.751  -8.638   2.969  0.00  0.00    -0.216 N 
ATOM     22  H   UNL     1       4.139  -7.754   2.871  0.00  0.00    +0.174 HD
BRANCH  21  23
ATOM     23  S   UNL     1       4.726  -9.941   3.278  0.00  0.00    +0.072 S 
ATOM     24  O   UNL     1       6.065  -9.475   3.193  0.00  0.00    -0.150 OA
ATOM     25  O   UNL     1       4.209 -10.566   4.445  0.00  0.00    -0.150 OA
BRANCH  23  26
ATOM     26  C   UNL     1       4.504 -11.083   1.954  0.00  0.00    +0.110 A 
ATOM     27  C   UNL     1       3.461 -12.096   2.062  0.00  0.00    +0.031 A 
ATOM     28  C   UNL     1       3.238 -13.000   1.084  0.00  0.00    +0.027 A 
ATOM     29  C   UNL     1       4.060 -12.974  -0.124  0.00  0.00    +0.056 A 
ATOM     30  N   UNL     1       4.108 -13.681  -1.224  0.00  0.00    -0.268 N 
ATOM     31  C   UNL     1       5.113 -13.181  -2.019  0.00  0.00    +0.308 C 
ATOM     32  O   UNL     1       5.419 -13.612  -3.110  0.00  0.00    -0.252 OA
ATOM     33  N   UNL     1       5.718 -12.118  -1.390  0.00  0.00    -0.267 N 
ATOM     34  C   UNL     1       5.132 -11.933  -0.234  0.00  0.00    +0.058 A 
ATOM     35  C   UNL     1       5.302 -10.989   0.869  0.00  0.00    +0.054 A 
ATOM     36  H   UNL     1       6.454 -11.594  -1.744  0.00  0.00    +0.156 HD
ATOM     37  H   UNL     1       3.533 -14.431  -1.442  0.00  0.00    +0.156 HD
ENDBRANCH  23  26
ENDBRANCH  21  23
ENDBRANCH   6  21
TORSDOF 7
