REMARK  Name = ZINC05342104
REMARK  4 active torsions:
REMARK  status: ('A' for Active; 'I' for Inactive)
REMARK    1  A    between atoms: C_1  and  C_2
REMARK    2  A    between atoms: C_2  and  C_3
REMARK    3  A    between atoms: N_25  and  C_28
REMARK    4  A    between atoms: C_28  and  C_29
REMARK                            x       y       z     vdW  Elec       q    Type
REMARK                         _______ _______ _______ _____ _____    ______ ____
ROOT
ATOM      1  C   UNL     1       0.707  -0.490  -1.238  0.00  0.00    -0.026 A 
ATOM      2  C   UNL     1      -0.023  -0.816  -2.362  0.00  0.00    +0.005 A 
ATOM      3  C   UNL     1       0.614  -1.262  -3.504  0.00  0.00    +0.001 A 
ATOM      4  C   UNL     1       1.993  -1.383  -3.521  0.00  0.00    +0.004 A 
ATOM      5  C   UNL     1       2.726  -1.059  -2.402  0.00  0.00    -0.027 A 
ATOM      6  C   UNL     1       2.095  -0.603  -1.248  0.00  0.00    +0.039 A 
ATOM      7  N   UNL     1       3.041  -0.334  -0.255  0.00  0.00    -0.286 N 
ATOM      8  C   UNL     1       4.298  -0.578  -0.672  0.00  0.00    +0.212 C 
ATOM      9  O   UNL     1       5.315  -0.434  -0.026  0.00  0.00    -0.277 OA
ATOM     10  C   UNL     1       4.196  -1.073  -2.089  0.00  0.00    +0.053 C 
ATOM     11  C   UNL     1       4.979  -0.164  -3.043  0.00  0.00    +0.088 C 
ATOM     12  C   UNL     1       6.325  -0.901  -3.276  0.00  0.00    +0.073 C 
ATOM     13  C   UNL     1       6.235  -2.184  -2.429  0.00  0.00    -0.054 C 
ATOM     14  N   UNL     1       4.766  -2.422  -2.241  0.00  0.00    +0.395 N 
ATOM     15  C   UNL     1       4.301  -3.007  -3.521  0.00  0.00    -0.076 C 
ATOM     16  C   UNL     1       5.446  -3.930  -3.984  0.00  0.00    -0.020 C 
ATOM     17  C   UNL     1       6.737  -3.378  -3.261  0.00  0.00    -0.016 C 
ATOM     18  C   UNL     1       6.282  -1.250  -4.747  0.00  0.00    +0.224 C 
ATOM     19  O   UNL     1       7.150  -1.841  -5.352  0.00  0.00    -0.275 OA
ATOM     20  N   UNL     1       5.137  -0.803  -5.276  0.00  0.00    -0.237 N 
ATOM     21  C   UNL     1       4.322  -0.166  -4.405  0.00  0.00    +0.225 C 
ATOM     22  O   UNL     1       3.243   0.321  -4.664  0.00  0.00    -0.275 OA
ATOM     23  H   UNL     1       2.817  -0.010   0.631  0.00  0.00    +0.155 HD
ATOM     24  H   UNL     1       4.573  -3.013  -1.447  0.00  0.00    -0.079 HD
ENDROOT
BRANCH   1  26
ATOM     25  C   UNL     1      -0.019   1.526   0.010  0.00  0.00    +0.009 C 
ATOM     26  C   UNL     1       0.002  -0.004   0.002  0.00  0.00    +0.033 C 
ENDBRANCH   1  26
BRANCH  20  27
ATOM     27  C   UNL     1       4.794  -0.984  -6.689  0.00  0.00    +0.151 C 
BRANCH  27  28
ATOM     28  C   UNL     1       4.051  -2.283  -6.864  0.00  0.00    -0.030 A 
ATOM     29  C   UNL     1       4.747  -3.449  -7.117  0.00  0.00    +0.005 A 
ATOM     30  C   UNL     1       4.065  -4.641  -7.277  0.00  0.00    +0.000 A 
ATOM     31  C   UNL     1       2.686  -4.666  -7.184  0.00  0.00    +0.000 A 
ATOM     32  C   UNL     1       1.990  -3.499  -6.929  0.00  0.00    +0.000 A 
ATOM     33  C   UNL     1       2.672  -2.308  -6.764  0.00  0.00    +0.005 A 
ENDBRANCH  27  28
ENDBRANCH  20  27
TORSDOF 3
