REMARK  Name = ZINC40729304
REMARK  5 active torsions:
REMARK  status: ('A' for Active; 'I' for Inactive)
REMARK    1  A    between atoms: C_4  and  C_7
REMARK    2  A    between atoms: C_7  and  C_8
REMARK    3  A    between atoms: C_15  and  N_28
REMARK    4  A    between atoms: C_16  and  N_20
REMARK    5  A    between atoms: N_20  and  C_21
REMARK                            x       y       z     vdW  Elec       q    Type
REMARK                         _______ _______ _______ _____ _____    ______ ____
ROOT
ATOM      1  C   UNL     1       3.829  -1.014   1.514  0.00  0.00    -0.004 C 
ATOM      2  C   UNL     1       2.855  -1.844   2.353  0.00  0.00    +0.023 C 
ATOM      3  C   UNL     1       3.442  -2.052   3.753  0.00  0.00    +0.107 C 
ATOM      4  N   UNL     1       4.781  -2.643   3.621  0.00  0.00    -0.314 N 
ATOM      5  C   UNL     1       5.768  -1.973   2.764  0.00  0.00    +0.107 C 
ATOM      6  C   UNL     1       5.154  -1.765   1.375  0.00  0.00    +0.023 C 
ATOM      7  C   UNL     1       5.107  -3.814   4.295  0.00  0.00    +0.147 A 
ATOM      8  C   UNL     1       5.721  -3.763   5.548  0.00  0.00    +0.106 A 
ATOM      9  C   UNL     1       6.027  -4.968   6.182  0.00  0.00    +0.149 A 
ATOM     10  N   UNL     1       5.725  -6.112   5.572  0.00  0.00    -0.219 NA
ATOM     11  C   UNL     1       5.146  -6.116   4.388  0.00  0.00    +0.225 A 
ATOM     12  N   UNL     1       4.836  -5.001   3.758  0.00  0.00    -0.219 NA
ENDROOT
BRANCH   8  13
ATOM     13  N   UNL     1       6.021  -2.532   6.155  0.00  0.00    -0.353 N 
ATOM     14  H   UNL     1       5.721  -1.705   5.747  0.00  0.00    +0.143 HD
ATOM     15  H   UNL     1       6.529  -2.510   6.981  0.00  0.00    +0.143 HD
ENDBRANCH   8  13
BRANCH   9  16
ATOM     16  N   UNL     1       6.638  -4.974   7.431  0.00  0.00    -0.298 N 
ATOM     17  H   UNL     1       6.786  -4.139   7.903  0.00  0.00    +0.154 HD
BRANCH  16  18
ATOM     18  C   UNL     1       7.041  -6.183   8.006  0.00  0.00    +0.032 A 
ATOM     19  C   UNL     1       7.006  -6.342   9.386  0.00  0.00    +0.025 A 
ATOM     20  C   UNL     1       7.404  -7.538   9.952  0.00  0.00    +0.022 A 
ATOM     21  C   UNL     1       7.837  -8.576   9.146  0.00  0.00    +0.041 A 
ATOM     22  C   UNL     1       7.873  -8.420   7.771  0.00  0.00    +0.022 A 
ATOM     23  C   UNL     1       7.470  -7.229   7.199  0.00  0.00    +0.025 A 
ATOM     24 CL   UNL     1       8.336 -10.077   9.860  0.00  0.00    -0.084 Cl
ENDBRANCH  16  18
ENDBRANCH   9  16
BRANCH   1  25
ATOM     25  C   UNL     1       3.230  -0.774   0.127  0.00  0.00    +0.038 C 
BRANCH  25  29
ATOM     26  C   UNL     1      -0.287   1.622   0.484  0.00  0.00    +0.000 A 
ATOM     27  C   UNL     1       0.945   2.225   0.312  0.00  0.00    +0.000 A 
ATOM     28  C   UNL     1       2.083   1.449   0.197  0.00  0.00    +0.003 A 
ATOM     29  C   UNL     1       1.989   0.071   0.254  0.00  0.00    -0.047 A 
ATOM     30  C   UNL     1       0.757  -0.531   0.426  0.00  0.00    +0.003 A 
ATOM     31  C   UNL     1      -0.381   0.244   0.541  0.00  0.00    +0.000 A 
ENDBRANCH  25  29
ENDBRANCH   1  25
TORSDOF 5
