REMARK  Name = ZINC63374725
REMARK  6 active torsions:
REMARK  status: ('A' for Active; 'I' for Inactive)
REMARK    1  A    between atoms: C_1  and  C_2
REMARK    2  A    between atoms: C_5  and  C_35
REMARK    3  A    between atoms: C_6  and  N_8
REMARK    4  A    between atoms: C_11  and  C_18
REMARK    5  A    between atoms: C_25  and  O_30
REMARK    6  A    between atoms: O_30  and  C_31
REMARK                            x       y       z     vdW  Elec       q    Type
REMARK                         _______ _______ _______ _____ _____    ______ ____
ROOT
ATOM      1  N   UNL     1      -1.139  -3.920   4.123  0.00  0.00    -0.228 N 
ATOM      2  C   UNL     1       0.016  -4.259   4.728  0.00  0.00    +0.270 A 
ATOM      3  O   UNL     1       0.003  -4.936   5.742  0.00  0.00    -0.267 OA
ATOM      4  C   UNL     1       1.238  -3.828   4.181  0.00  0.00    +0.101 A 
ATOM      5  C   UNL     1       1.226  -3.073   3.046  0.00  0.00    +0.263 A 
ATOM      6  N   UNL     1       0.027  -2.750   2.462  0.00  0.00    -0.274 N 
ATOM      7  H   UNL     1       0.013  -2.213   1.655  0.00  0.00    +0.173 HD
ATOM      8  C   UNL     1      -1.130  -3.178   3.000  0.00  0.00    +0.337 A 
ATOM      9  O   UNL     1      -2.183  -2.886   2.466  0.00  0.00    -0.246 OA
ATOM     10  O   UNL     1       2.385  -2.646   2.501  0.00  0.00    -0.267 OA
ENDROOT
BRANCH   4  11
ATOM     11  C   UNL     1       2.542  -4.196   4.840  0.00  0.00    +0.121 C 
ATOM     12  C   UNL     1       3.339  -2.926   5.150  0.00  0.00    +0.128 C 
ATOM     13  C   UNL     1       3.714  -2.319   3.803  0.00  0.00    -0.035 C 
ATOM     14  C   UNL     1       3.286  -1.065   3.824  0.00  0.00    +0.003 A 
ATOM     15  C   UNL     1       3.424   0.039   2.863  0.00  0.00    +0.055 A 
ATOM     16  C   UNL     1       2.837   1.220   3.200  0.00  0.00    +0.121 A 
ATOM     17  C   UNL     1       2.124   1.430   4.389  0.00  0.00    +0.047 A 
ATOM     18  C   UNL     1       1.941   0.485   5.346  0.00  0.00    +0.029 A 
ATOM     19  C   UNL     1       2.535  -0.835   5.098  0.00  0.00    +0.043 A 
ATOM     20  N   UNL     1       2.542  -1.918   5.848  0.00  0.00    -0.376 N 
ATOM     21  C   UNL     1       4.356  -3.145   2.714  0.00  0.00    +0.048 C 
ATOM     22  C   UNL     1       3.521  -4.434   2.604  0.00  0.00    +0.086 C 
ATOM     23  N   UNL     1       3.340  -5.033   3.930  0.00  0.00    -0.307 NA
ATOM     24  H   UNL     1       4.228  -5.272   4.344  0.00  0.00    +0.123 HD
ATOM     25  H   UNL     1       2.099  -2.037   6.703  0.00  0.00    +0.160 HD
BRANCH  16  26
ATOM     26  O   UNL     1       2.949   2.259   2.330  0.00  0.00    -0.495 OA
ATOM     27  C   UNL     1       2.324   3.489   2.705  0.00  0.00    +0.277 C 
ENDBRANCH  16  26
ENDBRANCH   4  11
BRANCH   1  33
ATOM     28  C   UNL     1      -4.707  -7.295   4.380  0.00  0.00    +0.044 C 
ATOM     29  C   UNL     1      -4.111  -5.978   4.806  0.00  0.00    -0.048 A 
ATOM     30  C   UNL     1      -4.768  -5.189   5.733  0.00  0.00    +0.004 A 
ATOM     31  C   UNL     1      -4.225  -3.980   6.126  0.00  0.00    +0.005 A 
ATOM     32  C   UNL     1      -3.022  -3.557   5.594  0.00  0.00    -0.026 A 
ATOM     33  C   UNL     1      -2.359  -4.346   4.664  0.00  0.00    +0.058 A 
ATOM     34  C   UNL     1      -2.905  -5.563   4.276  0.00  0.00    +0.030 A 
ATOM     35  C   UNL     1      -2.430  -2.239   6.022  0.00  0.00    +0.046 C 
ENDBRANCH   1  33
TORSDOF 3
