REMARK  Name = ZINC14457000
REMARK  6 active torsions:
REMARK  status: ('A' for Active; 'I' for Inactive)
REMARK    1  A    between atoms: C_1  and  O_2
REMARK    2  A    between atoms: O_2  and  C_3
REMARK    3  A    between atoms: C_6  and  C_10
REMARK    4  A    between atoms: C_8  and  O_9
REMARK    5  A    between atoms: C_21  and  O_26
REMARK    6  A    between atoms: O_26  and  C_27
REMARK                            x       y       z     vdW  Elec       q    Type
REMARK                         _______ _______ _______ _____ _____    ______ ____
ROOT
ATOM      1  C   UNL     1       8.057   3.943  -0.394  0.00  0.00    +0.105 C 
ATOM      2  C   UNL     1       8.333   2.587   0.263  0.00  0.00    +0.029 C 
ATOM      3  C   UNL     1       9.495   1.918  -0.528  0.00  0.00    +0.033 C 
ATOM      4  C   UNL     1       8.795   1.295  -1.720  0.00  0.00    -0.030 C 
ATOM      5  C   UNL     1       7.522   1.117  -1.463  0.00  0.00    -0.023 C 
ATOM      6  C   UNL     1       7.198   1.601  -0.070  0.00  0.00    +0.049 C 
ATOM      7  C   UNL     1       5.841   2.229  -0.012  0.00  0.00    -0.016 A 
ATOM      8  C   UNL     1       4.725   1.404  -0.039  0.00  0.00    +0.052 A 
ATOM      9  C   UNL     1       3.451   1.944   0.013  0.00  0.00    +0.129 A 
ATOM     10  C   UNL     1       3.279   3.319   0.088  0.00  0.00    +0.048 A 
ATOM     11  C   UNL     1       4.385   4.144   0.121  0.00  0.00    +0.027 A 
ATOM     12  C   UNL     1       5.662   3.601   0.069  0.00  0.00    +0.032 A 
ATOM     13  N   UNL     1       6.773   4.455   0.095  0.00  0.00    -0.336 N 
ATOM     14  H   UNL     1       6.694   5.362   0.429  0.00  0.00    +0.147 HD
ENDROOT
BRANCH   1  18
ATOM     15  C   UNL     1       7.881   3.467  -4.640  0.00  0.00    +0.161 A 
ATOM     16  C   UNL     1       6.786   3.138  -3.857  0.00  0.00    +0.050 A 
ATOM     17  C   UNL     1       6.846   3.293  -2.484  0.00  0.00    +0.009 A 
ATOM     18  C   UNL     1       7.997   3.776  -1.890  0.00  0.00    -0.023 A 
ATOM     19  C   UNL     1       9.091   4.111  -2.666  0.00  0.00    +0.054 A 
ATOM     20  C   UNL     1       9.039   3.953  -4.042  0.00  0.00    +0.159 A 
BRANCH  15  22
ATOM     21  C   UNL     1       6.603   2.809  -6.535  0.00  0.00    +0.277 C 
ATOM     22  O   UNL     1       7.823   3.314  -5.990  0.00  0.00    -0.491 OA
ENDBRANCH  15  22
BRANCH  20  23
ATOM     23  O   UNL     1      10.116   4.278  -4.806  0.00  0.00    -0.503 OA
ATOM     24  H   UNL     1      10.122   5.197  -5.107  0.00  0.00    +0.292 HD
ENDBRANCH  20  23
ENDBRANCH   1  18
BRANCH   9  25
ATOM     25  O   UNL     1       2.366   1.125  -0.015  0.00  0.00    -0.456 OA
BRANCH  25  26
ATOM     26  C   UNL     1       1.877   0.674   1.170  0.00  0.00    +0.128 A 
ATOM     27  C   UNL     1       0.778  -0.174   1.191  0.00  0.00    +0.046 A 
ATOM     28  C   UNL     1       0.279  -0.626   2.397  0.00  0.00    +0.004 A 
ATOM     29  C   UNL     1       0.880  -0.243   3.582  0.00  0.00    +0.000 A 
ATOM     30  C   UNL     1       1.975   0.601   3.564  0.00  0.00    +0.004 A 
ATOM     31  C   UNL     1       2.474   1.060   2.361  0.00  0.00    +0.046 A 
ENDBRANCH  25  26
ENDBRANCH   9  25
TORSDOF 5
