REMARK  Name = ZINC33086906
REMARK  4 active torsions:
REMARK  status: ('A' for Active; 'I' for Inactive)
REMARK    1  A    between atoms: C_1  and  C_2
REMARK    2  A    between atoms: C_4  and  C_7
REMARK    3  A    between atoms: N_12  and  S_13
REMARK    4  A    between atoms: S_13  and  C_16
REMARK                            x       y       z     vdW  Elec       q    Type
REMARK                         _______ _______ _______ _____ _____    ______ ____
ROOT
ATOM      1  S   UNL     1      -2.699   0.844   5.480  0.00  0.00    +0.061 S 
ATOM      2  O   UNL     1      -3.447   0.448   6.621  0.00  0.00    -0.153 OA
ATOM      3  O   UNL     1      -2.498  -0.013   4.365  0.00  0.00    -0.153 OA
ENDROOT
BRANCH   1   4
ATOM      4  C   UNL     1      -1.099   1.299   6.060  0.00  0.00    +0.106 A 
ATOM      5  C   UNL     1      -0.913   1.643   7.386  0.00  0.00    +0.029 A 
ATOM      6  C   UNL     1       0.342   2.000   7.832  0.00  0.00    +0.006 A 
ATOM      7  C   UNL     1       1.423   2.018   6.960  0.00  0.00    -0.044 A 
ATOM      8  C   UNL     1       1.239   1.671   5.640  0.00  0.00    -0.042 A 
ATOM      9  C   UNL     1      -0.025   1.308   5.194  0.00  0.00    +0.032 A 
ATOM     10  C   UNL     1       2.366   1.659   4.641  0.00  0.00    +0.035 C 
ATOM     11  C   UNL     1       3.550   2.475   5.157  0.00  0.00    +0.005 C 
ATOM     12  C   UNL     1       3.887   1.995   6.574  0.00  0.00    +0.005 C 
ATOM     13  C   UNL     1       2.762   2.433   7.510  0.00  0.00    +0.035 C 
ENDBRANCH   1   4
BRANCH   1  18
ATOM     14  C   UNL     1      -4.355   3.079   5.641  0.00  0.00    +0.148 C 
ATOM     15  C   UNL     1      -5.182   3.801   4.548  0.00  0.00    +0.030 C 
ATOM     16  C   UNL     1      -4.109   4.042   3.454  0.00  0.00    +0.019 C 
ATOM     17  C   UNL     1      -3.224   2.782   3.553  0.00  0.00    +0.110 C 
ATOM     18  N   UNL     1      -3.417   2.218   4.897  0.00  0.00    -0.166 NA
BRANCH  14  22
ATOM     19  C   UNL     1      -7.135   1.193   9.465  0.00  0.00    +0.069 C 
ATOM     20  C   UNL     1      -6.452   1.419   8.141  0.00  0.00    +0.081 A 
ATOM     21  C   UNL     1      -5.611   2.501   7.795  0.00  0.00    +0.072 A 
ATOM     22  C   UNL     1      -5.255   2.243   6.513  0.00  0.00    +0.156 A 
ATOM     23  O   UNL     1      -5.866   1.099   6.173  0.00  0.00    -0.358 OA
ATOM     24  N   UNL     1      -6.524   0.658   7.087  0.00  0.00    -0.083 NA
ENDBRANCH  14  22
ENDBRANCH   1  18
TORSDOF 3
