REMARK  Name = ZINC53649617
REMARK  8 active torsions:
REMARK  status: ('A' for Active; 'I' for Inactive)
REMARK    1  A    between atoms: C_1  and  C_2
REMARK    2  A    between atoms: C_2  and  C_3
REMARK    3  A    between atoms: C_2  and  C_4
REMARK    4  A    between atoms: C_2  and  N_5
REMARK    5  A    between atoms: N_5  and  C_6
REMARK    6  A    between atoms: C_6  and  C_7
REMARK    7  A    between atoms: N_12  and  C_13
REMARK    8  A    between atoms: C_13  and  C_14
REMARK                            x       y       z     vdW  Elec       q    Type
REMARK                         _______ _______ _______ _____ _____    ______ ____
ROOT
ATOM      1  C   UNL     1       2.784  -0.463  -2.476  0.00  0.00    +0.040 C 
ATOM      2  C   UNL     1       4.277  -0.077  -2.416  0.00  0.00    +0.018 C 
ATOM      3  C   UNL     1       4.950  -1.370  -1.884  0.00  0.00    +0.017 C 
ATOM      4  C   UNL     1       4.093  -2.470  -2.559  0.00  0.00    +0.085 C 
ATOM      5  N   UNL     1       2.712  -1.933  -2.550  0.00  0.00    -0.297 NA
ENDROOT
BRANCH   1   6
ATOM      6  C   UNL     1       2.068   0.031  -1.217  0.00  0.00    -0.063 C 
BRANCH   6   7
ATOM      7  N   UNL     1       0.690  -0.478  -1.207  0.00  0.00    +0.383 N 
ATOM      8  H   UNL     1       0.703  -1.487  -1.212  0.00  0.00    -0.085 HD
ATOM      9  H   UNL     1       0.202  -0.144  -2.024  0.00  0.00    -0.085 HD
BRANCH   7  11
ATOM     10  C   UNL     1      -0.019   1.526   0.010  0.00  0.00    -0.011 C 
ATOM     11  C   UNL     1       0.002  -0.004   0.002  0.00  0.00    -0.077 C 
ATOM     12  C   UNL     1       0.742  -0.511   1.242  0.00  0.00    -0.011 C 
ATOM     13  C   UNL     1      -1.433  -0.534   0.013  0.00  0.00    -0.011 C 
ENDBRANCH   7  11
ENDBRANCH   6   7
ENDBRANCH   1   6
BRANCH   5  14
ATOM     14  C   UNL     1       1.968  -2.365  -3.742  0.00  0.00    +0.127 C 
BRANCH  14  15
ATOM     15  C   UNL     1       1.702  -3.846  -3.659  0.00  0.00    +0.005 A 
ATOM     16  C   UNL     1       0.641  -4.494  -3.120  0.00  0.00    +0.013 A 
ATOM     17  C   UNL     1       0.609  -5.875  -3.158  0.00  0.00    +0.023 A 
ATOM     18  C   UNL     1       1.641  -6.541  -3.734  0.00  0.00    +0.055 A 
ATOM     19  S   UNL     1       2.700  -5.202  -4.254  0.00  0.00    -0.085 S 
ATOM     20 BR   UNL     1       1.889  -8.404  -3.940  0.00  0.00    -0.043 Br
ENDBRANCH  14  15
ENDBRANCH   5  14
TORSDOF 5
