REMARK  Name = ZINC08709175
REMARK  4 active torsions:
REMARK  status: ('A' for Active; 'I' for Inactive)
REMARK    1  A    between atoms: C_4  and  C_7
REMARK    2  A    between atoms: C_10  and  C_12
REMARK    3  A    between atoms: C_12  and  S_13
REMARK    4  A    between atoms: S_13  and  C_14
REMARK                            x       y       z     vdW  Elec       q    Type
REMARK                         _______ _______ _______ _____ _____    ______ ____
ROOT
ATOM      1  S   UNL     1       5.748   0.521  -0.050  0.00  0.00    -0.076 S 
ENDROOT
BRANCH   1   2
ATOM      2  C   UNL     1       4.924   2.078  -0.034  0.00  0.00    +0.197 A 
ATOM      3  N   UNL     1       5.506   3.248  -0.033  0.00  0.00    -0.121 NA
ATOM      4  N   UNL     1       4.506   4.230  -0.018  0.00  0.00    -0.121 NA
ATOM      5  C   UNL     1       3.358   3.620  -0.010  0.00  0.00    +0.202 A 
ATOM      6  N   UNL     1       3.550   2.264  -0.019  0.00  0.00    -0.264 N 
ATOM      7  C   UNL     1       2.416   1.437  -0.013  0.00  0.00    +0.065 A 
ATOM      8  C   UNL     1       2.406   0.033  -0.021  0.00  0.00    +0.027 A 
ATOM      9  C   UNL     1       1.220  -0.662  -0.013  0.00  0.00    +0.002 A 
ATOM     10  C   UNL     1       0.002  -0.004   0.002  0.00  0.00    +0.001 A 
ATOM     11  C   UNL     1      -0.017   1.380   0.010  0.00  0.00    +0.017 A 
ATOM     12  C   UNL     1       1.171   2.074   0.002  0.00  0.00    +0.040 A 
ATOM     13  S   UNL     1       1.591   3.800   0.008  0.00  0.00    -0.048 S 
ENDBRANCH   1   2
BRANCH   1  14
ATOM     14  C   UNL     1       7.509   0.957  -0.065  0.00  0.00    +0.173 C 
BRANCH  14  18
ATOM     15  C   UNL     1       9.480  -2.030   0.578  0.00  0.00    +0.155 A 
ATOM     16  C   UNL     1       9.454  -2.004  -0.779  0.00  0.00    +0.161 A 
ATOM     17  N   UNL     1       8.739  -0.931  -1.149  0.00  0.00    -0.220 NA
ATOM     18  C   UNL     1       8.338  -0.302  -0.080  0.00  0.00    +0.206 A 
ATOM     19  O   UNL     1       8.777  -0.957   1.003  0.00  0.00    -0.439 OA
BRANCH  15  23
ATOM     20  C   UNL     1      11.402  -4.926   3.019  0.00  0.00    +0.000 A 
ATOM     21  C   UNL     1      10.717  -3.877   3.605  0.00  0.00    +0.001 A 
ATOM     22  C   UNL     1      10.090  -2.933   2.818  0.00  0.00    +0.011 A 
ATOM     23  C   UNL     1      10.149  -3.038   1.427  0.00  0.00    +0.019 A 
ATOM     24  C   UNL     1      10.838  -4.101   0.843  0.00  0.00    +0.011 A 
ATOM     25  C   UNL     1      11.465  -5.035   1.641  0.00  0.00    +0.001 A 
ENDBRANCH  15  23
ENDBRANCH  14  18
ENDBRANCH   1  14
TORSDOF 4
