REMARK  Name = ZINC35508832
REMARK  3 active torsions:
REMARK  status: ('A' for Active; 'I' for Inactive)
REMARK    1  A    between atoms: C_1  and  C_2
REMARK    2  A    between atoms: C_8  and  N_11
REMARK    3  A    between atoms: N_11  and  C_12
REMARK                            x       y       z     vdW  Elec       q    Type
REMARK                         _______ _______ _______ _____ _____    ______ ____
ROOT
ATOM      1  C   UNL     1       0.782   1.514   0.131  0.00  0.00    +0.090 C 
ATOM      2  C   UNL     1       0.565   0.024   0.086  0.00  0.00    +0.151 A 
ATOM      3  N   UNL     1       0.464  -0.701  -1.022  0.00  0.00    -0.194 NA
ATOM      4  C   UNL     1       0.276  -1.978  -0.707  0.00  0.00    +0.255 A 
ATOM      5  N   UNL     1       0.116  -3.078  -1.448  0.00  0.00    -0.215 NA
ATOM      6  C   UNL     1      -0.059  -4.269  -0.898  0.00  0.00    +0.052 A 
ATOM      7  C   UNL     1      -0.077  -4.398   0.482  0.00  0.00    +0.014 A 
ATOM      8  C   UNL     1       0.083  -3.266   1.266  0.00  0.00    +0.133 A 
ATOM      9  N   UNL     1       0.259  -2.058   0.657  0.00  0.00    -0.182 N 
ATOM     10  N   UNL     1       0.452  -0.755   1.133  0.00  0.00    -0.147 NA
ATOM     11  C   UNL     1      -0.258  -5.722   1.174  0.00  0.00    +0.040 C 
ATOM     12  C   UNL     1      -0.839  -6.754   0.208  0.00  0.00    +0.005 C 
ATOM     13  C   UNL     1       0.011  -6.756  -1.068  0.00  0.00    +0.006 C 
ATOM     14  C   UNL     1      -0.238  -5.449  -1.818  0.00  0.00    +0.056 C 
ENDROOT
BRANCH   8  15
ATOM     15  N   UNL     1       0.064  -3.359   2.640  0.00  0.00    -0.299 N 
ATOM     16  H   UNL     1       0.699  -3.933   3.097  0.00  0.00    +0.154 HD
BRANCH  15  17
ATOM     17  C   UNL     1      -0.872  -2.626   3.378  0.00  0.00    +0.034 A 
ATOM     18  C   UNL     1      -1.877  -1.924   2.725  0.00  0.00    +0.026 A 
ATOM     19  C   UNL     1      -2.800  -1.201   3.455  0.00  0.00    +0.041 A 
ATOM     20  C   UNL     1      -2.725  -1.175   4.837  0.00  0.00    +0.142 A 
ATOM     21  C   UNL     1      -1.723  -1.874   5.491  0.00  0.00    +0.078 A 
ATOM     22  C   UNL     1      -0.801  -2.604   4.765  0.00  0.00    +0.046 A 
ATOM     23 CL   UNL     1      -1.630  -1.839   7.225  0.00  0.00    -0.081 Cl
ATOM     24  F   UNL     1      -3.629  -0.467   5.549  0.00  0.00    -0.204 F 
ENDBRANCH  15  17
ENDBRANCH   8  15
TORSDOF 2
