REMARK  Name = ZINC27251564
REMARK  11 active torsions:
REMARK  status: ('A' for Active; 'I' for Inactive)
REMARK    1  A    between atoms: C_1  and  C_2
REMARK    2  A    between atoms: C_2  and  C_3
REMARK    3  A    between atoms: C_3  and  C_4
REMARK    4  A    between atoms: C_3  and  C_13
REMARK    5  A    between atoms: C_3  and  O_29
REMARK    6  A    between atoms: C_7  and  O_10
REMARK    7  A    between atoms: O_10  and  C_11
REMARK    8  A    between atoms: C_11  and  C_12
REMARK    9  A    between atoms: C_13  and  C_15
REMARK   10  A    between atoms: C_13  and  C_22
REMARK   11  A    between atoms: C_15  and  N_16
REMARK                            x       y       z     vdW  Elec       q    Type
REMARK                         _______ _______ _______ _____ _____    ______ ____
ROOT
ATOM      1  C   UNL     1      -0.050   1.591  -1.054  0.00  0.00    +0.039 C 
ENDROOT
BRANCH   1   2
ATOM      2  C   UNL     1       0.149   3.084  -1.102  0.00  0.00    -0.043 A 
ATOM      3  C   UNL     1       1.360   3.606  -1.517  0.00  0.00    +0.007 A 
ATOM      4  C   UNL     1       1.542   4.975  -1.566  0.00  0.00    +0.038 A 
ATOM      5  C   UNL     1       0.515   5.824  -1.188  0.00  0.00    +0.123 A 
ATOM      6  C   UNL     1      -0.695   5.300  -0.767  0.00  0.00    +0.038 A 
ATOM      7  C   UNL     1      -0.877   3.930  -0.725  0.00  0.00    +0.007 A 
ATOM      8  F   UNL     1       0.695   7.162  -1.230  0.00  0.00    -0.205 F 
ENDBRANCH   1   2
BRANCH   1   9
ATOM      9  C   UNL     1      -0.016   1.026  -2.476  0.00  0.00    +0.096 C 
BRANCH   9  10
ATOM     10  C   UNL     1      -0.291  -0.454  -2.435  0.00  0.00    -0.015 A 
ATOM     11  C   UNL     1      -1.458  -0.924  -1.861  0.00  0.00    +0.010 A 
ATOM     12  C   UNL     1      -1.716  -2.280  -1.828  0.00  0.00    +0.046 A 
ATOM     13  C   UNL     1      -0.797  -3.173  -2.360  0.00  0.00    +0.121 A 
ATOM     14  C   UNL     1       0.376  -2.700  -2.930  0.00  0.00    +0.046 A 
ATOM     15  C   UNL     1       0.626  -1.342  -2.967  0.00  0.00    +0.010 A 
BRANCH  13  16
ATOM     16  O   UNL     1      -1.046  -4.509  -2.323  0.00  0.00    -0.492 OA
BRANCH  16  17
ATOM     17  C   UNL     1      -2.273  -4.924  -1.720  0.00  0.00    +0.225 C 
ATOM     18  C   UNL     1      -2.376  -6.449  -1.771  0.00  0.00    +0.048 C 
ENDBRANCH  16  17
ENDBRANCH  13  16
ENDBRANCH   9  10
BRANCH   9  20
ATOM     19  C   UNL     1      -1.030   1.174  -4.755  0.00  0.00    +0.007 C 
ATOM     20  C   UNL     1      -1.081   1.721  -3.327  0.00  0.00    +0.037 C 
ENDBRANCH   9  20
BRANCH   9  21
ATOM     21  O   UNL     1       1.274   1.255  -3.048  0.00  0.00    -0.383 OA
ATOM     22  H   UNL     1       2.170   0.831  -2.572  0.00  0.00    +0.211 HD
ENDBRANCH   9  21
ENDBRANCH   1   9
BRANCH   1  23
ATOM     23  C   UNL     1       1.066   0.953  -0.225  0.00  0.00    -0.068 C 
BRANCH  23  24
ATOM     24  N   UNL     1       0.980   1.430   1.161  0.00  0.00    +0.380 N 
ATOM     25  C   UNL     1       2.249   1.224   1.869  0.00  0.00    -0.079 C 
ATOM     26  C   UNL     1       2.170   1.861   3.259  0.00  0.00    -0.019 C 
ATOM     27  C   UNL     1       1.018   1.225   4.042  0.00  0.00    -0.004 C 
ATOM     28  C   UNL     1      -0.285   1.413   3.260  0.00  0.00    -0.019 C 
ATOM     29  C   UNL     1      -0.134   0.788   1.871  0.00  0.00    -0.079 C 
ATOM     30  H   UNL     1       0.782   2.512   1.137  0.00  0.00    -0.082 HD
ENDBRANCH  23  24
ENDBRANCH   1  23
TORSDOF 9
