REMARK  Name = ZINC05944654
REMARK  10 active torsions:
REMARK  status: ('A' for Active; 'I' for Inactive)
REMARK    1  A    between atoms: C_1  and  C_2
REMARK    2  A    between atoms: C_2  and  C_3
REMARK    3  A    between atoms: C_2  and  C_4
REMARK    4  A    between atoms: C_4  and  O_5
REMARK    5  A    between atoms: O_5  and  C_6
REMARK    6  A    between atoms: C_9  and  C_12
REMARK    7  A    between atoms: N_14  and  C_15
REMARK    8  A    between atoms: C_15  and  N_17
REMARK    9  A    between atoms: N_17  and  C_18
REMARK   10  A    between atoms: C_23  and  C_24
REMARK                            x       y       z     vdW  Elec       q    Type
REMARK                         _______ _______ _______ _____ _____    ______ ____
ROOT
ATOM      1  C   UNL     1       2.771  -4.058   0.103  0.00  0.00    +0.141 C 
ATOM      2  S   UNL     1       1.317  -4.781  -0.440  0.00  0.00    -0.018 S 
ENDROOT
BRANCH   1   5
ATOM      3  C   UNL     1       1.740  -1.963   0.075  0.00  0.00    +0.250 C 
ATOM      4  O   UNL     1       0.708  -2.477  -0.310  0.00  0.00    -0.270 OA
ATOM      5  N   UNL     1       2.828  -2.726   0.302  0.00  0.00    -0.264 N 
ATOM      6  H   UNL     1       3.652  -2.316   0.609  0.00  0.00    +0.157 HD
BRANCH   3  10
ATOM      7  C   UNL     1       1.919   2.232   0.705  0.00  0.00    +0.121 A 
ATOM      8  C   UNL     1       0.737   1.647   0.264  0.00  0.00    +0.046 A 
ATOM      9  C   UNL     1       0.675   0.287   0.058  0.00  0.00    +0.016 A 
ATOM     10  C   UNL     1       1.802  -0.506   0.293  0.00  0.00    +0.037 A 
ATOM     11  C   UNL     1       2.988   0.086   0.736  0.00  0.00    +0.016 A 
ATOM     12  C   UNL     1       3.042   1.447   0.939  0.00  0.00    +0.046 A 
BRANCH   7  13
ATOM     13  O   UNL     1       1.976   3.573   0.905  0.00  0.00    -0.492 OA
BRANCH  13  14
ATOM     14  C   UNL     1       3.221   4.108   1.359  0.00  0.00    +0.232 C 
BRANCH  14  16
ATOM     15  C   UNL     1       2.091   5.930   2.642  0.00  0.00    +0.010 C 
ATOM     16  C   UNL     1       3.093   5.624   1.527  0.00  0.00    +0.020 C 
ATOM     17  C   UNL     1       4.457   6.213   1.892  0.00  0.00    +0.010 C 
ENDBRANCH  14  16
ENDBRANCH  13  14
ENDBRANCH   7  13
ENDBRANCH   3  10
ENDBRANCH   1   5
BRANCH   1  18
ATOM     18  N   UNL     1       3.859  -4.820   0.330  0.00  0.00    -0.296 N 
ATOM     19  H   UNL     1       4.704  -4.403   0.560  0.00  0.00    +0.154 HD
BRANCH  18  20
ATOM     20  C   UNL     1       3.769  -6.209   0.234  0.00  0.00    +0.042 A 
ATOM     21  C   UNL     1       2.722  -6.884   0.845  0.00  0.00    +0.024 A 
ATOM     22  C   UNL     1       2.635  -8.259   0.749  0.00  0.00    +0.002 A 
ATOM     23  C   UNL     1       3.590  -8.973   0.046  0.00  0.00    +0.001 A 
ATOM     24  C   UNL     1       4.638  -8.318  -0.568  0.00  0.00    +0.012 A 
ATOM     25  C   UNL     1       4.734  -6.929  -0.484  0.00  0.00    +0.028 A 
BRANCH  25  26
ATOM     26  C   UNL     1       5.851  -6.221  -1.143  0.00  0.00    +0.111 A 
ATOM     27  N   UNL     1       6.894  -6.725  -1.767  0.00  0.00    -0.239 NA
ATOM     28  C   UNL     1       7.845  -5.952  -2.328  0.00  0.00    +0.079 A 
ATOM     29  C   UNL     1       9.008  -6.363  -3.022  0.00  0.00    +0.029 A 
ATOM     30  C   UNL     1       9.874  -5.448  -3.533  0.00  0.00    +0.002 A 
ATOM     31  C   UNL     1       9.658  -4.084  -3.396  0.00  0.00    +0.001 A 
ATOM     32  C   UNL     1       8.534  -3.640  -2.724  0.00  0.00    +0.017 A 
ATOM     33  C   UNL     1       7.652  -4.556  -2.205  0.00  0.00    +0.040 A 
ATOM     34  S   UNL     1       6.124  -4.462  -1.304  0.00  0.00    -0.067 S 
ENDBRANCH  25  26
ENDBRANCH  18  20
ENDBRANCH   1  18
TORSDOF 8
