REMARK  Name = ZINC36524458
REMARK  14 active torsions:
REMARK  status: ('A' for Active; 'I' for Inactive)
REMARK    1  A    between atoms: C_1  and  C_2
REMARK    2  A    between atoms: C_5  and  C_8
REMARK    3  A    between atoms: C_8  and  C_10
REMARK    4  A    between atoms: C_8  and  N_21
REMARK    5  A    between atoms: N_12  and  C_13
REMARK    6  A    between atoms: C_13  and  C_14
REMARK    7  A    between atoms: C_13  and  C_15
REMARK    8  A    between atoms: C_13  and  C_16
REMARK    9  A    between atoms: C_16  and  C_17
REMARK   10  A    between atoms: C_17  and  C_18
REMARK   11  A    between atoms: C_17  and  C_19
REMARK   12  A    between atoms: C_17  and  C_20
REMARK   13  A    between atoms: N_21  and  C_22
REMARK   14  A    between atoms: C_23  and  C_25
REMARK                            x       y       z     vdW  Elec       q    Type
REMARK                         _______ _______ _______ _____ _____    ______ ____
ROOT
ATOM      1  C   UNL     1       0.947  -4.364  -1.160  0.00  0.00    +0.192 C 
ENDROOT
BRANCH   1   6
ATOM      2  C   UNL     1      -0.721  -0.406  -5.027  0.00  0.00    +0.044 C 
ATOM      3  C   UNL     1      -0.286  -1.438  -4.018  0.00  0.00    -0.050 A 
ATOM      4  C   UNL     1       0.236  -2.645  -4.445  0.00  0.00    +0.004 A 
ATOM      5  C   UNL     1       0.635  -3.592  -3.521  0.00  0.00    +0.006 A 
ATOM      6  C   UNL     1       0.513  -3.332  -2.168  0.00  0.00    -0.018 A 
ATOM      7  C   UNL     1      -0.008  -2.124  -1.741  0.00  0.00    +0.006 A 
ATOM      8  C   UNL     1      -0.403  -1.176  -2.666  0.00  0.00    +0.004 A 
ENDBRANCH   1   6
BRANCH   1   9
ATOM      9  C   UNL     1       2.101  -3.826  -0.355  0.00  0.00    +0.238 C 
ATOM     10  O   UNL     1       2.001  -3.711   0.848  0.00  0.00    -0.273 OA
ATOM     11  N   UNL     1       3.246  -3.472  -0.973  0.00  0.00    -0.308 N 
ATOM     12  H   UNL     1       3.327  -3.564  -1.935  0.00  0.00    +0.149 HD
BRANCH  11  13
ATOM     13  C   UNL     1       4.369  -2.949  -0.190  0.00  0.00    +0.030 C 
ATOM     14  C   UNL     1       4.031  -1.542   0.309  0.00  0.00    +0.031 C 
ATOM     15  C   UNL     1       4.628  -3.866   1.007  0.00  0.00    +0.031 C 
BRANCH  13  16
ATOM     16  C   UNL     1       5.620  -2.892  -1.069  0.00  0.00    +0.031 C 
BRANCH  16  17
ATOM     17  C   UNL     1       5.505  -3.929  -2.188  0.00  0.00    -0.036 C 
ATOM     18  C   UNL     1       4.555  -3.410  -3.269  0.00  0.00    +0.010 C 
ATOM     19  C   UNL     1       6.886  -4.175  -2.799  0.00  0.00    +0.010 C 
ATOM     20  C   UNL     1       4.960  -5.239  -1.615  0.00  0.00    +0.010 C 
ENDBRANCH  16  17
ENDBRANCH  13  16
ENDBRANCH  11  13
ENDBRANCH   1   9
BRANCH   1  21
ATOM     21  N   UNL     1      -0.171  -4.672  -0.264  0.00  0.00    -0.289 N 
ATOM     22  C   UNL     1      -0.727  -3.627   0.599  0.00  0.00    +0.133 C 
ATOM     23  C   UNL     1      -0.688  -5.917  -0.235  0.00  0.00    +0.219 C 
ATOM     24  O   UNL     1      -1.698  -6.139   0.399  0.00  0.00    -0.275 OA
BRANCH  23  25
ATOM     25  C   UNL     1      -0.011  -7.032  -0.989  0.00  0.00    +0.075 C 
ATOM     26  C   UNL     1      -0.346  -6.918  -2.478  0.00  0.00    +0.013 C 
ATOM     27  C   UNL     1       0.341  -8.050  -3.244  0.00  0.00    +0.001 C 
ATOM     28  C   UNL     1      -0.150  -9.398  -2.711  0.00  0.00    +0.000 C 
ATOM     29  C   UNL     1       0.185  -9.511  -1.223  0.00  0.00    +0.001 C 
ATOM     30  C   UNL     1      -0.502  -8.379  -0.457  0.00  0.00    +0.013 C 
ENDBRANCH  23  25
ENDBRANCH   1  21
TORSDOF 7
