REMARK  Name = ZINC39667184
REMARK  8 active torsions:
REMARK  status: ('A' for Active; 'I' for Inactive)
REMARK    1  A    between atoms: C_1  and  C_2
REMARK    2  A    between atoms: C_5  and  C_9
REMARK    3  A    between atoms: C_6  and  C_8
REMARK    4  A    between atoms: C_9  and  C_10
REMARK    5  A    between atoms: C_10  and  N_11
REMARK    6  A    between atoms: C_12  and  C_14
REMARK    7  A    between atoms: C_25  and  C_27
REMARK    8  A    between atoms: C_28  and  C_32
REMARK                            x       y       z     vdW  Elec       q    Type
REMARK                         _______ _______ _______ _____ _____    ______ ____
ROOT
ATOM      1  C   UNL     1      -2.471  -8.467   0.200  0.00  0.00    +0.100 C 
ATOM      2  C   UNL     1      -2.064  -8.989  -1.197  0.00  0.00    +0.121 C 
ATOM      3  N   UNL     1      -2.892 -10.201  -1.400  0.00  0.00    -0.296 N 
ATOM      4  C   UNL     1      -4.213  -9.845  -0.831  0.00  0.00    +0.115 C 
ATOM      5  C   UNL     1      -3.882  -9.031   0.436  0.00  0.00    -0.004 C 
ATOM      6  C   UNL     1      -4.884  -7.893   0.608  0.00  0.00    -0.010 C 
ATOM      7  C   UNL     1      -6.269  -8.477   0.899  0.00  0.00    -0.082 C 
ATOM      8  N   UNL     1      -6.211  -9.293   2.118  0.00  0.00    +0.379 N 
ATOM      9  C   UNL     1      -5.316 -10.438   1.912  0.00  0.00    -0.082 C 
ATOM     10  C   UNL     1      -3.891  -9.937   1.663  0.00  0.00    -0.010 C 
ATOM     11  C   UNL     1      -2.525 -11.365  -1.972  0.00  0.00    +0.254 C 
ATOM     12  O   UNL     1      -1.367 -11.543  -2.301  0.00  0.00    -0.269 OA
ATOM     13  H   UNL     1      -5.865  -8.731   2.881  0.00  0.00    -0.086 HD
ATOM     14  H   UNL     1      -7.136  -9.627   2.342  0.00  0.00    -0.086 HD
ENDROOT
BRANCH  11  15
ATOM     15  C   UNL     1      -3.521 -12.417  -2.197  0.00  0.00    +0.077 A 
ATOM     16  C   UNL     1      -3.337 -13.709  -2.665  0.00  0.00    -0.031 A 
ATOM     17  C   UNL     1      -4.475 -14.473  -2.773  0.00  0.00    +0.011 A 
ATOM     18  C   UNL     1      -5.668 -13.930  -2.425  0.00  0.00    +0.046 A 
ATOM     19  S   UNL     1      -5.283 -12.370  -1.933  0.00  0.00    -0.092 S 
ATOM     20  C   UNL     1      -1.976 -14.242  -3.034  0.00  0.00    +0.045 C 
ENDBRANCH  11  15
BRANCH   1  22
ATOM     21  N   UNL     1      -2.416  -6.293   1.377  0.00  0.00    -0.315 N 
ATOM     22  C   UNL     1      -2.499  -6.961   0.210  0.00  0.00    +0.218 C 
ATOM     23  O   UNL     1      -2.596  -6.349  -0.833  0.00  0.00    -0.275 OA
ATOM     24  H   UNL     1      -2.338  -6.782   2.211  0.00  0.00    +0.149 HD
BRANCH  21  25
ATOM     25  C   UNL     1      -2.443  -4.828   1.387  0.00  0.00    +0.109 C 
BRANCH  25  26
ATOM     26  C   UNL     1      -2.334  -4.326   2.828  0.00  0.00    +0.054 C 
BRANCH  26  31
ATOM     27  C   UNL     1      -2.441   1.452   2.864  0.00  0.00    +0.044 C 
ATOM     28  C   UNL     1      -2.413  -0.055   2.855  0.00  0.00    -0.050 A 
ATOM     29  C   UNL     1      -1.203  -0.724   2.858  0.00  0.00    +0.003 A 
ATOM     30  C   UNL     1      -1.178  -2.106   2.849  0.00  0.00    +0.004 A 
ATOM     31  C   UNL     1      -2.362  -2.819   2.838  0.00  0.00    -0.043 A 
ATOM     32  C   UNL     1      -3.571  -2.151   2.837  0.00  0.00    -0.047 A 
ATOM     33  C   UNL     1      -3.597  -0.768   2.849  0.00  0.00    +0.007 A 
ATOM     34  C   UNL     1      -4.862  -2.928   2.824  0.00  0.00    +0.044 C 
ENDBRANCH  26  31
ENDBRANCH  25  26
ENDBRANCH  21  25
ENDBRANCH   1  22
TORSDOF 5
