REMARK  Name = ZINC38671167
REMARK  11 active torsions:
REMARK  status: ('A' for Active; 'I' for Inactive)
REMARK    1  A    between atoms: C_1  and  C_2
REMARK    2  A    between atoms: C_4  and  C_34
REMARK    3  A    between atoms: C_5  and  C_33
REMARK    4  A    between atoms: C_6  and  S_9
REMARK    5  A    between atoms: C_7  and  C_8
REMARK    6  A    between atoms: S_9  and  N_12
REMARK    7  A    between atoms: N_12  and  C_13
REMARK    8  A    between atoms: C_13  and  C_14
REMARK    9  A    between atoms: C_14  and  C_16
REMARK   10  A    between atoms: C_14  and  N_27
REMARK   11  A    between atoms: N_25  and  C_26
REMARK                            x       y       z     vdW  Elec       q    Type
REMARK                         _______ _______ _______ _____ _____    ______ ____
ROOT
ATOM      1  C   UNL     1       3.459  -2.220   3.291  0.00  0.00    -0.022 C 
ENDROOT
BRANCH   1   2
ATOM      2  C   UNL     1       4.292  -0.984   3.513  0.00  0.00    -0.059 A 
ATOM      3  C   UNL     1       4.963  -0.404   2.452  0.00  0.00    +0.004 A 
ATOM      4  C   UNL     1       5.726   0.727   2.656  0.00  0.00    +0.023 A 
ATOM      5  C   UNL     1       5.820   1.284   3.927  0.00  0.00    +0.033 A 
ATOM      6  C   UNL     1       5.145   0.704   4.989  0.00  0.00    -0.026 A 
ATOM      7  C   UNL     1       4.379  -0.430   4.775  0.00  0.00    +0.007 A 
ATOM      8  C   UNL     1       5.215   1.284   6.377  0.00  0.00    +0.038 C 
ATOM      9  C   UNL     1       6.447   2.177   6.522  0.00  0.00    +0.024 C 
ATOM     10  C   UNL     1       6.469   3.185   5.365  0.00  0.00    +0.105 C 
ATOM     11  N   UNL     1       6.604   2.428   4.113  0.00  0.00    -0.333 N 
ATOM     12  C   UNL     1       7.543   2.864   3.077  0.00  0.00    +0.129 C 
ENDBRANCH   1   2
BRANCH   1  13
ATOM     13  N   UNL     1       4.158  -3.122   2.365  0.00  0.00    +0.385 N 
ATOM     14  C   UNL     1       3.354  -4.333   2.163  0.00  0.00    -0.078 C 
ATOM     15  C   UNL     1       4.038  -5.239   1.137  0.00  0.00    -0.019 C 
ATOM     16  C   UNL     1       5.427  -5.626   1.653  0.00  0.00    -0.004 C 
ATOM     17  C   UNL     1       6.231  -4.353   1.931  0.00  0.00    -0.019 C 
ATOM     18  C   UNL     1       5.466  -3.480   2.927  0.00  0.00    -0.078 C 
ATOM     19  H   UNL     1       4.290  -2.656   1.479  0.00  0.00    -0.081 HD
ENDBRANCH   1  13
BRANCH   1  20
ATOM     20  C   UNL     1       2.107  -1.824   2.694  0.00  0.00    +0.095 C 
BRANCH  20  21
ATOM     21  N   UNL     1       1.361  -1.021   3.666  0.00  0.00    -0.191 NA
ATOM     22  H   UNL     1       1.652  -0.984   4.590  0.00  0.00    +0.148 HD
BRANCH  21  23
ATOM     23  S   UNL     1       0.019  -0.178   3.186  0.00  0.00    +0.059 S 
ATOM     24  O   UNL     1       0.385   0.537   2.014  0.00  0.00    -0.153 OA
ATOM     25  O   UNL     1      -0.490   0.469   4.345  0.00  0.00    -0.153 OA
BRANCH  23  31
ATOM     26  C   UNL     1      -3.953  -3.398   4.272  0.00  0.00    +0.044 C 
ATOM     27  C   UNL     1      -3.008  -2.820   3.250  0.00  0.00    -0.045 A 
ATOM     28  C   UNL     1      -3.092  -3.217   1.929  0.00  0.00    +0.007 A 
ATOM     29  C   UNL     1      -2.225  -2.687   0.991  0.00  0.00    -0.045 A 
ATOM     30  C   UNL     1      -1.276  -1.758   1.375  0.00  0.00    -0.021 A 
ATOM     31  C   UNL     1      -1.192  -1.361   2.697  0.00  0.00    +0.112 A 
ATOM     32  C   UNL     1      -2.062  -1.888   3.633  0.00  0.00    -0.021 A 
ATOM     33  C   UNL     1      -1.975  -1.450   5.073  0.00  0.00    +0.046 C 
ATOM     34  C   UNL     1      -0.330  -1.181   0.354  0.00  0.00    +0.046 C 
ATOM     35  C   UNL     1      -2.316  -3.120  -0.449  0.00  0.00    +0.044 C 
ENDBRANCH  23  31
ENDBRANCH  21  23
ENDBRANCH  20  21
ENDBRANCH   1  20
TORSDOF 6
