REMARK  Name = ZINC21538380
REMARK  9 active torsions:
REMARK  status: ('A' for Active; 'I' for Inactive)
REMARK    1  A    between atoms: C_4  and  C_7
REMARK    2  A    between atoms: C_10  and  C_12
REMARK    3  A    between atoms: C_12  and  C_14
REMARK    4  A    between atoms: C_12  and  N_21
REMARK    5  A    between atoms: N_21  and  C_22
REMARK    6  A    between atoms: C_22  and  C_23
REMARK    7  A    between atoms: C_23  and  C_24
REMARK    8  A    between atoms: C_24  and  N_25
REMARK    9  A    between atoms: N_28  and  C_31
REMARK                            x       y       z     vdW  Elec       q    Type
REMARK                         _______ _______ _______ _____ _____    ______ ____
ROOT
ATOM      1  N   UNL     1      -0.018   1.093   2.457  0.00  0.00    +0.389 N 
ATOM      2  H   UNL     1       1.013   1.474   2.432  0.00  0.00    -0.084 HD
ATOM      3  H   UNL     1      -0.004  -0.007   2.434  0.00  0.00    -0.084 HD
ENDROOT
BRANCH   1   4
ATOM      4  C   UNL     1      -0.679   1.548   3.687  0.00  0.00    +0.051 C 
BRANCH   4   5
ATOM      5  C   UNL     1      -0.189   2.929   4.039  0.00  0.00    -0.017 A 
ATOM      6  C   UNL     1       1.003   3.393   3.517  0.00  0.00    +0.005 A 
ATOM      7  C   UNL     1       1.453   4.660   3.839  0.00  0.00    +0.000 A 
ATOM      8  C   UNL     1       0.710   5.465   4.683  0.00  0.00    +0.003 A 
ATOM      9  C   UNL     1      -0.482   5.002   5.207  0.00  0.00    +0.038 A 
ATOM     10  C   UNL     1      -0.936   3.735   4.881  0.00  0.00    +0.125 A 
ATOM     11  F   UNL     1      -2.105   3.284   5.388  0.00  0.00    -0.205 F 
ENDBRANCH   4   5
BRANCH   4  15
ATOM     12  C   UNL     1      -0.516  -0.698   6.526  0.00  0.00    +0.248 A 
ATOM     13  N   UNL     1       0.731  -0.665   6.116  0.00  0.00    -0.107 NA
ATOM     14  N   UNL     1       0.819   0.106   5.090  0.00  0.00    -0.113 NA
ATOM     15  C   UNL     1      -0.356   0.599   4.812  0.00  0.00    +0.208 A 
ATOM     16  O   UNL     1      -1.227   0.102   5.707  0.00  0.00    -0.422 OA
BRANCH  12  20
ATOM     17  C   UNL     1      -2.027  -2.916   9.819  0.00  0.00    +0.000 A 
ATOM     18  C   UNL     1      -0.681  -2.980   9.505  0.00  0.00    +0.001 A 
ATOM     19  C   UNL     1      -0.184  -2.262   8.437  0.00  0.00    +0.013 A 
ATOM     20  C   UNL     1      -1.042  -1.470   7.672  0.00  0.00    +0.038 A 
ATOM     21  C   UNL     1      -2.397  -1.406   7.997  0.00  0.00    +0.013 A 
ATOM     22  C   UNL     1      -2.883  -2.133   9.065  0.00  0.00    +0.001 A 
ENDBRANCH  12  20
ENDBRANCH   4  15
ENDBRANCH   1   4
BRANCH   1  23
ATOM     23  C   UNL     1      -0.729   1.579   1.267  0.00  0.00    -0.083 C 
BRANCH  23  24
ATOM     24  C   UNL     1      -0.013   1.086   0.008  0.00  0.00    -0.038 C 
BRANCH  24  25
ATOM     25  C   UNL     1      -0.753   1.593  -1.232  0.00  0.00    -0.081 C 
BRANCH  25  26
ATOM     26  N   UNL     1      -0.065   1.119  -2.440  0.00  0.00    +0.382 N 
ATOM     27  C   UNL     1       1.268   1.726  -2.560  0.00  0.00    -0.060 C 
ATOM     28  C   UNL     1       1.980   1.148  -3.785  0.00  0.00    +0.086 C 
ATOM     29  N   UNL     1       1.175   1.411  -4.986  0.00  0.00    -0.331 N 
ATOM     30  C   UNL     1      -0.158   0.804  -4.866  0.00  0.00    +0.086 C 
ATOM     31  C   UNL     1      -0.870   1.381  -3.641  0.00  0.00    -0.060 C 
ATOM     32  H   UNL     1       0.064   0.030  -2.349  0.00  0.00    -0.082 HD
BRANCH  29  33
ATOM     33  C   UNL     1       1.830   0.960  -6.137  0.00  0.00    +0.065 A 
ATOM     34  C   UNL     1       1.269   1.179  -7.387  0.00  0.00    +0.026 A 
ATOM     35  C   UNL     1       1.920   0.736  -8.523  0.00  0.00    +0.002 A 
ATOM     36  C   UNL     1       3.125   0.066  -8.414  0.00  0.00    +0.003 A 
ATOM     37  C   UNL     1       3.685  -0.159  -7.170  0.00  0.00    +0.040 A 
ATOM     38  C   UNL     1       3.042   0.285  -6.030  0.00  0.00    +0.144 A 
ATOM     39  F   UNL     1       3.589   0.065  -4.815  0.00  0.00    -0.204 F 
ENDBRANCH  29  33
ENDBRANCH  25  26
ENDBRANCH  24  25
ENDBRANCH  23  24
ENDBRANCH   1  23
TORSDOF 9
