REMARK  Name = ZINC09673413
REMARK  6 active torsions:
REMARK  status: ('A' for Active; 'I' for Inactive)
REMARK    1  A    between atoms: C_1  and  C_2
REMARK    2  A    between atoms: C_6  and  N_8
REMARK    3  A    between atoms: C_13  and  C_30
REMARK    4  A    between atoms: C_21  and  C_23
REMARK    5  A    between atoms: C_35  and  O_36
REMARK    6  A    between atoms: O_36  and  C_37
REMARK                            x       y       z     vdW  Elec       q    Type
REMARK                         _______ _______ _______ _____ _____    ______ ____
ROOT
ATOM      1  N   UNL     1      -0.314  -2.386   2.416  0.00  0.00    -0.208 N 
ATOM      2  C   UNL     1      -0.229  -3.754   2.350  0.00  0.00    +0.234 C 
ATOM      3  O   UNL     1      -0.036  -4.436   1.367  0.00  0.00    -0.274 OA
ATOM      4  C   UNL     1      -0.418  -4.201   3.707  0.00  0.00    +0.130 C 
ATOM      5  C   UNL     1      -0.155  -5.353   4.582  0.00  0.00    +0.120 C 
ATOM      6  N   UNL     1      -0.163  -4.737   5.951  0.00  0.00    -0.229 NA
ATOM      7  N   UNL     1      -0.343  -3.360   5.815  0.00  0.00    -0.220 N 
ATOM      8  C   UNL     1       0.298  -3.049   4.523  0.00  0.00    +0.194 C 
ATOM      9  C   UNL     1      -0.244  -1.915   3.696  0.00  0.00    +0.249 C 
ATOM     10  O   UNL     1      -0.557  -0.811   4.088  0.00  0.00    -0.273 OA
ATOM     11  C   UNL     1      -0.948  -2.518   6.676  0.00  0.00    +0.261 C 
ATOM     12  O   UNL     1      -1.109  -1.351   6.373  0.00  0.00    -0.269 OA
ATOM     13  H   UNL     1       0.692  -4.943   6.445  0.00  0.00    +0.145 HD
ENDROOT
BRANCH   1  19
ATOM     14  C   UNL     1      -0.743   2.124   0.499  0.00  0.00    +0.044 C 
ATOM     15  C   UNL     1      -0.661   0.628   0.334  0.00  0.00    -0.049 A 
ATOM     16  C   UNL     1      -0.723   0.068  -0.929  0.00  0.00    +0.003 A 
ATOM     17  C   UNL     1      -0.650  -1.304  -1.084  0.00  0.00    +0.002 A 
ATOM     18  C   UNL     1      -0.514  -2.119   0.022  0.00  0.00    +0.024 A 
ATOM     19  C   UNL     1      -0.451  -1.560   1.291  0.00  0.00    +0.044 A 
ATOM     20  C   UNL     1      -0.520  -0.182   1.444  0.00  0.00    +0.027 A 
ENDBRANCH   1  19
BRANCH  11  21
ATOM     21  C   UNL     1      -1.414  -3.012   7.989  0.00  0.00    +0.039 A 
ATOM     22  C   UNL     1      -2.165  -2.183   8.824  0.00  0.00    +0.013 A 
ATOM     23  C   UNL     1      -2.597  -2.650  10.048  0.00  0.00    +0.002 A 
ATOM     24  C   UNL     1      -2.288  -3.937  10.449  0.00  0.00    +0.015 A 
ATOM     25  C   UNL     1      -1.544  -4.765   9.627  0.00  0.00    +0.019 A 
ATOM     26  C   UNL     1      -1.111  -4.312   8.396  0.00  0.00    +0.028 A 
ATOM     27 BR   UNL     1      -1.125  -6.522  10.185  0.00  0.00    -0.050 Br
ENDBRANCH  11  21
BRANCH   5  28
ATOM     28  C   UNL     1       1.189  -5.962   4.274  0.00  0.00    +0.013 A 
ATOM     29  C   UNL     1       2.310  -5.552   4.970  0.00  0.00    +0.009 A 
ATOM     30  C   UNL     1       3.543  -6.110   4.688  0.00  0.00    +0.001 A 
ATOM     31  C   UNL     1       3.658  -7.080   3.709  0.00  0.00    +0.004 A 
ATOM     32  C   UNL     1       2.540  -7.493   3.010  0.00  0.00    +0.046 A 
ATOM     33  C   UNL     1       1.301  -6.938   3.295  0.00  0.00    +0.125 A 
BRANCH  33  34
ATOM     34  O   UNL     1       0.199  -7.347   2.613  0.00  0.00    -0.495 OA
ATOM     35  C   UNL     1       0.389  -8.356   1.619  0.00  0.00    +0.277 C 
ENDBRANCH  33  34
ENDBRANCH   5  28
TORSDOF 4
