REMARK  Name = ZINC06280708
REMARK  8 active torsions:
REMARK  status: ('A' for Active; 'I' for Inactive)
REMARK    1  A    between atoms: C_1  and  C_2
REMARK    2  A    between atoms: C_4  and  C_16
REMARK    3  A    between atoms: C_5  and  C_15
REMARK    4  A    between atoms: N_6  and  C_7
REMARK    5  A    between atoms: C_7  and  C_8
REMARK    6  A    between atoms: C_8  and  C_9
REMARK    7  A    between atoms: N_22  and  C_23
REMARK    8  A    between atoms: C_29  and  C_31
REMARK                            x       y       z     vdW  Elec       q    Type
REMARK                         _______ _______ _______ _____ _____    ______ ____
ROOT
ATOM      1  C   UNL     1      -0.142  -4.867  -7.930  0.00  0.00    +0.063 C 
ATOM      2  C   UNL     1       0.048  -3.697  -7.001  0.00  0.00    +0.017 A 
ATOM      3  C   UNL     1      -0.273  -3.675  -5.694  0.00  0.00    +0.032 A 
ATOM      4  C   UNL     1       0.082  -2.342  -5.198  0.00  0.00    +0.020 A 
ATOM      5  C   UNL     1       0.604  -1.665  -6.264  0.00  0.00    +0.025 A 
ATOM      6  N   UNL     1       0.579  -2.489  -7.345  0.00  0.00    -0.347 N 
ATOM      7  C   UNL     1       1.119  -0.249  -6.245  0.00  0.00    +0.064 C 
ENDROOT
BRANCH   4   8
ATOM      8  C   UNL     1      -0.085  -1.836  -3.825  0.00  0.00    +0.083 C 
ATOM      9  N   UNL     1       0.290  -0.629  -3.558  0.00  0.00    -0.150 NA
ATOM     10  N   UNL     1       0.183  -0.019  -2.316  0.00  0.00    -0.127 NA
ATOM     11  C   UNL     1       0.104  -0.684  -1.189  0.00  0.00    +0.176 C 
ATOM     12  S   UNL     1       0.135  -2.447  -1.195  0.00  0.00    -0.083 S 
ATOM     13  C   UNL     1      -0.684  -2.745  -2.787  0.00  0.00    +0.135 C 
ATOM     14  N   UNL     1       0.002  -0.004   0.002  0.00  0.00    -0.319 N 
ATOM     15  H   UNL     1      -0.057  -0.494   0.837  0.00  0.00    +0.148 HD
BRANCH  14  16
ATOM     16  C   UNL     1      -0.018   1.461   0.010  0.00  0.00    +0.075 C 
ATOM     17  C   UNL     1       1.418   1.990  -0.001  0.00  0.00    +0.022 C 
ATOM     18  C   UNL     1       1.397   3.520   0.008  0.00  0.00    +0.002 C 
ATOM     19  C   UNL     1       0.681   4.014   1.266  0.00  0.00    +0.000 C 
ATOM     20  C   UNL     1      -0.755   3.484   1.277  0.00  0.00    +0.005 C 
ATOM     21  C   UNL     1      -0.734   1.954   1.269  0.00  0.00    +0.006 C 
ATOM     22  C   UNL     1      -2.169   1.425   1.280  0.00  0.00    +0.009 C 
ENDBRANCH  14  16
ENDBRANCH   4   8
BRANCH   6  23
ATOM     23  C   UNL     1       1.055  -2.132  -8.684  0.00  0.00    +0.126 C 
BRANCH  23  24
ATOM     24  C   UNL     1       2.536  -2.491  -8.812  0.00  0.00    +0.056 C 
BRANCH  24  25
ATOM     25  C   UNL     1       3.025  -2.124 -10.189  0.00  0.00    -0.046 A 
ATOM     26  C   UNL     1       2.956  -3.047 -11.216  0.00  0.00    +0.004 A 
ATOM     27  C   UNL     1       3.400  -2.709 -12.481  0.00  0.00    +0.000 A 
ATOM     28  C   UNL     1       3.922  -1.451 -12.716  0.00  0.00    +0.000 A 
ATOM     29  C   UNL     1       3.996  -0.530 -11.688  0.00  0.00    +0.000 A 
ATOM     30  C   UNL     1       3.548  -0.866 -10.425  0.00  0.00    +0.004 A 
ENDBRANCH  24  25
ENDBRANCH  23  24
ENDBRANCH   6  23
TORSDOF 5
