REMARK  Name = ZINC03440160
REMARK  8 active torsions:
REMARK  status: ('A' for Active; 'I' for Inactive)
REMARK    1  A    between atoms: C_4  and  C_7
REMARK    2  A    between atoms: C_8  and  C_17
REMARK    3  A    between atoms: C_17  and  C_19
REMARK    4  A    between atoms: C_19  and  O_20
REMARK    5  A    between atoms: O_20  and  C_21
REMARK    6  A    between atoms: C_21  and  C_23
REMARK    7  A    between atoms: N_26  and  S_29
REMARK    8  A    between atoms: S_29  and  C_32
REMARK                            x       y       z     vdW  Elec       q    Type
REMARK                         _______ _______ _______ _____ _____    ______ ____
ROOT
ATOM      1  C   UNL     1       3.550   2.051  -0.021  0.00  0.00    +0.203 C 
ATOM      2  O   UNL     1       3.374   3.253  -0.013  0.00  0.00    -0.288 OA
ENDROOT
BRANCH   1   4
ATOM      3  C   UNL     1       6.052   2.254  -0.044  0.00  0.00    +0.058 A 
ATOM      4  C   UNL     1       4.862   1.529  -0.036  0.00  0.00    +0.054 A 
ATOM      5  C   UNL     1       5.250   0.106  -0.041  0.00  0.00    +0.011 A 
ATOM      6  C   UNL     1       4.530  -1.087  -0.045  0.00  0.00    +0.011 A 
ATOM      7  C   UNL     1       5.203  -2.290  -0.056  0.00  0.00    +0.001 A 
ATOM      8  C   UNL     1       6.590  -2.315  -0.070  0.00  0.00    +0.002 A 
ATOM      9  C   UNL     1       7.314  -1.143  -0.071  0.00  0.00    +0.026 A 
ATOM     10  C   UNL     1       6.654   0.082  -0.060  0.00  0.00    +0.048 A 
ATOM     11  N   UNL     1       7.102   1.388  -0.058  0.00  0.00    -0.354 N 
ATOM     12  H   UNL     1       8.036   1.651  -0.065  0.00  0.00    +0.166 HD
BRANCH   3  16
ATOM     13  C   UNL     1       6.352   6.489  -0.027  0.00  0.00    +0.000 A 
ATOM     14  C   UNL     1       7.158   5.738   0.811  0.00  0.00    +0.001 A 
ATOM     15  C   UNL     1       7.066   4.362   0.811  0.00  0.00    +0.010 A 
ATOM     16  C   UNL     1       6.156   3.726  -0.038  0.00  0.00    -0.001 A 
ATOM     17  C   UNL     1       5.350   4.490  -0.885  0.00  0.00    +0.010 A 
ATOM     18  C   UNL     1       5.449   5.866  -0.871  0.00  0.00    +0.001 A 
ENDBRANCH   3  16
ENDBRANCH   1   4
BRANCH   1  19
ATOM     19  C   UNL     1       2.367   1.117  -0.015  0.00  0.00    +0.311 C 
BRANCH  19  20
ATOM     20  O   UNL     1       1.139   1.891   0.001  0.00  0.00    -0.456 OA
BRANCH  20  21
ATOM     21  C   UNL     1      -0.014   1.204   0.009  0.00  0.00    +0.311 C 
ATOM     22  O   UNL     1       0.002  -0.004   0.002  0.00  0.00    -0.251 OA
BRANCH  21  23
ATOM     23  C   UNL     1      -1.329   1.940   0.019  0.00  0.00    +0.100 C 
ATOM     24  C   UNL     1      -1.416   2.813   1.273  0.00  0.00    +0.032 C 
ATOM     25  C   UNL     1      -2.738   3.585   1.262  0.00  0.00    +0.110 C 
ATOM     26  N   UNL     1      -3.844   2.628   1.117  0.00  0.00    -0.176 NA
ATOM     27  C   UNL     1      -3.814   1.681  -0.006  0.00  0.00    +0.110 C 
ATOM     28  C   UNL     1      -2.479   0.929   0.019  0.00  0.00    +0.032 C 
BRANCH  26  29
ATOM     29  S   UNL     1      -5.099   2.618   2.196  0.00  0.00    +0.067 S 
ATOM     30  O   UNL     1      -5.150   3.916   2.773  0.00  0.00    -0.152 OA
ATOM     31  O   UNL     1      -6.209   2.039   1.524  0.00  0.00    -0.152 OA
BRANCH  29  32
ATOM     32  C   UNL     1      -4.662   1.508   3.493  0.00  0.00    +0.143 A 
ATOM     33  C   UNL     1      -3.997   1.763   4.647  0.00  0.00    +0.036 A 
ATOM     34  C   UNL     1      -3.766   0.725   5.530  0.00  0.00    +0.010 A 
ATOM     35  C   UNL     1      -4.201  -0.518   5.212  0.00  0.00    +0.047 A 
ATOM     36  S   UNL     1      -4.972  -0.245   3.625  0.00  0.00    -0.077 S 
ENDBRANCH  29  32
ENDBRANCH  26  29
ENDBRANCH  21  23
ENDBRANCH  20  21
ENDBRANCH  19  20
ENDBRANCH   1  19
TORSDOF 8
