REMARK  Name = ZINC13567344
REMARK  10 active torsions:
REMARK  status: ('A' for Active; 'I' for Inactive)
REMARK    1  A    between atoms: C_1  and  C_2
REMARK    2  A    between atoms: C_7  and  C_8
REMARK    3  A    between atoms: C_8  and  O_9
REMARK    4  A    between atoms: O_9  and  C_10
REMARK    5  A    between atoms: C_13  and  C_18
REMARK    6  A    between atoms: C_15  and  O_16
REMARK    7  A    between atoms: O_16  and  C_17
REMARK    8  A    between atoms: C_29  and  S_31
REMARK    9  A    between atoms: S_31  and  C_32
REMARK   10  A    between atoms: C_32  and  C_33
REMARK                            x       y       z     vdW  Elec       q    Type
REMARK                         _______ _______ _______ _____ _____    ______ ____
ROOT
ATOM      1  C   UNL     1       0.053  -0.376   4.845  0.00  0.00    +0.162 A 
ATOM      2  C   UNL     1       0.031   0.996   5.036  0.00  0.00    +0.050 A 
ATOM      3  C   UNL     1       0.035   1.516   6.317  0.00  0.00    +0.008 A 
ATOM      4  C   UNL     1       0.063   0.669   7.409  0.00  0.00    -0.036 A 
ATOM      5  C   UNL     1       0.086  -0.701   7.226  0.00  0.00    +0.053 A 
ATOM      6  C   UNL     1       0.075  -1.228   5.945  0.00  0.00    +0.162 A 
ENDROOT
BRANCH   4   7
ATOM      7  C   UNL     1       0.068   1.241   8.803  0.00  0.00    +0.067 C 
ATOM      8  C   UNL     1       1.304   2.124   8.988  0.00  0.00    +0.109 C 
ATOM      9  C   UNL     1       1.142   3.402   8.209  0.00  0.00    +0.219 C 
ATOM     10  O   UNL     1       2.112   3.912   7.689  0.00  0.00    -0.275 OA
ATOM     11  N   UNL     1      -0.064   3.985   8.080  0.00  0.00    -0.270 N 
ATOM     12  C   UNL     1      -1.191   3.404   8.643  0.00  0.00    +0.137 A 
ATOM     13  C   UNL     1      -1.172   2.065   9.012  0.00  0.00    +0.067 A 
ATOM     14  C   UNL     1      -2.313   1.508   9.573  0.00  0.00    +0.280 A 
ATOM     15  O   UNL     1      -2.333   0.205   9.946  0.00  0.00    -0.265 OA
ATOM     16  N   UNL     1      -3.386   2.277   9.739  0.00  0.00    -0.183 NA
ATOM     17  C   UNL     1      -3.372   3.552   9.377  0.00  0.00    +0.194 A 
ATOM     18  N   UNL     1      -2.299   4.113   8.836  0.00  0.00    -0.206 NA
ATOM     19  H   UNL     1      -0.145   4.818   7.590  0.00  0.00    +0.156 HD
BRANCH  17  20
ATOM     20  S   UNL     1      -4.819   4.527   9.618  0.00  0.00    -0.073 S 
BRANCH  20  21
ATOM     21  C   UNL     1      -6.006   3.375  10.362  0.00  0.00    +0.165 C 
BRANCH  21  22
ATOM     22  C   UNL     1      -7.275   4.075  10.617  0.00  0.00    -0.094 C 
ATOM     23  C   UNL     1      -8.288   4.633  10.820  0.00  0.00    +0.004 C 
ENDBRANCH  21  22
ENDBRANCH  20  21
ENDBRANCH  17  20
ENDBRANCH   4   7
BRANCH   6  24
ATOM     24  O   UNL     1       0.092  -2.576   5.763  0.00  0.00    -0.491 OA
ATOM     25  C   UNL     1       0.114  -3.389   6.937  0.00  0.00    +0.277 C 
ENDBRANCH   6  24
BRANCH   1  26
ATOM     26  O   UNL     1       0.048  -0.889   3.585  0.00  0.00    -0.484 OA
BRANCH  26  27
ATOM     27  C   UNL     1       0.025   0.045   2.504  0.00  0.00    +0.265 C 
BRANCH  27  34
ATOM     28  C   UNL     1      -0.018   1.503   0.010  0.00  0.00    +0.044 C 
ATOM     29  C   UNL     1       0.002  -0.004   0.002  0.00  0.00    -0.044 A 
ATOM     30  C   UNL     1       0.006  -0.689  -1.199  0.00  0.00    +0.004 A 
ATOM     31  C   UNL     1       0.025  -2.071  -1.207  0.00  0.00    +0.000 A 
ATOM     32  C   UNL     1       0.040  -2.768  -0.013  0.00  0.00    +0.000 A 
ATOM     33  C   UNL     1       0.037  -2.084   1.188  0.00  0.00    +0.007 A 
ATOM     34  C   UNL     1       0.023  -0.702   1.195  0.00  0.00    -0.007 A 
ENDBRANCH  27  34
ENDBRANCH  26  27
ENDBRANCH   1  26
TORSDOF 8
