REMARK  Name = ZINC36055423
REMARK  11 active torsions:
REMARK  status: ('A' for Active; 'I' for Inactive)
REMARK    1  A    between atoms: C_1  and  C_2
REMARK    2  A    between atoms: C_2  and  N_3
REMARK    3  A    between atoms: N_3  and  C_4
REMARK    4  A    between atoms: C_4  and  N_6
REMARK    5  A    between atoms: C_8  and  C_21
REMARK    6  A    between atoms: C_10  and  C_13
REMARK    7  A    between atoms: N_15  and  C_16
REMARK    8  A    between atoms: C_16  and  C_17
REMARK    9  A    between atoms: C_17  and  C_18
REMARK   10  A    between atoms: C_18  and  C_19
REMARK   11  A    between atoms: C_18  and  C_20
REMARK                            x       y       z     vdW  Elec       q    Type
REMARK                         _______ _______ _______ _____ _____    ______ ____
ROOT
ATOM      1  N   UNL     1      -2.865  -2.306   0.017  0.00  0.00    -0.311 N 
ATOM      2  C   UNL     1      -3.256  -3.727   0.019  0.00  0.00    +0.115 C 
ATOM      3  C   UNL     1      -4.674  -3.747   0.643  0.00  0.00    +0.050 C 
ATOM      4  C   UNL     1      -5.288  -2.445   0.065  0.00  0.00    +0.101 C 
ATOM      5  C   UNL     1      -4.082  -1.482   0.034  0.00  0.00    +0.120 C 
ENDROOT
BRANCH   3   6
ATOM      6  C   UNL     1      -5.447  -4.958   0.188  0.00  0.00    -0.039 A 
ATOM      7  C   UNL     1      -5.666  -5.172  -1.160  0.00  0.00    +0.004 A 
ATOM      8  C   UNL     1      -6.375  -6.282  -1.579  0.00  0.00    +0.003 A 
ATOM      9  C   UNL     1      -6.867  -7.179  -0.649  0.00  0.00    +0.038 A 
ATOM     10  C   UNL     1      -6.649  -6.966   0.701  0.00  0.00    +0.124 A 
ATOM     11  C   UNL     1      -5.933  -5.857   1.119  0.00  0.00    +0.042 A 
ATOM     12  F   UNL     1      -7.129  -7.843   1.610  0.00  0.00    -0.205 F 
ENDBRANCH   3   6
BRANCH   4  13
ATOM     13  C   UNL     1      -6.370  -1.917   0.971  0.00  0.00    +0.218 C 
ATOM     14  O   UNL     1      -6.646  -2.508   1.993  0.00  0.00    -0.275 OA
ATOM     15  N   UNL     1      -7.030  -0.788   0.645  0.00  0.00    -0.315 N 
ATOM     16  H   UNL     1      -6.809  -0.315  -0.172  0.00  0.00    +0.149 HD
BRANCH  15  17
ATOM     17  C   UNL     1      -8.082  -0.275   1.526  0.00  0.00    +0.104 C 
BRANCH  17  18
ATOM     18  C   UNL     1      -8.666   1.008   0.930  0.00  0.00    +0.022 C 
BRANCH  18  19
ATOM     19  C   UNL     1      -9.765   1.544   1.850  0.00  0.00    -0.016 C 
ATOM     20  C   UNL     1     -10.263   2.890   1.319  0.00  0.00    +0.007 C 
ATOM     21  C   UNL     1     -10.927   0.549   1.889  0.00  0.00    +0.007 C 
ENDBRANCH  18  19
ENDBRANCH  17  18
ENDBRANCH  15  17
ENDBRANCH   4  13
BRANCH   1  22
ATOM     22  C   UNL     1      -1.601  -1.839   0.007  0.00  0.00    +0.133 C 
ATOM     23  S   UNL     1      -0.284  -2.934  -0.011  0.00  0.00    -0.019 S 
BRANCH  22  24
ATOM     24  N   UNL     1      -1.372  -0.511   0.012  0.00  0.00    -0.327 N 
ATOM     25  H   UNL     1      -2.118   0.109   0.023  0.00  0.00    +0.148 HD
BRANCH  24  27
ATOM     26  C   UNL     1      -0.019   1.526   0.010  0.00  0.00    +0.024 C 
ATOM     27  C   UNL     1       0.002  -0.004   0.002  0.00  0.00    +0.100 C 
ENDBRANCH  24  27
ENDBRANCH  22  24
ENDBRANCH   1  22
TORSDOF 8
