REMARK  Name = ZINC09124278
REMARK  13 active torsions:
REMARK  status: ('A' for Active; 'I' for Inactive)
REMARK    1  A    between atoms: C_1  and  C_2
REMARK    2  A    between atoms: C_2  and  O_3
REMARK    3  A    between atoms: O_3  and  C_4
REMARK    4  A    between atoms: C_7  and  C_12
REMARK    5  A    between atoms: C_9  and  O_10
REMARK    6  A    between atoms: O_10  and  C_11
REMARK    7  A    between atoms: C_15  and  C_27
REMARK    8  A    between atoms: N_22  and  C_23
REMARK    9  A    between atoms: C_23  and  C_24
REMARK   10  A    between atoms: C_24  and  C_25
REMARK   11  A    between atoms: C_25  and  O_26
REMARK   12  A    between atoms: C_30  and  C_34
REMARK   13  A    between atoms: C_32  and  O_33
REMARK                            x       y       z     vdW  Elec       q    Type
REMARK                         _______ _______ _______ _____ _____    ______ ____
ROOT
ATOM      1  C   UNL     1      -1.996  -6.097  -0.011  0.00  0.00    +0.141 C 
ATOM      2  C   UNL     1      -1.766  -6.638  -1.396  0.00  0.00    +0.035 A 
ATOM      3  C   UNL     1      -2.142  -6.650  -2.701  0.00  0.00    +0.075 A 
ATOM      4  N   UNL     1      -1.302  -7.514  -3.342  0.00  0.00    -0.276 N 
ATOM      5  H   UNL     1      -1.336  -7.724  -4.289  0.00  0.00    +0.189 HD
ATOM      6  N   UNL     1      -0.460  -8.009  -2.506  0.00  0.00    -0.168 NA
ATOM      7  C   UNL     1      -0.672  -7.528  -1.298  0.00  0.00    +0.153 A 
ATOM      8  C   UNL     1      -0.228  -7.547   0.108  0.00  0.00    +0.268 C 
ATOM      9  O   UNL     1       0.695  -8.213   0.534  0.00  0.00    -0.268 OA
ATOM     10  N   UNL     1      -0.989  -6.724   0.852  0.00  0.00    -0.285 N 
ENDROOT
BRANCH   3  11
ATOM     11  C   UNL     1      -3.248  -5.878  -3.308  0.00  0.00    +0.043 A 
ATOM     12  C   UNL     1      -4.356  -6.539  -3.839  0.00  0.00    +0.034 A 
ATOM     13  C   UNL     1      -5.385  -5.812  -4.404  0.00  0.00    +0.045 A 
ATOM     14  C   UNL     1      -5.321  -4.430  -4.447  0.00  0.00    -0.029 A 
ATOM     15  C   UNL     1      -4.228  -3.765  -3.924  0.00  0.00    +0.050 A 
ATOM     16  C   UNL     1      -3.191  -4.480  -3.348  0.00  0.00    +0.126 A 
ATOM     17  C   UNL     1      -6.449  -3.646  -5.067  0.00  0.00    +0.045 C 
ATOM     18 CL   UNL     1      -6.763  -6.636  -5.064  0.00  0.00    -0.083 Cl
BRANCH  16  19
ATOM     19  O   UNL     1      -2.118  -3.827  -2.829  0.00  0.00    -0.506 OA
ATOM     20  H   UNL     1      -1.404  -3.677  -3.464  0.00  0.00    +0.292 HD
ENDBRANCH  16  19
ENDBRANCH   3  11
BRANCH   1  24
ATOM     21  C   UNL     1      -1.498  -1.849   0.006  0.00  0.00    +0.162 A 
ATOM     22  C   UNL     1      -0.389  -2.680  -0.003  0.00  0.00    +0.050 A 
ATOM     23  C   UNL     1      -0.553  -4.052  -0.008  0.00  0.00    +0.009 A 
ATOM     24  C   UNL     1      -1.823  -4.600  -0.005  0.00  0.00    -0.019 A 
ATOM     25  C   UNL     1      -2.934  -3.777   0.004  0.00  0.00    +0.055 A 
ATOM     26  C   UNL     1      -2.776  -2.400   0.016  0.00  0.00    +0.162 A 
BRANCH  26  27
ATOM     27  O   UNL     1      -3.868  -1.589   0.030  0.00  0.00    -0.491 OA
ATOM     28  C   UNL     1      -5.148  -2.225   0.039  0.00  0.00    +0.277 C 
ENDBRANCH  26  27
BRANCH  21  29
ATOM     29  O   UNL     1      -1.339  -0.499   0.012  0.00  0.00    -0.489 OA
BRANCH  29  31
ATOM     30  C   UNL     1      -0.019   1.526   0.010  0.00  0.00    +0.048 C 
ATOM     31  C   UNL     1       0.002  -0.004   0.002  0.00  0.00    +0.226 C 
ENDBRANCH  29  31
ENDBRANCH  21  29
ENDBRANCH   1  24
BRANCH  10  32
ATOM     32  C   UNL     1      -0.837  -6.491   2.290  0.00  0.00    +0.111 C 
BRANCH  32  33
ATOM     33  C   UNL     1      -1.693  -7.496   3.063  0.00  0.00    +0.047 C 
BRANCH  33  34
ATOM     34  C   UNL     1      -1.534  -7.252   4.566  0.00  0.00    +0.157 C 
BRANCH  34  35
ATOM     35  O   UNL     1      -2.334  -8.190   5.288  0.00  0.00    -0.395 OA
ATOM     36  H   UNL     1      -2.282  -8.095   6.248  0.00  0.00    +0.209 HD
ENDBRANCH  34  35
ENDBRANCH  33  34
ENDBRANCH  32  33
ENDBRANCH  10  32
TORSDOF 10
