REMARK  Name = ZINC43412033
REMARK  9 active torsions:
REMARK  status: ('A' for Active; 'I' for Inactive)
REMARK    1  A    between atoms: C_1  and  C_2
REMARK    2  A    between atoms: C_2  and  C_4
REMARK    3  A    between atoms: N_12  and  C_13
REMARK    4  A    between atoms: C_13  and  C_14
REMARK    5  A    between atoms: C_14  and  C_15
REMARK    6  A    between atoms: C_14  and  C_16
REMARK    7  A    between atoms: C_14  and  N_17
REMARK    8  A    between atoms: N_17  and  C_18
REMARK    9  A    between atoms: N_17  and  C_19
REMARK                            x       y       z     vdW  Elec       q    Type
REMARK                         _______ _______ _______ _____ _____    ______ ____
ROOT
ATOM      1  C   UNL     1       0.731  -0.503   1.223  0.00  0.00    +0.128 A 
ATOM      2  N   UNL     1       2.021  -0.470   1.386  0.00  0.00    -0.231 NA
ATOM      3  C   UNL     1       2.342  -0.998   2.595  0.00  0.00    +0.089 A 
ATOM      4  C   UNL     1       3.550  -1.205   3.267  0.00  0.00    +0.030 A 
ATOM      5  C   UNL     1       3.550  -1.775   4.508  0.00  0.00    +0.002 A 
ATOM      6  C   UNL     1       2.360  -2.154   5.113  0.00  0.00    +0.002 A 
ATOM      7  C   UNL     1       1.156  -1.959   4.470  0.00  0.00    +0.028 A 
ATOM      8  C   UNL     1       1.137  -1.380   3.208  0.00  0.00    +0.069 A 
ATOM      9  N   UNL     1       0.135  -1.049   2.317  0.00  0.00    -0.328 N 
ENDROOT
BRANCH   1  11
ATOM     10  C   UNL     1      -0.019   1.526   0.010  0.00  0.00    +0.033 C 
ATOM     11  C   UNL     1       0.002  -0.004   0.002  0.00  0.00    +0.143 C 
ATOM     12 CL   UNL     1       0.846  -0.586  -1.481  0.00  0.00    -0.114 Cl
ENDBRANCH   1  11
BRANCH   9  13
ATOM     13  C   UNL     1      -1.302  -1.252   2.513  0.00  0.00    +0.111 C 
BRANCH  13  14
ATOM     14  C   UNL     1      -1.700  -2.631   1.984  0.00  0.00    -0.054 C 
ATOM     15  C   UNL     1      -1.371  -2.719   0.492  0.00  0.00    -0.008 C 
ATOM     16  C   UNL     1      -0.925  -3.711   2.742  0.00  0.00    -0.008 C 
BRANCH  14  17
ATOM     17  N   UNL     1      -3.142  -2.834   2.180  0.00  0.00    +0.381 N 
ATOM     18  C   UNL     1      -3.524  -4.158   1.673  0.00  0.00    -0.096 C 
ATOM     19  C   UNL     1      -3.458  -2.749   3.612  0.00  0.00    -0.096 C 
ATOM     20  H   UNL     1      -3.653  -2.122   1.681  0.00  0.00    -0.082 HD
ENDBRANCH  14  17
ENDBRANCH  13  14
ENDBRANCH   9  13
TORSDOF 4
