REMARK  Name = ZINC02124931
REMARK  8 active torsions:
REMARK  status: ('A' for Active; 'I' for Inactive)
REMARK    1  A    between atoms: C_1  and  C_2
REMARK    2  A    between atoms: C_7  and  C_20
REMARK    3  A    between atoms: C_12  and  C_13
REMARK    4  A    between atoms: C_13  and  C_14
REMARK    5  A    between atoms: C_24  and  C_25
REMARK    6  A    between atoms: C_24  and  N_62
REMARK    7  A    between atoms: C_25  and  C_27
REMARK    8  A    between atoms: C_25  and  C_28
REMARK                            x       y       z     vdW  Elec       q    Type
REMARK                         _______ _______ _______ _____ _____    ______ ____
ROOT
ATOM      1  C   UNL     1      -5.850   6.279   6.499  0.00  0.00    +0.045 C 
ATOM      2  C   UNL     1      -6.603   6.454   5.205  0.00  0.00    -0.030 A 
ATOM      3  C   UNL     1      -6.046   5.981   3.935  0.00  0.00    +0.021 A 
ATOM      4  C   UNL     1      -4.798   5.352   3.889  0.00  0.00    +0.017 A 
ATOM      5  C   UNL     1      -4.294   4.918   2.694  0.00  0.00    -0.021 A 
ATOM      6  C   UNL     1      -5.021   5.098   1.520  0.00  0.00    +0.125 A 
ATOM      7  C   UNL     1      -6.261   5.720   1.550  0.00  0.00    +0.034 A 
ATOM      8  C   UNL     1      -6.786   6.168   2.754  0.00  0.00    +0.146 A 
ATOM      9  O   UNL     1      -7.990   6.773   2.788  0.00  0.00    -0.422 OA
ATOM     10  C   UNL     1      -8.495   7.203   3.948  0.00  0.00    +0.341 A 
ATOM     11  O   UNL     1      -9.586   7.746   3.943  0.00  0.00    -0.245 OA
ATOM     12  C   UNL     1      -7.821   7.056   5.176  0.00  0.00    +0.045 A 
ATOM     13  C   UNL     1      -7.037   5.911   0.273  0.00  0.00    +0.051 C 
ATOM     14  O   UNL     1      -4.532   4.665   0.328  0.00  0.00    -0.509 OA
ATOM     15  C   UNL     1      -3.135   4.367   0.267  0.00  0.00    +0.157 C 
ATOM     16  C   UNL     1      -2.945   4.244   2.669  0.00  0.00    -0.034 C 
ATOM     17  N   UNL     1      -2.807   3.489   1.409  0.00  0.00    +0.405 N 
ATOM     18  H   UNL     1      -3.457   2.695   1.420  0.00  0.00    -0.076 HD
ENDROOT
BRANCH  12  19
ATOM     19  C   UNL     1      -8.446   7.565   6.449  0.00  0.00    +0.077 C 
BRANCH  19  20
ATOM     20  C   UNL     1      -8.026   8.994   6.679  0.00  0.00    -0.043 A 
ATOM     21  C   UNL     1      -6.885   9.270   7.408  0.00  0.00    +0.004 A 
ATOM     22  C   UNL     1      -6.497  10.581   7.615  0.00  0.00    +0.000 A 
ATOM     23  C   UNL     1      -7.257  11.616   7.101  0.00  0.00    +0.000 A 
ATOM     24  C   UNL     1      -8.402  11.339   6.377  0.00  0.00    +0.000 A 
ATOM     25  C   UNL     1      -8.786  10.028   6.166  0.00  0.00    +0.004 A 
ENDBRANCH  19  20
ENDBRANCH  12  19
BRANCH  17  26
ATOM     26  C   UNL     1      -1.424   2.977   1.274  0.00  0.00    -0.066 C 
BRANCH  26  27
ATOM     27  C   UNL     1      -1.397   1.903   0.185  0.00  0.00    -0.001 C 
ATOM     28  C   UNL     1       0.045   1.446  -0.045  0.00  0.00    +0.010 C 
BRANCH  27  29
ATOM     29  C   UNL     1      -2.234   0.727   0.619  0.00  0.00    -0.046 A 
ATOM     30  C   UNL     1      -1.909   0.036   1.772  0.00  0.00    +0.004 A 
ATOM     31  C   UNL     1      -2.672  -1.047   2.166  0.00  0.00    +0.000 A 
ATOM     32  C   UNL     1      -3.761  -1.438   1.409  0.00  0.00    +0.000 A 
ATOM     33  C   UNL     1      -4.086  -0.747   0.257  0.00  0.00    +0.000 A 
ATOM     34  C   UNL     1      -3.322   0.336  -0.138  0.00  0.00    +0.004 A 
ENDBRANCH  27  29
ENDBRANCH  26  27
ENDBRANCH  17  26
TORSDOF 5
