REMARK  Name = ZINC02470299
REMARK  2 active torsions:
REMARK  status: ('A' for Active; 'I' for Inactive)
REMARK    1  A    between atoms: C_5  and  N_7
REMARK    2  A    between atoms: N_12  and  C_15
REMARK                            x       y       z     vdW  Elec       q    Type
REMARK                         _______ _______ _______ _____ _____    ______ ____
ROOT
ATOM      1  C   UNL     1      -3.036   4.159   0.037  0.00  0.00    +0.003 A 
ATOM      2  C   UNL     1      -1.677   4.433   0.042  0.00  0.00    +0.014 A 
ATOM      3  C   UNL     1      -0.766   3.389   0.028  0.00  0.00    +0.052 A 
ATOM      4  C   UNL     1      -1.226   2.057   0.018  0.00  0.00    +0.080 A 
ATOM      5  C   UNL     1      -2.587   1.798   0.023  0.00  0.00    +0.139 A 
ATOM      6  C   UNL     1      -3.487   2.853   0.032  0.00  0.00    +0.033 A 
ATOM      7  C   UNL     1      -0.014   1.210   0.009  0.00  0.00    +0.260 C 
ATOM      8  O   UNL     1       0.002  -0.004   0.002  0.00  0.00    -0.269 OA
ATOM      9  N   UNL     1       1.067   2.010   0.003  0.00  0.00    -0.202 N 
ATOM     10  C   UNL     1       0.710   3.307   0.013  0.00  0.00    +0.258 C 
ATOM     11  O   UNL     1       1.473   4.252   0.011  0.00  0.00    -0.269 OA
ENDROOT
BRANCH   9  12
ATOM     12  C   UNL     1       2.392   1.552  -0.013  0.00  0.00    +0.045 A 
ATOM     13  C   UNL     1       2.657   0.190  -0.017  0.00  0.00    +0.025 A 
ATOM     14  C   UNL     1       3.963  -0.259  -0.037  0.00  0.00    +0.017 A 
ATOM     15  C   UNL     1       5.007   0.649  -0.042  0.00  0.00    +0.018 A 
ATOM     16  C   UNL     1       4.746   2.008  -0.033  0.00  0.00    +0.017 A 
ATOM     17  C   UNL     1       3.442   2.461  -0.018  0.00  0.00    +0.025 A 
ATOM     18 BR   UNL     1       6.795   0.032  -0.062  0.00  0.00    -0.050 Br
ENDBRANCH   9  12
BRANCH   5  19
ATOM     19  N   UNL     1      -3.078   0.402   0.017  0.00  0.00    +0.057 N 
ATOM     20  O   UNL     1      -4.275   0.177   0.020  0.00  0.00    -0.126 OA
ATOM     21  O   UNL     1      -2.285  -0.523   0.008  0.00  0.00    -0.126 OA
ENDBRANCH   5  19
TORSDOF 2
