REMARK  Name = ZINC22011435
REMARK  10 active torsions:
REMARK  status: ('A' for Active; 'I' for Inactive)
REMARK    1  A    between atoms: C_1  and  C_2
REMARK    2  A    between atoms: C_2  and  C_4
REMARK    3  A    between atoms: C_2  and  N_15
REMARK    4  A    between atoms: C_7  and  N_10
REMARK    5  A    between atoms: N_15  and  C_16
REMARK    6  A    between atoms: N_15  and  C_17
REMARK    7  A    between atoms: C_17  and  C_18
REMARK    8  A    between atoms: C_27  and  C_29
REMARK    9  A    between atoms: C_32  and  O_35
REMARK   10  A    between atoms: O_35  and  C_36
REMARK                            x       y       z     vdW  Elec       q    Type
REMARK                         _______ _______ _______ _____ _____    ______ ____
ROOT
ATOM      1  C   UNL     1      -0.125  -0.409   2.520  0.00  0.00    +0.094 A 
ATOM      2  N   UNL     1       0.449  -1.036   3.580  0.00  0.00    -0.311 N 
ATOM      3  H   UNL     1       0.978  -0.449   4.346  0.00  0.00    +0.170 HD
ATOM      4  C   UNL     1       0.363  -2.384   3.682  0.00  0.00    +0.266 A 
ATOM      5  O   UNL     1       0.869  -2.975   4.621  0.00  0.00    -0.267 OA
ATOM      6  C   UNL     1      -0.319  -3.077   2.682  0.00  0.00    +0.102 A 
ATOM      7  C   UNL     1      -0.905  -2.404   1.594  0.00  0.00    +0.086 A 
ATOM      8  N   UNL     1      -0.766  -1.037   1.587  0.00  0.00    -0.235 NA
ATOM      9  C   UNL     1      -1.559  -3.216   0.662  0.00  0.00    +0.044 A 
ATOM     10  C   UNL     1      -1.596  -4.567   0.844  0.00  0.00    +0.022 A 
ATOM     11  S   UNL     1      -0.694  -4.782   2.370  0.00  0.00    -0.081 S 
ENDROOT
BRANCH  10  12
ATOM     12  C   UNL     1      -2.226  -5.597  -0.009  0.00  0.00    -0.011 A 
ATOM     13  C   UNL     1      -2.899  -5.224  -1.174  0.00  0.00    +0.012 A 
ATOM     14  C   UNL     1      -3.481  -6.188  -1.970  0.00  0.00    +0.046 A 
ATOM     15  C   UNL     1      -3.408  -7.527  -1.608  0.00  0.00    +0.120 A 
ATOM     16  C   UNL     1      -2.744  -7.901  -0.447  0.00  0.00    +0.046 A 
ATOM     17  C   UNL     1      -2.155  -6.944   0.351  0.00  0.00    +0.012 A 
BRANCH  15  18
ATOM     18  O   UNL     1      -3.987  -8.473  -2.392  0.00  0.00    -0.495 OA
ATOM     19  C   UNL     1      -4.654  -8.019  -3.572  0.00  0.00    +0.277 C 
ENDBRANCH  15  18
ENDBRANCH  10  12
BRANCH   1  20
ATOM     20  C   UNL     1      -0.016   1.091   2.429  0.00  0.00    -0.003 C 
BRANCH  20  21
ATOM     21  N   UNL     1      -0.700   1.560   1.217  0.00  0.00    +0.387 N 
ATOM     22  C   UNL     1      -0.013   1.086   0.008  0.00  0.00    -0.095 C 
ATOM     23  H   UNL     1      -1.715   1.136   1.216  0.00  0.00    -0.081 HD
BRANCH  21  25
ATOM     24  C   UNL     1      -1.628   3.471   2.435  0.00  0.00    -0.008 C 
ATOM     25  C   UNL     1      -0.822   3.023   1.213  0.00  0.00    -0.041 C 
BRANCH  25  26
ATOM     26  C   UNL     1      -1.527   3.466  -0.043  0.00  0.00    -0.061 A 
ATOM     27  C   UNL     1      -2.596   2.735  -0.528  0.00  0.00    +0.004 A 
ATOM     28  C   UNL     1      -3.248   3.141  -1.677  0.00  0.00    +0.028 A 
ATOM     29  C   UNL     1      -2.822   4.278  -2.350  0.00  0.00    +0.067 A 
ATOM     30  C   UNL     1      -1.745   5.007  -1.863  0.00  0.00    +0.028 A 
ATOM     31  C   UNL     1      -1.101   4.599  -0.711  0.00  0.00    +0.004 A 
BRANCH  29  32
ATOM     32  N   UNL     1      -3.478   4.689  -3.518  0.00  0.00    -0.220 N 
ATOM     33  C   UNL     1      -4.526   4.086  -4.111  0.00  0.00    +0.225 A 
ATOM     34  N   UNL     1      -4.845   4.780  -5.174  0.00  0.00    -0.222 NA
ATOM     35  C   UNL     1      -4.023   5.822  -5.297  0.00  0.00    +0.245 A 
ATOM     36  N   UNL     1      -3.169   5.809  -4.308  0.00  0.00    -0.154 NA
ENDBRANCH  29  32
ENDBRANCH  25  26
ENDBRANCH  21  25
ENDBRANCH  20  21
ENDBRANCH   1  20
TORSDOF 7
