REMARK  Name = ZINC25988848
REMARK  13 active torsions:
REMARK  status: ('A' for Active; 'I' for Inactive)
REMARK    1  A    between atoms: C_1  and  C_2
REMARK    2  A    between atoms: C_2  and  C_4
REMARK    3  A    between atoms: C_2  and  C_11
REMARK    4  A    between atoms: C_4  and  C_5
REMARK    5  A    between atoms: C_5  and  C_6
REMARK    6  A    between atoms: C_6  and  C_7
REMARK    7  A    between atoms: C_7  and  C_8
REMARK    8  A    between atoms: C_7  and  C_9
REMARK    9  A    between atoms: C_7  and  O_10
REMARK   10  A    between atoms: C_17  and  C_35
REMARK   11  A    between atoms: C_22  and  C_23
REMARK   12  A    between atoms: C_26  and  O_34
REMARK   13  A    between atoms: C_29  and  O_33
REMARK                            x       y       z     vdW  Elec       q    Type
REMARK                         _______ _______ _______ _____ _____    ______ ____
ROOT
ATOM      1  C   UNL     1       5.838   2.436   1.536  0.00  0.00    -0.002 C 
ATOM      2  C   UNL     1       5.474   3.888   1.127  0.00  0.00    +0.005 C 
ATOM      3  C   UNL     1       3.967   3.870   0.747  0.00  0.00    +0.009 C 
ATOM      4  C   UNL     1       3.732   2.409   0.355  0.00  0.00    +0.021 C 
ATOM      5  C   UNL     1       4.526   1.669   1.476  0.00  0.00    -0.022 C 
ATOM      6  C   UNL     1       4.568   0.203   1.113  0.00  0.00    +0.008 C 
ATOM      7  C   UNL     1       3.136  -0.346   1.235  0.00  0.00    +0.005 C 
ATOM      8  C   UNL     1       2.165   0.395   0.317  0.00  0.00    +0.031 C 
ATOM      9  C   UNL     1       2.325   1.901   0.467  0.00  0.00    -0.066 C 
ATOM     10  C   UNL     1       1.288   2.711   0.677  0.00  0.00    -0.000 C 
ATOM     11  C   UNL     1       3.780   1.840   2.801  0.00  0.00    +0.012 C 
ENDROOT
BRANCH  10  12
ATOM     12  C   UNL     1      -0.066   2.159   0.772  0.00  0.00    +0.004 C 
ATOM     13  C   UNL     1      -1.116   2.980   0.979  0.00  0.00    -0.040 C 
ATOM     14  C   UNL     1      -2.532   2.449   1.077  0.00  0.00    +0.067 C 
ATOM     15  C   UNL     1      -3.437   3.326   0.205  0.00  0.00    +0.122 C 
ATOM     16  C   UNL     1      -3.345   4.782   0.663  0.00  0.00    +0.067 C 
ATOM     17  C   UNL     1      -1.937   5.322   0.395  0.00  0.00    +0.147 C 
ATOM     18  C   UNL     1      -0.940   4.440   1.128  0.00  0.00    -0.023 C 
ATOM     19  C   UNL     1       0.044   4.954   1.866  0.00  0.00    +0.015 C 
BRANCH  17  20
ATOM     20  O   UNL     1      -1.669   5.294  -1.008  0.00  0.00    -0.387 OA
ATOM     21  H   UNL     1      -0.700   5.647  -1.390  0.00  0.00    +0.210 HD
ENDBRANCH  17  20
BRANCH  15  22
ATOM     22  O   UNL     1      -4.789   2.876   0.321  0.00  0.00    -0.391 OA
ATOM     23  H   UNL     1      -5.588   3.386  -0.236  0.00  0.00    +0.210 HD
ENDBRANCH  15  22
ENDBRANCH  10  12
BRANCH   1  25
ATOM     24  C   UNL     1       8.163   2.615   0.640  0.00  0.00    +0.008 C 
ATOM     25  C   UNL     1       6.846   1.841   0.551  0.00  0.00    -0.010 C 
BRANCH  25  26
ATOM     26  C   UNL     1       6.291   1.942  -0.871  0.00  0.00    +0.003 C 
BRANCH  26  27
ATOM     27  C   UNL     1       7.306   1.361  -1.857  0.00  0.00    +0.003 C 
BRANCH  27  28
ATOM     28  C   UNL     1       6.751   1.462  -3.279  0.00  0.00    +0.034 C 
BRANCH  28  29
ATOM     29  C   UNL     1       7.766   0.881  -4.266  0.00  0.00    +0.061 C 
ATOM     30  C   UNL     1       7.267   1.094  -5.696  0.00  0.00    +0.041 C 
ATOM     31  C   UNL     1       9.113   1.584  -4.085  0.00  0.00    +0.041 C 
BRANCH  29  32
ATOM     32  O   UNL     1       7.923  -0.518  -4.019  0.00  0.00    -0.389 OA
ATOM     33  H   UNL     1       8.617  -1.111  -4.634  0.00  0.00    +0.210 HD
ENDBRANCH  29  32
ENDBRANCH  28  29
ENDBRANCH  27  28
ENDBRANCH  26  27
ENDBRANCH  25  26
ENDBRANCH   1  25
TORSDOF 9
