REMARK  Name = ZINC11799487
REMARK  7 active torsions:
REMARK  status: ('A' for Active; 'I' for Inactive)
REMARK    1  A    between atoms: C_3  and  O_11
REMARK    2  A    between atoms: C_4  and  C_8
REMARK    3  A    between atoms: C_8  and  N_10
REMARK    4  A    between atoms: O_11  and  C_12
REMARK    5  A    between atoms: C_12  and  C_13
REMARK    6  A    between atoms: C_13  and  O_14
REMARK    7  A    between atoms: O_14  and  C_15
REMARK                            x       y       z     vdW  Elec       q    Type
REMARK                         _______ _______ _______ _____ _____    ______ ____
ROOT
ATOM      1  C   UNL     1       7.588  -2.120   0.468  0.00  0.00    +0.023 A 
ATOM      2  C   UNL     1       6.285  -1.686   0.318  0.00  0.00    +0.048 A 
ATOM      3  C   UNL     1       5.679  -0.949   1.323  0.00  0.00    +0.130 A 
ATOM      4  C   UNL     1       6.395  -0.641   2.489  0.00  0.00    +0.046 A 
ATOM      5  C   UNL     1       7.710  -1.090   2.630  0.00  0.00    +0.034 A 
ATOM      6  C   UNL     1       8.298  -1.823   1.620  0.00  0.00    +0.042 A 
ATOM      7 CL   UNL     1       9.935  -2.375   1.794  0.00  0.00    -0.084 Cl
ENDROOT
BRANCH   4   8
ATOM      8  C   UNL     1       5.762   0.148   3.560  0.00  0.00    +0.080 C 
ATOM      9  S   UNL     1       4.148   0.691   3.385  0.00  0.00    -0.035 S 
BRANCH   8  10
ATOM     10  N   UNL     1       6.454   0.442   4.679  0.00  0.00    -0.352 N 
ATOM     11  H   UNL     1       7.368   0.134   4.779  0.00  0.00    +0.143 HD
ATOM     12  H   UNL     1       6.037   0.961   5.385  0.00  0.00    +0.143 HD
ENDBRANCH   8  10
ENDBRANCH   4   8
BRANCH   3  13
ATOM     13  O   UNL     1       4.399  -0.522   1.177  0.00  0.00    -0.488 OA
BRANCH  13  14
ATOM     14  C   UNL     1       3.734  -0.868  -0.040  0.00  0.00    +0.270 C 
BRANCH  14  15
ATOM     15  C   UNL     1       2.312  -0.304  -0.023  0.00  0.00    +0.270 C 
BRANCH  15  16
ATOM     16  O   UNL     1       2.366   1.123  -0.015  0.00  0.00    -0.487 OA
BRANCH  16  17
ATOM     17  C   UNL     1       1.179   1.786   0.000  0.00  0.00    +0.139 A 
ATOM     18  C   UNL     1      -0.013   1.076   0.008  0.00  0.00    +0.048 A 
ATOM     19  C   UNL     1      -1.218   1.751   0.017  0.00  0.00    +0.023 A 
ATOM     20  C   UNL     1      -1.238   3.134   0.031  0.00  0.00    +0.043 A 
ATOM     21  C   UNL     1      -0.051   3.845   0.023  0.00  0.00    +0.043 A 
ATOM     22  C   UNL     1       1.157   3.174   0.008  0.00  0.00    +0.084 A 
ATOM     23 CL   UNL     1       2.647   4.066  -0.001  0.00  0.00    -0.080 Cl
ATOM     24 CL   UNL     1      -2.754   3.979   0.050  0.00  0.00    -0.083 Cl
ENDBRANCH  16  17
ENDBRANCH  15  16
ENDBRANCH  14  15
ENDBRANCH  13  14
ENDBRANCH   3  13
TORSDOF 7
