REMARK  Name = ZINC45522007
REMARK  12 active torsions:
REMARK  status: ('A' for Active; 'I' for Inactive)
REMARK    1  A    between atoms: C_1  and  C_2
REMARK    2  A    between atoms: C_2  and  N_3
REMARK    3  A    between atoms: C_7  and  C_9
REMARK    4  A    between atoms: C_9  and  N_10
REMARK    5  A    between atoms: N_10  and  C_11
REMARK    6  A    between atoms: C_11  and  N_13
REMARK    7  A    between atoms: N_13  and  C_14
REMARK    8  A    between atoms: C_14  and  C_15
REMARK    9  A    between atoms: C_15  and  C_17
REMARK   10  A    between atoms: C_15  and  N_25
REMARK   11  A    between atoms: C_20  and  O_23
REMARK   12  A    between atoms: O_23  and  C_24
REMARK                            x       y       z     vdW  Elec       q    Type
REMARK                         _______ _______ _______ _____ _____    ______ ____
ROOT
ATOM      1  C   UNL     1      -0.251  -1.866  -5.301  0.00  0.00    +0.092 C 
ENDROOT
BRANCH   1   2
ATOM      2  N   UNL     1      -0.122  -3.287  -5.631  0.00  0.00    -0.328 N 
ATOM      3  H   UNL     1       0.218  -3.554  -6.499  0.00  0.00    +0.148 HD
BRANCH   2   4
ATOM      4  C   UNL     1      -0.477  -4.224  -4.729  0.00  0.00    +0.130 C 
ATOM      5  S   UNL     1      -1.078  -3.752  -3.197  0.00  0.00    -0.019 S 
BRANCH   4   6
ATOM      6  N   UNL     1      -0.358  -5.531  -5.033  0.00  0.00    -0.328 N 
ATOM      7  H   UNL     1      -0.017  -5.799  -5.901  0.00  0.00    +0.148 HD
BRANCH   6   8
ATOM      8  C   UNL     1      -0.744  -6.549  -4.053  0.00  0.00    +0.088 C 
BRANCH   8  13
ATOM      9  N   UNL     1      -0.721  -8.965  -3.589  0.00  0.00    +0.382 N 
ATOM     10  C   UNL     1      -1.751  -9.867  -4.146  0.00  0.00    -0.078 C 
ATOM     11  C   UNL     1      -1.596  -9.745  -5.682  0.00  0.00    -0.020 C 
ATOM     12  C   UNL     1      -1.261  -8.238  -5.844  0.00  0.00    -0.016 C 
ATOM     13  C   UNL     1      -0.402  -7.938  -4.598  0.00  0.00    -0.051 C 
ATOM     14  H   UNL     1       0.109  -9.495  -3.370  0.00  0.00    -0.081 HD
BRANCH   9  16
ATOM     15  C   UNL     1      -1.479  -9.382  -1.298  0.00  0.00    -0.017 C 
ATOM     16  C   UNL     1      -1.233  -8.321  -2.373  0.00  0.00    -0.082 C 
ENDBRANCH   9  16
ENDBRANCH   8  13
ENDBRANCH   6   8
ENDBRANCH   4   6
ENDBRANCH   2   4
ENDBRANCH   1   2
BRANCH   1  17
ATOM     17  C   UNL     1       0.322  -1.023  -6.442  0.00  0.00    -0.020 C 
BRANCH  17  18
ATOM     18  N   UNL     1       0.288   0.397  -6.066  0.00  0.00    +0.385 N 
ATOM     19  C   UNL     1       0.764   1.210  -7.191  0.00  0.00    -0.078 C 
ATOM     20  C   UNL     1       0.655   2.695  -6.835  0.00  0.00    -0.019 C 
ATOM     21  C   UNL     1       1.511   2.981  -5.598  0.00  0.00    -0.004 C 
ATOM     22  C   UNL     1       1.054   2.074  -4.452  0.00  0.00    -0.019 C 
ATOM     23  C   UNL     1       1.149   0.613  -4.897  0.00  0.00    -0.078 C 
ATOM     24  H   UNL     1      -0.658   0.661  -5.839  0.00  0.00    -0.081 HD
ENDBRANCH  17  18
BRANCH  17  25
ATOM     25  C   UNL     1      -0.503  -1.233  -7.685  0.00  0.00    -0.059 A 
ATOM     26  C   UNL     1      -1.700  -0.559  -7.842  0.00  0.00    +0.005 A 
ATOM     27  C   UNL     1      -2.458  -0.751  -8.981  0.00  0.00    +0.046 A 
ATOM     28  C   UNL     1      -2.017  -1.620  -9.968  0.00  0.00    +0.120 A 
ATOM     29  C   UNL     1      -0.815  -2.294  -9.809  0.00  0.00    +0.046 A 
ATOM     30  C   UNL     1      -0.058  -2.095  -8.671  0.00  0.00    +0.005 A 
BRANCH  28  31
ATOM     31  O   UNL     1      -2.761  -1.810 -11.089  0.00  0.00    -0.495 OA
ATOM     32  C   UNL     1      -2.245  -2.719 -12.064  0.00  0.00    +0.277 C 
ENDBRANCH  28  31
ENDBRANCH  17  25
ENDBRANCH   1  17
TORSDOF 10
