REMARK  Name = ZINC37493412
REMARK  6 active torsions:
REMARK  status: ('A' for Active; 'I' for Inactive)
REMARK    1  A    between atoms: C_1  and  C_2
REMARK    2  A    between atoms: C_2  and  C_4
REMARK    3  A    between atoms: C_2  and  N_11
REMARK    4  A    between atoms: N_11  and  C_12
REMARK    5  A    between atoms: C_12  and  C_14
REMARK    6  A    between atoms: C_12  and  C_15
REMARK                            x       y       z     vdW  Elec       q    Type
REMARK                         _______ _______ _______ _____ _____    ______ ____
ROOT
ATOM      1  N   UNL     1       1.159  -0.512   0.316  0.00  0.00    +0.391 N 
ATOM      2  H   UNL     1       0.223  -0.394   0.671  0.00  0.00    -0.084 HD
ATOM      3  H   UNL     1       1.375  -1.496   0.257  0.00  0.00    -0.084 HD
ENDROOT
BRANCH   1   5
ATOM      4  C   UNL     1       0.160  -0.483  -1.920  0.00  0.00    -0.009 C 
ATOM      5  C   UNL     1       1.256   0.091  -1.020  0.00  0.00    -0.042 C 
BRANCH   5   6
ATOM      6  C   UNL     1       2.607  -0.217  -1.614  0.00  0.00    -0.048 A 
ATOM      7  C   UNL     1       3.305  -1.336  -1.200  0.00  0.00    +0.003 A 
ATOM      8  C   UNL     1       4.543  -1.620  -1.744  0.00  0.00    +0.000 A 
ATOM      9  C   UNL     1       5.084  -0.784  -2.704  0.00  0.00    +0.001 A 
ATOM     10  C   UNL     1       4.387   0.335  -3.119  0.00  0.00    +0.015 A 
ATOM     11  C   UNL     1       3.145   0.616  -2.577  0.00  0.00    +0.019 A 
ATOM     12 BR   UNL     1       2.188   2.143  -3.149  0.00  0.00    -0.050 Br
ENDBRANCH   5   6
ENDBRANCH   1   5
BRANCH   1  13
ATOM     13  C   UNL     1       2.113   0.145   1.220  0.00  0.00    +0.014 C 
ATOM     14  C   UNL     1       1.694   1.601   1.433  0.00  0.00    -0.004 C 
BRANCH  13  15
ATOM     15  C   UNL     1       2.124  -0.573   2.545  0.00  0.00    +0.201 C 
ATOM     16  O   UNL     1       1.211  -1.314   2.842  0.00  0.00    -0.277 OA
ATOM     17  N   UNL     1       3.150  -0.392   3.401  0.00  0.00    -0.303 N 
ATOM     18  C   UNL     1       4.202   0.592   3.111  0.00  0.00    +0.107 C 
ATOM     19  C   UNL     1       4.338   1.536   4.309  0.00  0.00    +0.019 C 
ATOM     20  C   UNL     1       4.580   0.713   5.577  0.00  0.00    +0.003 C 
ATOM     21  C   UNL     1       3.384  -0.210   5.823  0.00  0.00    +0.019 C 
ATOM     22  C   UNL     1       3.233  -1.169   4.645  0.00  0.00    +0.107 C 
ENDBRANCH  13  15
ENDBRANCH   1  13
TORSDOF 4
