REMARK  Name = ZINC67294318
REMARK  4 active torsions:
REMARK  status: ('A' for Active; 'I' for Inactive)
REMARK    1  A    between atoms: C_1  and  C_2
REMARK    2  A    between atoms: C_9  and  C_11
REMARK    3  A    between atoms: C_16  and  O_30
REMARK    4  A    between atoms: N_21  and  C_22
REMARK                            x       y       z     vdW  Elec       q    Type
REMARK                         _______ _______ _______ _____ _____    ______ ____
ROOT
ATOM      1  C   UNL     1       0.069  -6.432  -0.981  0.00  0.00    +0.098 A 
ATOM      2  C   UNL     1       0.398  -7.183  -2.101  0.00  0.00    +0.030 A 
ATOM      3  C   UNL     1       0.651  -8.568  -1.929  0.00  0.00    +0.018 A 
ATOM      4  C   UNL     1       1.180  -9.329  -2.982  0.00  0.00    +0.015 A 
ATOM      5  C   UNL     1       1.459 -10.650  -2.792  0.00  0.00    +0.046 A 
ATOM      6  C   UNL     1       1.216 -11.255  -1.560  0.00  0.00    +0.120 A 
ATOM      7  C   UNL     1       0.676 -10.523  -0.513  0.00  0.00    +0.092 A 
ATOM      8  C   UNL     1       0.379  -9.182  -0.691  0.00  0.00    +0.141 A 
ATOM      9  O   UNL     1      -0.190  -8.469   0.312  0.00  0.00    -0.438 OA
ATOM     10  C   UNL     1       0.047  -7.129   0.320  0.00  0.00    +0.212 A 
ATOM     11  N   UNL     1       0.244  -6.476   1.445  0.00  0.00    -0.323 N 
ATOM     12  H   UNL     1       0.526  -5.548   1.424  0.00  0.00    +0.169 HD
ENDROOT
BRANCH   1  21
ATOM     13  C   UNL     1      -2.032   1.123  -0.357  0.00  0.00    +0.045 C 
ATOM     14  C   UNL     1      -1.650  -0.334  -0.295  0.00  0.00    -0.032 A 
ATOM     15  C   UNL     1      -0.818  -0.882  -1.262  0.00  0.00    +0.008 A 
ATOM     16  C   UNL     1      -0.492  -2.223  -1.168  0.00  0.00    +0.044 A 
ATOM     17  C   UNL     1      -1.004  -2.972  -0.114  0.00  0.00    +0.125 A 
ATOM     18  N   UNL     1      -1.795  -2.412   0.788  0.00  0.00    -0.240 NA
ATOM     19  C   UNL     1      -2.119  -1.135   0.727  0.00  0.00    +0.116 A 
ATOM     20  N   UNL     1      -0.684  -4.323  -0.007  0.00  0.00    -0.266 N 
ATOM     21  C   UNL     1      -0.239  -4.998  -1.086  0.00  0.00    +0.254 C 
ATOM     22  O   UNL     1      -0.091  -4.420  -2.146  0.00  0.00    -0.270 OA
ATOM     23  H   UNL     1      -0.782  -4.779   0.843  0.00  0.00    +0.157 HD
ENDBRANCH   1  21
BRANCH  11  24
ATOM     24  C   UNL     1       0.052  -7.106   2.644  0.00  0.00    +0.080 A 
ATOM     25  C   UNL     1      -1.129  -7.812   2.884  0.00  0.00    +0.067 A 
ATOM     26  C   UNL     1      -1.317  -8.445   4.098  0.00  0.00    +0.126 A 
ATOM     27  C   UNL     1      -0.336  -8.381   5.075  0.00  0.00    +0.041 A 
ATOM     28  C   UNL     1       0.836  -7.684   4.844  0.00  0.00    +0.043 A 
ATOM     29  C   UNL     1       1.039  -7.051   3.633  0.00  0.00    +0.147 A 
ATOM     30  F   UNL     1       2.187  -6.375   3.407  0.00  0.00    -0.203 F 
ATOM     31  F   UNL     1      -2.458  -9.129   4.332  0.00  0.00    -0.205 F 
ENDBRANCH  11  24
BRANCH   6  32
ATOM     32  O   UNL     1       1.511 -12.567  -1.383  0.00  0.00    -0.507 OA
ATOM     33  H   UNL     1       2.409 -12.730  -1.065  0.00  0.00    +0.292 HD
ENDBRANCH   6  32
TORSDOF 3
