REMARK  Name = ZINC61771162
REMARK  7 active torsions:
REMARK  status: ('A' for Active; 'I' for Inactive)
REMARK    1  A    between atoms: C_1  and  C_2
REMARK    2  A    between atoms: C_2  and  C_3
REMARK    3  A    between atoms: C_2  and  C_4
REMARK    4  A    between atoms: C_2  and  C_5
REMARK    5  A    between atoms: C_5  and  C_6
REMARK    6  A    between atoms: N_13  and  C_14
REMARK    7  A    between atoms: C_17  and  N_21
REMARK                            x       y       z     vdW  Elec       q    Type
REMARK                         _______ _______ _______ _____ _____    ______ ____
ROOT
ATOM      1  C   UNL     1       2.448  -1.210   3.655  0.00  0.00    +0.036 A 
ATOM      2  C   UNL     1       1.179  -0.703   3.902  0.00  0.00    +0.025 A 
ATOM      3  C   UNL     1       0.686  -0.675   5.191  0.00  0.00    +0.026 A 
ATOM      4  C   UNL     1       1.459  -1.154   6.241  0.00  0.00    +0.049 A 
ATOM      5  C   UNL     1       2.728  -1.662   5.994  0.00  0.00    +0.064 A 
ATOM      6  C   UNL     1       3.219  -1.695   4.702  0.00  0.00    +0.045 A 
ATOM      7 CL   UNL     1       3.695  -2.261   7.306  0.00  0.00    -0.082 Cl
ENDROOT
BRANCH   1  15
ATOM      8  C   UNL     1       2.772   0.667  -0.847  0.00  0.00    +0.078 C 
ATOM      9  C   UNL     1       3.383   0.134  -2.160  0.00  0.00    +0.024 C 
ATOM     10  C   UNL     1       4.406  -0.922  -1.663  0.00  0.00    +0.021 C 
ATOM     11  C   UNL     1       3.673  -1.510  -0.432  0.00  0.00    +0.110 C 
ATOM     12  N   UNL     1       2.985  -0.360   0.183  0.00  0.00    -0.282 N 
ATOM     13  C   UNL     1       2.614  -0.265   1.475  0.00  0.00    +0.307 C 
ATOM     14  O   UNL     1       1.976   0.698   1.855  0.00  0.00    -0.252 OA
ATOM     15  N   UNL     1       2.948  -1.238   2.345  0.00  0.00    -0.269 N 
ATOM     16  H   UNL     1       3.536  -1.958   2.066  0.00  0.00    +0.156 HD
BRANCH   8  17
ATOM     17  C   UNL     1       1.273   0.914  -1.034  0.00  0.00    +0.028 C 
BRANCH  17  19
ATOM     18  C   UNL     1       1.552   1.750  -3.372  0.00  0.00    +0.010 C 
ATOM     19  C   UNL     1       1.066   2.109  -1.967  0.00  0.00    -0.036 C 
ATOM     20  C   UNL     1       1.859   3.309  -1.444  0.00  0.00    +0.010 C 
ATOM     21  C   UNL     1      -0.422   2.464  -2.017  0.00  0.00    +0.010 C 
ENDBRANCH  17  19
ENDBRANCH   8  17
ENDBRANCH   1  15
BRANCH   4  22
ATOM     22  N   UNL     1       0.959  -1.125   7.548  0.00  0.00    -0.318 N 
ATOM     23  C   UNL     1       1.171   0.041   8.424  0.00  0.00    +0.124 C 
ATOM     24  C   UNL     1      -0.198   0.620   8.788  0.00  0.00    +0.123 C 
ATOM     25  N   UNL     1      -1.114  -0.436   9.195  0.00  0.00    -0.313 N 
ATOM     26  C   UNL     1      -0.981  -1.722   8.867  0.00  0.00    +0.230 C 
ATOM     27  O   UNL     1      -1.852  -2.498   9.200  0.00  0.00    -0.274 OA
ATOM     28  C   UNL     1       0.196  -2.253   8.101  0.00  0.00    +0.200 C 
ATOM     29  H   UNL     1      -1.874  -0.187   9.744  0.00  0.00    +0.149 HD
ENDBRANCH   4  22
TORSDOF 4
