REMARK  Name = ZINC12634464
REMARK  8 active torsions:
REMARK  status: ('A' for Active; 'I' for Inactive)
REMARK    1  A    between atoms: C_1  and  C_2
REMARK    2  A    between atoms: C_4  and  C_7
REMARK    3  A    between atoms: C_7  and  N_9
REMARK    4  A    between atoms: N_11  and  C_22
REMARK    5  A    between atoms: C_15  and  C_19
REMARK    6  A    between atoms: C_19  and  C_20
REMARK    7  A    between atoms: C_19  and  C_21
REMARK    8  A    between atoms: C_22  and  C_23
REMARK                            x       y       z     vdW  Elec       q    Type
REMARK                         _______ _______ _______ _____ _____    ______ ____
ROOT
ATOM      1  N   UNL     1      -2.850   2.189   0.125  0.00  0.00    -0.149 NA
ATOM      2  C   UNL     1      -2.021   2.270   1.160  0.00  0.00    +0.168 A 
ATOM      3  N   UNL     1      -0.679   2.046   1.186  0.00  0.00    -0.310 N 
ATOM      4  C   UNL     1       0.023   2.187   2.368  0.00  0.00    +0.058 A 
ATOM      5  C   UNL     1       1.398   2.006   2.591  0.00  0.00    +0.027 A 
ATOM      6  C   UNL     1       1.937   2.189   3.842  0.00  0.00    +0.006 A 
ATOM      7  C   UNL     1       1.146   2.555   4.918  0.00  0.00    -0.044 A 
ATOM      8  C   UNL     1      -0.212   2.740   4.728  0.00  0.00    +0.021 A 
ATOM      9  C   UNL     1      -0.752   2.557   3.477  0.00  0.00    +0.039 A 
ATOM     10  S   UNL     1      -2.390   2.684   2.804  0.00  0.00    -0.052 S 
ENDROOT
BRANCH   7  11
ATOM     11  C   UNL     1       1.758   2.750   6.282  0.00  0.00    +0.013 C 
ATOM     12  C   UNL     1       2.413   1.445   6.738  0.00  0.00    +0.012 C 
ATOM     13  C   UNL     1       2.814   3.854   6.214  0.00  0.00    +0.012 C 
ENDBRANCH   7  11
BRANCH   1  14
ATOM     14  C   UNL     1      -2.422   1.683  -1.036  0.00  0.00    +0.307 C 
ATOM     15  O   UNL     1      -2.107   0.508  -1.111  0.00  0.00    -0.265 OA
BRANCH  14  19
ATOM     16  C   UNL     1      -1.682   3.550  -5.692  0.00  0.00    +0.069 C 
ATOM     17  C   UNL     1      -2.017   3.375  -4.233  0.00  0.00    +0.081 A 
ATOM     18  C   UNL     1      -1.908   2.185  -3.479  0.00  0.00    +0.080 A 
ATOM     19  C   UNL     1      -2.330   2.550  -2.230  0.00  0.00    +0.224 A 
ATOM     20  O   UNL     1      -2.638   3.857  -2.306  0.00  0.00    -0.350 OA
ATOM     21  N   UNL     1      -2.458   4.291  -3.420  0.00  0.00    -0.083 NA
ENDBRANCH  14  19
ENDBRANCH   1  14
BRANCH   3  22
ATOM     22  C   UNL     1       0.022   1.662  -0.041  0.00  0.00    +0.212 C 
BRANCH  22  23
ATOM     23  C   UNL     1       0.123   0.195  -0.110  0.00  0.00    -0.084 C 
ATOM     24  C   UNL     1       0.204  -0.975  -0.164  0.00  0.00    +0.005 C 
ENDBRANCH  22  23
ENDBRANCH   3  22
TORSDOF 5
