REMARK  Name = ZINC17303917
REMARK  6 active torsions:
REMARK  status: ('A' for Active; 'I' for Inactive)
REMARK    1  A    between atoms: C_1  and  C_2
REMARK    2  A    between atoms: N_5  and  S_11
REMARK    3  A    between atoms: C_7  and  C_10
REMARK    4  A    between atoms: S_11  and  C_14
REMARK    5  A    between atoms: C_17  and  C_20
REMARK    6  A    between atoms: C_20  and  N_22
REMARK                            x       y       z     vdW  Elec       q    Type
REMARK                         _______ _______ _______ _____ _____    ______ ____
ROOT
ATOM      1  C   UNL     1      -1.172  -3.429  -2.162  0.00  0.00    +0.106 A 
ATOM      2  C   UNL     1      -1.164  -2.639  -3.298  0.00  0.00    +0.029 A 
ATOM      3  C   UNL     1      -0.323  -2.944  -4.348  0.00  0.00    +0.015 A 
ATOM      4  C   UNL     1       0.521  -4.051  -4.263  0.00  0.00    +0.039 A 
ATOM      5  C   UNL     1       0.508  -4.844  -3.115  0.00  0.00    +0.015 A 
ATOM      6  C   UNL     1      -0.334  -4.525  -2.070  0.00  0.00    +0.029 A 
ENDROOT
BRANCH   1   7
ATOM      7  S   UNL     1      -2.249  -3.032  -0.825  0.00  0.00    +0.061 S 
ATOM      8  O   UNL     1      -2.456  -4.236  -0.100  0.00  0.00    -0.153 OA
ATOM      9  O   UNL     1      -3.322  -2.281  -1.377  0.00  0.00    -0.153 OA
BRANCH   7  13
ATOM     10  C   UNL     1      -0.088   1.525  -0.019  0.00  0.00    +0.039 C 
ATOM     11  C   UNL     1      -0.052  -0.004  -0.021  0.00  0.00    +0.131 C 
ATOM     12  C   UNL     1      -1.485  -0.550  -0.005  0.00  0.00    +0.140 C 
ATOM     13  N   UNL     1      -1.424  -2.008   0.181  0.00  0.00    -0.172 NA
ATOM     14  C   UNL     1      -0.608  -2.530   1.289  0.00  0.00    +0.140 C 
ATOM     15  C   UNL     1       0.782  -1.888   1.210  0.00  0.00    +0.131 C 
ATOM     16  O   UNL     1       0.641  -0.467   1.140  0.00  0.00    -0.371 OA
ATOM     17  C   UNL     1       1.589  -2.262   2.455  0.00  0.00    +0.039 C 
ENDBRANCH   7  13
ENDBRANCH   1   7
BRANCH   4  18
ATOM     18  C   UNL     1       1.426  -4.385  -5.387  0.00  0.00    +0.270 C 
ATOM     19  O   UNL     1       1.435  -3.691  -6.388  0.00  0.00    -0.268 OA
BRANCH  18  20
ATOM     20  N   UNL     1       2.234  -5.447  -5.302  0.00  0.00    -0.143 NA
ATOM     21  C   UNL     1       2.969  -5.808  -6.348  0.00  0.00    +0.199 A 
ATOM     22  N   UNL     1       3.075  -5.114  -7.513  0.00  0.00    -0.326 N 
ATOM     23  H   UNL     1       2.629  -4.278  -7.720  0.00  0.00    +0.169 HD
ATOM     24  C   UNL     1       3.933  -5.811  -8.358  0.00  0.00    +0.065 A 
ATOM     25  C   UNL     1       4.394  -5.572  -9.646  0.00  0.00    +0.028 A 
ATOM     26  C   UNL     1       5.261  -6.465 -10.242  0.00  0.00    +0.002 A 
ATOM     27  C   UNL     1       5.674  -7.599  -9.561  0.00  0.00    +0.002 A 
ATOM     28  C   UNL     1       5.222  -7.845  -8.280  0.00  0.00    +0.028 A 
ATOM     29  C   UNL     1       4.350  -6.953  -7.672  0.00  0.00    +0.065 A 
ATOM     30  N   UNL     1       3.740  -6.926  -6.421  0.00  0.00    -0.326 N 
ATOM     31  H   UNL     1       3.845  -7.591  -5.723  0.00  0.00    +0.169 HD
ENDBRANCH  18  20
ENDBRANCH   4  18
TORSDOF 4
