REMARK  Name = ZINC63537993
REMARK  10 active torsions:
REMARK  status: ('A' for Active; 'I' for Inactive)
REMARK    1  A    between atoms: C_1  and  C_2
REMARK    2  A    between atoms: C_2  and  O_3
REMARK    3  A    between atoms: O_3  and  C_4
REMARK    4  A    between atoms: C_9  and  C_10
REMARK    5  A    between atoms: N_14  and  C_26
REMARK    6  A    between atoms: N_16  and  C_17
REMARK    7  A    between atoms: C_20  and  O_23
REMARK    8  A    between atoms: O_23  and  C_24
REMARK    9  A    between atoms: C_26  and  C_27
REMARK   10  A    between atoms: C_27  and  C_28
REMARK                            x       y       z     vdW  Elec       q    Type
REMARK                         _______ _______ _______ _____ _____    ______ ____
ROOT
ATOM      1  C   UNL     1      -3.969  -1.534   0.032  0.00  0.00    +0.032 C 
ATOM      2  C   UNL     1      -5.211  -2.074  -0.062  0.00  0.00    +0.078 C 
ATOM      3  C   UNL     1      -5.616  -3.493  -0.081  0.00  0.00    +0.259 C 
ATOM      4  O   UNL     1      -4.796  -4.389  -0.007  0.00  0.00    -0.269 OA
ATOM      5  N   UNL     1      -6.910  -3.746  -0.180  0.00  0.00    -0.246 N 
ATOM      6  C   UNL     1      -7.823  -2.716  -0.263  0.00  0.00    +0.168 C 
ATOM      7  N   UNL     1      -9.130  -2.790  -0.365  0.00  0.00    -0.225 NA
ATOM      8  S   UNL     1      -6.795  -1.258  -0.187  0.00  0.00    -0.049 S 
ENDROOT
BRANCH   1  14
ATOM      9  C   UNL     1      -1.608  -2.199  -0.402  0.00  0.00    +0.128 A 
ATOM     10  C   UNL     1      -0.521  -3.016  -0.140  0.00  0.00    +0.046 A 
ATOM     11  C   UNL     1      -0.622  -4.026   0.797  0.00  0.00    +0.004 A 
ATOM     12  C   UNL     1      -1.808  -4.231   1.484  0.00  0.00    +0.001 A 
ATOM     13  C   UNL     1      -2.901  -3.428   1.238  0.00  0.00    +0.011 A 
ATOM     14  C   UNL     1      -2.811  -2.397   0.295  0.00  0.00    +0.018 A 
BRANCH   9  15
ATOM     15  O   UNL     1      -1.510  -1.206  -1.323  0.00  0.00    -0.492 OA
BRANCH  15  17
ATOM     16  C   UNL     1      -0.335   0.096  -2.985  0.00  0.00    +0.048 C 
ATOM     17  C   UNL     1      -0.255  -1.065  -1.992  0.00  0.00    +0.226 C 
ENDBRANCH  15  17
ENDBRANCH   9  15
ENDBRANCH   1  14
BRANCH   7  18
ATOM     18  C   UNL     1      -9.877  -1.644  -0.435  0.00  0.00    +0.067 A 
ATOM     19  C   UNL     1      -9.610  -0.580   0.428  0.00  0.00    +0.031 A 
ATOM     20  C   UNL     1     -10.365   0.572   0.354  0.00  0.00    +0.048 A 
ATOM     21  C   UNL     1     -11.389   0.674  -0.577  0.00  0.00    +0.120 A 
ATOM     22  C   UNL     1     -11.659  -0.381  -1.437  0.00  0.00    +0.048 A 
ATOM     23  C   UNL     1     -10.905  -1.534  -1.374  0.00  0.00    +0.031 A 
BRANCH  21  24
ATOM     24  O   UNL     1     -12.131   1.812  -0.646  0.00  0.00    -0.495 OA
ATOM     25  C   UNL     1     -13.169   1.850  -1.628  0.00  0.00    +0.277 C 
ENDBRANCH  21  24
ENDBRANCH   7  18
BRANCH   5  26
ATOM     26  C   UNL     1      -7.378  -5.134  -0.205  0.00  0.00    +0.120 C 
BRANCH  26  27
ATOM     27  C   UNL     1      -7.655  -5.604   1.225  0.00  0.00    +0.052 C 
BRANCH  27  28
ATOM     28  C   UNL     1      -8.136  -7.031   1.200  0.00  0.00    -0.040 C 
ATOM     29  C   UNL     1      -7.387  -8.145   1.370  0.00  0.00    -0.001 A 
ATOM     30  C   UNL     1      -5.956  -8.352   1.618  0.00  0.00    +0.010 A 
ATOM     31  C   UNL     1      -5.488  -9.615   1.746  0.00  0.00    +0.001 A 
ATOM     32  C   UNL     1      -6.335 -10.728   1.647  0.00  0.00    +0.002 A 
ATOM     33  C   UNL     1      -7.661 -10.617   1.421  0.00  0.00    +0.026 A 
ATOM     34  C   UNL     1      -8.260  -9.337   1.270  0.00  0.00    +0.043 A 
ATOM     35  N   UNL     1      -9.500  -8.974   1.048  0.00  0.00    -0.380 N 
ATOM     36  C   UNL     1      -9.555  -7.509   0.987  0.00  0.00    +0.144 C 
ATOM     37  H   UNL     1     -10.255  -9.574   0.945  0.00  0.00    +0.160 HD
ENDBRANCH  27  28
ENDBRANCH  26  27
ENDBRANCH   5  26
TORSDOF 8
