REMARK  Name = ZINC06838108
REMARK  7 active torsions:
REMARK  status: ('A' for Active; 'I' for Inactive)
REMARK    1  A    between atoms: C_1  and  C_2
REMARK    2  A    between atoms: C_2  and  C_3
REMARK    3  A    between atoms: C_2  and  C_4
REMARK    4  A    between atoms: C_2  and  C_5
REMARK    5  A    between atoms: N_7  and  C_8
REMARK    6  A    between atoms: C_11  and  C_14
REMARK    7  A    between atoms: N_16  and  C_21
REMARK                            x       y       z     vdW  Elec       q    Type
REMARK                         _______ _______ _______ _____ _____    ______ ____
ROOT
ATOM      1  C   UNL     1      -4.016   7.122  -0.595  0.00  0.00    +0.170 C 
ATOM      2  N   UNL     1      -3.303   6.067  -1.338  0.00  0.00    -0.254 N 
ATOM      3  C   UNL     1      -3.236   6.139  -2.661  0.00  0.00    +0.231 C 
ATOM      4  O   UNL     1      -2.667   5.286  -3.309  0.00  0.00    -0.274 OA
ATOM      5  C   UNL     1      -3.898   7.329  -3.336  0.00  0.00    +0.167 C 
ATOM      6  S   UNL     1      -4.160   8.436  -1.883  0.00  0.00    -0.124 S 
ENDROOT
BRANCH   2   7
ATOM      7  C   UNL     1      -2.709   4.999  -0.656  0.00  0.00    +0.038 A 
ATOM      8  C   UNL     1      -1.361   4.718  -0.840  0.00  0.00    +0.024 A 
ATOM      9  C   UNL     1      -0.780   3.665  -0.165  0.00  0.00    +0.006 A 
ATOM     10  C   UNL     1      -1.535   2.885   0.696  0.00  0.00    -0.044 A 
ATOM     11  C   UNL     1      -2.877   3.161   0.881  0.00  0.00    -0.042 A 
ATOM     12  C   UNL     1      -3.464   4.217   0.206  0.00  0.00    +0.027 A 
ATOM     13  C   UNL     1      -3.473   2.174   1.861  0.00  0.00    +0.036 C 
ATOM     14  C   UNL     1      -2.467   1.004   1.918  0.00  0.00    +0.009 C 
ATOM     15  C   UNL     1      -1.137   1.687   1.537  0.00  0.00    +0.036 C 
ENDBRANCH   2   7
BRANCH   1  19
ATOM     16  C   UNL     1      -1.706   8.484   2.734  0.00  0.00    +0.033 A 
ATOM     17  C   UNL     1      -3.094   8.515   2.790  0.00  0.00    +0.023 A 
ATOM     18  C   UNL     1      -3.837   8.074   1.713  0.00  0.00    +0.008 A 
ATOM     19  C   UNL     1      -3.202   7.603   0.579  0.00  0.00    -0.017 A 
ATOM     20  C   UNL     1      -1.821   7.566   0.521  0.00  0.00    +0.008 A 
ATOM     21  C   UNL     1      -1.071   8.010   1.593  0.00  0.00    +0.023 A 
BRANCH  16  24
ATOM     22  C   UNL     1      -1.397   8.731   5.080  0.00  0.00    +0.223 C 
ATOM     23  O   UNL     1      -2.403   8.081   5.270  0.00  0.00    -0.275 OA
ATOM     24  N   UNL     1      -0.950   8.930   3.823  0.00  0.00    -0.285 N 
ATOM     25  H   UNL     1      -0.105   9.381   3.675  0.00  0.00    +0.155 HD
BRANCH  22  27
ATOM     26  C   UNL     1      -1.358   8.946   7.550  0.00  0.00    +0.020 C 
ATOM     27  C   UNL     1      -0.646   9.316   6.247  0.00  0.00    +0.039 C 
ATOM     28  C   UNL     1       0.779   8.759   6.269  0.00  0.00    +0.020 C 
ATOM     29  C   UNL     1      -0.595  10.839   6.110  0.00  0.00    +0.020 C 
ENDBRANCH  22  27
ENDBRANCH  16  24
ENDBRANCH   1  19
TORSDOF 4
