REMARK  Name = ZINC09347483
REMARK  12 active torsions:
REMARK  status: ('A' for Active; 'I' for Inactive)
REMARK    1  A    between atoms: C_1  and  C_2
REMARK    2  A    between atoms: C_2  and  O_3
REMARK    3  A    between atoms: O_3  and  C_4
REMARK    4  A    between atoms: C_4  and  C_6
REMARK    5  A    between atoms: C_10  and  N_11
REMARK    6  A    between atoms: C_12  and  C_14
REMARK    7  A    between atoms: C_14  and  S_15
REMARK    8  A    between atoms: S_15  and  C_16
REMARK    9  A    between atoms: C_22  and  C_24
REMARK   10  A    between atoms: C_24  and  C_25
REMARK   11  A    between atoms: C_25  and  C_26
REMARK   12  A    between atoms: C_25  and  C_27
REMARK                            x       y       z     vdW  Elec       q    Type
REMARK                         _______ _______ _______ _____ _____    ______ ____
ROOT
ATOM      1  N   UNL     1       5.329  -2.502   2.007  0.00  0.00    -0.279 N 
ATOM      2  C   UNL     1       6.607  -2.402   1.590  0.00  0.00    +0.228 C 
ATOM      3  O   UNL     1       6.904  -1.600   0.731  0.00  0.00    -0.275 OA
ATOM      4  H   UNL     1       5.091  -3.144   2.694  0.00  0.00    +0.155 HD
ENDROOT
BRANCH   1   9
ATOM      5  C   UNL     1       2.999  -1.642   1.746  0.00  0.00    +0.091 A 
ATOM      6  C   UNL     1       2.179  -0.684   1.016  0.00  0.00    -0.021 A 
ATOM      7  C   UNL     1       2.846   0.061   0.110  0.00  0.00    -0.004 A 
ATOM      8  S   UNL     1       4.530  -0.479   0.225  0.00  0.00    -0.077 S 
ATOM      9  C   UNL     1       4.354  -1.688   1.453  0.00  0.00    +0.086 A 
ATOM     10  C   UNL     1       2.288   1.105  -0.807  0.00  0.00    +0.043 C 
ATOM     11  C   UNL     1       1.406   2.067  -0.000  0.00  0.00    +0.005 C 
ATOM     12  C   UNL     1      -0.019   1.523   0.010  0.00  0.00    +0.001 C 
ATOM     13  C   UNL     1       0.002  -0.004   0.002  0.00  0.00    +0.005 C 
ATOM     14  C   UNL     1       0.683  -0.534   1.259  0.00  0.00    +0.037 C 
BRANCH   5  15
ATOM     15  C   UNL     1       2.413  -2.526   2.756  0.00  0.00    +0.342 C 
ATOM     16  O   UNL     1       1.984  -3.618   2.434  0.00  0.00    -0.245 OA
BRANCH  15  17
ATOM     17  O   UNL     1       2.348  -2.130   4.044  0.00  0.00    -0.461 OA
BRANCH  17  19
ATOM     18  C   UNL     1       1.769  -2.438   6.389  0.00  0.00    +0.048 C 
ATOM     19  C   UNL     1       1.754  -3.057   4.990  0.00  0.00    +0.229 C 
ENDBRANCH  17  19
ENDBRANCH  15  17
ENDBRANCH   5  15
ENDBRANCH   1   9
BRANCH   2  20
ATOM     20  C   UNL     1       7.667  -3.288   2.193  0.00  0.00    +0.172 C 
BRANCH  20  21
ATOM     21  S   UNL     1       9.270  -2.917   1.429  0.00  0.00    -0.088 S 
BRANCH  21  22
ATOM     22  C   UNL     1      10.388  -4.019   2.229  0.00  0.00    +0.160 A 
ATOM     23  N   UNL     1      10.165  -4.924   3.171  0.00  0.00    -0.133 NA
ATOM     24  N   UNL     1      11.091  -5.640   3.641  0.00  0.00    -0.125 NA
ATOM     25  C   UNL     1      12.342  -5.532   3.223  0.00  0.00    +0.189 A 
ATOM     26  S   UNL     1      12.150  -4.241   1.997  0.00  0.00    -0.024 S 
ATOM     27  N   UNL     1      13.482  -6.227   3.620  0.00  0.00    -0.263 N 
ATOM     28  C   UNL     1      13.394  -7.177   4.572  0.00  0.00    +0.219 C 
ATOM     29  O   UNL     1      12.322  -7.427   5.082  0.00  0.00    -0.275 OA
ATOM     30  H   UNL     1      14.338  -6.027   3.212  0.00  0.00    +0.157 HD
BRANCH  28  31
ATOM     31  C   UNL     1      14.627  -7.929   5.001  0.00  0.00    +0.099 C 
BRANCH  31  32
ATOM     32  C   UNL     1      14.255  -8.943   6.085  0.00  0.00    -0.008 C 
ATOM     33  C   UNL     1      13.320 -10.001   5.495  0.00  0.00    +0.008 C 
ATOM     34  C   UNL     1      15.523  -9.618   6.610  0.00  0.00    +0.008 C 
ENDBRANCH  31  32
ENDBRANCH  28  31
ENDBRANCH  21  22
ENDBRANCH  20  21
ENDBRANCH   2  20
TORSDOF 9
