REMARK  Name = ZINC13541089
REMARK  6 active torsions:
REMARK  status: ('A' for Active; 'I' for Inactive)
REMARK    1  A    between atoms: C_1  and  C_2
REMARK    2  A    between atoms: C_4  and  C_39
REMARK    3  A    between atoms: C_9  and  C_28
REMARK    4  A    between atoms: C_11  and  C_19
REMARK    5  A    between atoms: C_22  and  N_25
REMARK    6  A    between atoms: C_28  and  C_30
REMARK                            x       y       z     vdW  Elec       q    Type
REMARK                         _______ _______ _______ _____ _____    ______ ____
ROOT
ATOM      1  C   UNL     1      -0.415   1.776   0.622  0.00  0.00    +0.044 C 
ATOM      2  C   UNL     1      -0.313   0.281   0.469  0.00  0.00    -0.050 A 
ATOM      3  C   UNL     1      -0.323  -0.289  -0.792  0.00  0.00    +0.008 A 
ATOM      4  C   UNL     1      -0.230  -1.657  -0.938  0.00  0.00    -0.029 A 
ATOM      5  C   UNL     1      -0.125  -2.477   0.184  0.00  0.00    +0.042 A 
ATOM      6  C   UNL     1      -0.114  -1.892   1.448  0.00  0.00    +0.004 A 
ATOM      7  C   UNL     1      -0.202  -0.525   1.588  0.00  0.00    +0.011 A 
ATOM      8  C   UNL     1       0.010  -3.028   2.420  0.00  0.00    +0.137 C 
ATOM      9  C   UNL     1      -1.168  -3.064   3.408  0.00  0.00    +0.103 C 
ATOM     10  C   UNL     1      -0.584  -3.853   4.607  0.00  0.00    +0.050 C 
ATOM     11  C   UNL     1       0.942  -3.743   4.449  0.00  0.00    +0.077 C 
ATOM     12  N   UNL     1       1.208  -2.895   3.272  0.00  0.00    -0.271 NA
ATOM     13  C   UNL     1       1.372  -1.456   3.637  0.00  0.00    +0.155 C 
ATOM     14  S   UNL     1       2.315  -1.631   5.215  0.00  0.00    -0.144 S 
ATOM     15  C   UNL     1       1.566  -3.208   5.751  0.00  0.00    +0.090 C 
ATOM     16  C   UNL     1       0.062  -4.269   1.576  0.00  0.00    +0.243 C 
ATOM     17  O   UNL     1       0.160  -5.412   1.972  0.00  0.00    -0.273 OA
ATOM     18  N   UNL     1      -0.022  -3.866   0.293  0.00  0.00    -0.283 N 
ATOM     19  C   UNL     1      -0.244  -2.268  -2.315  0.00  0.00    +0.045 C 
ATOM     20  H   UNL     1      -0.012  -4.469  -0.467  0.00  0.00    +0.155 HD
ENDROOT
BRANCH  10  21
ATOM     21  C   UNL     1      -1.025  -3.233   5.907  0.00  0.00    -0.042 A 
ATOM     22  C   UNL     1      -1.683  -4.000   6.851  0.00  0.00    +0.006 A 
ATOM     23  C   UNL     1      -2.087  -3.430   8.044  0.00  0.00    +0.033 A 
ATOM     24  C   UNL     1      -1.834  -2.095   8.293  0.00  0.00    +0.126 A 
ATOM     25  C   UNL     1      -1.176  -1.328   7.350  0.00  0.00    +0.033 A 
ATOM     26  C   UNL     1      -0.767  -1.898   6.159  0.00  0.00    +0.006 A 
BRANCH  24  27
ATOM     27  N   UNL     1      -2.268  -1.485   9.570  0.00  0.00    +0.056 N 
ATOM     28  O   UNL     1      -2.845  -2.155  10.395  0.00  0.00    -0.126 OA
ATOM     29  O   UNL     1      -2.047  -0.317   9.789  0.00  0.00    -0.126 OA
ENDBRANCH  24  27
ENDBRANCH  10  21
BRANCH   9  30
ATOM     30  C   UNL     1      -1.560  -1.669   3.822  0.00  0.00    +0.169 C 
ATOM     31  O   UNL     1      -0.894  -0.721   3.466  0.00  0.00    -0.292 OA
BRANCH  30  32
ATOM     32  C   UNL     1      -2.752  -1.459   4.660  0.00  0.00    +0.018 A 
ATOM     33  C   UNL     1      -3.519  -2.551   5.078  0.00  0.00    +0.011 A 
ATOM     34  C   UNL     1      -4.634  -2.345   5.863  0.00  0.00    +0.001 A 
ATOM     35  C   UNL     1      -4.995  -1.062   6.237  0.00  0.00    +0.000 A 
ATOM     36  C   UNL     1      -4.241   0.024   5.827  0.00  0.00    +0.001 A 
ATOM     37  C   UNL     1      -3.120  -0.166   5.046  0.00  0.00    +0.011 A 
ENDBRANCH  30  32
ENDBRANCH   9  30
TORSDOF 4
