REMARK  Name = ZINC40427047
REMARK  5 active torsions:
REMARK  status: ('A' for Active; 'I' for Inactive)
REMARK    1  A    between atoms: C_1  and  C_2
REMARK    2  A    between atoms: C_2  and  C_3
REMARK    3  A    between atoms: C_3  and  C_4
REMARK    4  A    between atoms: C_4  and  C_5
REMARK    5  A    between atoms: C_5  and  C_6
REMARK                            x       y       z     vdW  Elec       q    Type
REMARK                         _______ _______ _______ _____ _____    ______ ____
ROOT
ATOM      1  C   UNL     1      -2.828  -4.100   0.007  0.00  0.00    +0.216 C 
ATOM      2  O   UNL     1      -1.769  -4.692  -0.006  0.00  0.00    -0.276 OA
ATOM      3  N   UNL     1      -3.985  -4.790   0.014  0.00  0.00    -0.301 N 
ATOM      4  C   UNL     1      -5.276  -4.087   0.024  0.00  0.00    +0.111 C 
ATOM      5  C   UNL     1      -6.113  -4.609   1.196  0.00  0.00    +0.064 C 
ATOM      6  C   UNL     1      -6.229  -6.132   1.095  0.00  0.00    +0.102 C 
ATOM      7  C   UNL     1      -4.834  -6.756   1.184  0.00  0.00    +0.064 C 
ATOM      8  C   UNL     1      -3.982  -6.259   0.006  0.00  0.00    +0.111 C 
ATOM      9  N   UNL     1      -7.051  -6.626   2.207  0.00  0.00    -0.323 N 
ATOM     10  C   UNL     1      -7.562  -7.918   2.136  0.00  0.00    +0.042 A 
ATOM     11  C   UNL     1      -7.809  -8.671   3.270  0.00  0.00    +0.025 A 
ATOM     12  C   UNL     1      -8.311  -9.953   3.145  0.00  0.00    +0.023 A 
ATOM     13  C   UNL     1      -8.568 -10.491   1.893  0.00  0.00    +0.060 A 
ATOM     14  C   UNL     1      -8.330  -9.751   0.750  0.00  0.00    +0.073 A 
ATOM     15  C   UNL     1      -7.828  -8.456   0.864  0.00  0.00    +0.077 A 
ATOM     16  C   UNL     1      -7.570  -7.617  -0.320  0.00  0.00    +0.249 C 
ATOM     17  O   UNL     1      -8.010  -7.937  -1.408  0.00  0.00    -0.270 OA
ATOM     18  N   UNL     1      -6.841  -6.491  -0.185  0.00  0.00    -0.290 N 
ATOM     19 CL   UNL     1      -8.652 -10.430  -0.814  0.00  0.00    -0.081 Cl
ATOM     20 CL   UNL     1      -9.193 -12.105   1.761  0.00  0.00    -0.082 Cl
ATOM     21  H   UNL     1      -7.234  -6.063   2.975  0.00  0.00    +0.148 HD
ATOM     22  H   UNL     1      -6.720  -5.907  -0.950  0.00  0.00    +0.151 HD
ENDROOT
BRANCH   1  23
ATOM     23  C   UNL     1      -2.848  -2.593   0.015  0.00  0.00    +0.096 C 
BRANCH  23  24
ATOM     24  C   UNL     1      -1.413  -2.063   0.004  0.00  0.00    +0.009 C 
BRANCH  24  25
ATOM     25  C   UNL     1      -1.433  -0.534   0.013  0.00  0.00    +0.000 C 
BRANCH  25  27
ATOM     26  C   UNL     1      -0.019   1.526   0.010  0.00  0.00    +0.004 C 
ATOM     27  C   UNL     1       0.002  -0.004   0.002  0.00  0.00    -0.003 C 
ENDBRANCH  25  27
ENDBRANCH  24  25
ENDBRANCH  23  24
ENDBRANCH   1  23
TORSDOF 4
