REMARK  Name = ZINC37247816
REMARK  7 active torsions:
REMARK  status: ('A' for Active; 'I' for Inactive)
REMARK    1  A    between atoms: C_1  and  C_2
REMARK    2  A    between atoms: C_2  and  C_3
REMARK    3  A    between atoms: C_3  and  O_4
REMARK    4  A    between atoms: O_4  and  C_5
REMARK    5  A    between atoms: C_10  and  C_11
REMARK    6  A    between atoms: C_11  and  N_12
REMARK    7  A    between atoms: N_12  and  C_13
REMARK                            x       y       z     vdW  Elec       q    Type
REMARK                         _______ _______ _______ _____ _____    ______ ____
ROOT
ATOM      1  C   UNL     1       1.385  -2.554   2.273  0.00  0.00    +0.125 A 
ATOM      2  C   UNL     1       1.962  -1.797   3.283  0.00  0.00    +0.047 A 
ATOM      3  C   UNL     1       2.595  -2.423   4.338  0.00  0.00    +0.019 A 
ATOM      4  C   UNL     1       2.655  -3.805   4.389  0.00  0.00    +0.018 A 
ATOM      5  C   UNL     1       2.082  -4.561   3.384  0.00  0.00    +0.024 A 
ATOM      6  C   UNL     1       1.442  -3.939   2.329  0.00  0.00    +0.012 A 
ATOM      7 BR   UNL     1       3.523  -4.660   5.836  0.00  0.00    -0.050 Br
ENDROOT
BRANCH   1   8
ATOM      8  O   UNL     1       0.761  -1.940   1.234  0.00  0.00    -0.492 OA
BRANCH   8   9
ATOM      9  C   UNL     1       0.742  -0.511   1.242  0.00  0.00    +0.229 C 
BRANCH   9  11
ATOM     10  C   UNL     1      -0.019   1.526   0.010  0.00  0.00    +0.007 C 
ATOM     11  C   UNL     1       0.002  -0.004   0.002  0.00  0.00    +0.038 C 
ENDBRANCH   9  11
ENDBRANCH   8   9
ENDBRANCH   1   8
BRANCH   6  12
ATOM     12  C   UNL     1       0.810  -4.764   1.237  0.00  0.00    +0.140 C 
BRANCH  12  13
ATOM     13  N   UNL     1       1.708  -4.811   0.080  0.00  0.00    -0.340 N 
ATOM     14  H   UNL     1       2.560  -4.348   0.108  0.00  0.00    +0.146 HD
BRANCH  13  15
ATOM     15  C   UNL     1       1.336  -5.522  -1.063  0.00  0.00    +0.028 A 
ATOM     16  C   UNL     1       0.113  -6.180  -1.107  0.00  0.00    +0.023 A 
ATOM     17  C   UNL     1      -0.251  -6.882  -2.239  0.00  0.00    +0.003 A 
ATOM     18  C   UNL     1       0.599  -6.931  -3.328  0.00  0.00    +0.014 A 
ATOM     19  C   UNL     1       1.817  -6.277  -3.288  0.00  0.00    +0.015 A 
ATOM     20  C   UNL     1       2.185  -5.567  -2.161  0.00  0.00    +0.037 A 
ATOM     21  I   UNL     1       3.102  -6.355  -4.941  0.00  0.00    -0.044 I 
ENDBRANCH  13  15
ENDBRANCH  12  13
ENDBRANCH   6  12
TORSDOF 6
