REMARK  Name = ZINC04309893
REMARK  4 active torsions:
REMARK  status: ('A' for Active; 'I' for Inactive)
REMARK    1  A    between atoms: C_1  and  C_2
REMARK    2  A    between atoms: N_4  and  C_5
REMARK    3  A    between atoms: C_18  and  C_21
REMARK    4  A    between atoms: C_26  and  N_27
REMARK                            x       y       z     vdW  Elec       q    Type
REMARK                         _______ _______ _______ _____ _____    ______ ____
ROOT
ATOM      1  C   UNL     1      -5.447   4.088   1.471  0.00  0.00    +0.034 A 
ATOM      2  C   UNL     1      -5.133   4.143   2.822  0.00  0.00    +0.025 A 
ATOM      3  C   UNL     1      -4.000   3.514   3.295  0.00  0.00    +0.025 A 
ATOM      4  C   UNL     1      -3.164   2.823   2.426  0.00  0.00    +0.031 A 
ATOM      5  C   UNL     1      -3.491   2.759   1.067  0.00  0.00    -0.018 A 
ATOM      6  C   UNL     1      -4.621   3.393   0.598  0.00  0.00    +0.029 A 
ATOM      7  C   UNL     1      -2.586   1.994   0.182  0.00  0.00    +0.049 C 
ATOM      8  C   UNL     1      -2.470   2.292  -1.268  0.00  0.00    -0.023 C 
ATOM      9  C   UNL     1      -1.228   2.029  -1.657  0.00  0.00    -0.030 C 
ATOM     10  C   UNL     1      -0.395   1.556  -0.464  0.00  0.00    +0.033 C 
ATOM     11  C   UNL     1      -1.135   2.213   0.709  0.00  0.00    +0.029 C 
ATOM     12  C   UNL     1      -1.083   1.473   2.043  0.00  0.00    +0.107 C 
ATOM     13  N   UNL     1      -2.000   2.223   2.928  0.00  0.00    -0.336 N 
ATOM     14  H   UNL     1      -1.793   2.302   3.872  0.00  0.00    +0.147 HD
ENDROOT
BRANCH  12  15
ATOM     15  C   UNL     1      -1.552   0.049   1.893  0.00  0.00    +0.003 A 
ATOM     16  C   UNL     1      -2.887  -0.262   2.078  0.00  0.00    +0.008 A 
ATOM     17  C   UNL     1      -3.318  -1.568   1.941  0.00  0.00    +0.000 A 
ATOM     18  C   UNL     1      -2.414  -2.564   1.619  0.00  0.00    +0.002 A 
ATOM     19  C   UNL     1      -1.080  -2.253   1.435  0.00  0.00    +0.033 A 
ATOM     20  C   UNL     1      -0.650  -0.946   1.567  0.00  0.00    +0.131 A 
BRANCH  20  21
ATOM     21  N   UNL     1       0.777  -0.613   1.363  0.00  0.00    +0.057 N 
ATOM     22  O   UNL     1       1.591  -1.501   1.183  0.00  0.00    -0.126 OA
ATOM     23  O   UNL     1       1.139   0.550   1.375  0.00  0.00    -0.126 OA
ENDBRANCH  20  21
ENDBRANCH  12  15
BRANCH   1  27
ATOM     24  C   UNL     1      -8.973   5.380   1.189  0.00  0.00    +0.109 C 
ATOM     25  C   UNL     1      -7.708   4.781   1.747  0.00  0.00    +0.214 C 
ATOM     26  O   UNL     1      -7.692   4.343   2.878  0.00  0.00    -0.276 OA
ATOM     27  N   UNL     1      -6.594   4.733   0.989  0.00  0.00    -0.286 N 
ATOM     28  H   UNL     1      -6.587   5.144   0.111  0.00  0.00    +0.155 HD
ENDBRANCH   1  27
TORSDOF 3
