REMARK  Name = ZINC08942744
REMARK  6 active torsions:
REMARK  status: ('A' for Active; 'I' for Inactive)
REMARK    1  A    between atoms: C_3  and  C_6
REMARK    2  A    between atoms: C_6  and  C_8
REMARK    3  A    between atoms: C_6  and  N_59
REMARK    4  A    between atoms: C_8  and  N_9
REMARK    5  A    between atoms: N_15  and  C_18
REMARK    6  A    between atoms: C_21  and  C_23
REMARK                            x       y       z     vdW  Elec       q    Type
REMARK                         _______ _______ _______ _____ _____    ______ ____
ROOT
ATOM      1  N   UNL     1       2.136   1.580   1.310  0.00  0.00    -0.300 N 
ATOM      2  C   UNL     1       3.342   2.144   1.524  0.00  0.00    +0.302 C 
ATOM      3  O   UNL     1       3.924   2.699   0.612  0.00  0.00    -0.253 OA
ATOM      4  N   UNL     1       3.902   2.092   2.749  0.00  0.00    -0.283 N 
ATOM      5  C   UNL     1       3.266   1.335   3.838  0.00  0.00    +0.128 C 
ATOM      6  C   UNL     1       4.318   0.399   4.452  0.00  0.00    +0.125 C 
ATOM      7  N   UNL     1       5.495   1.184   4.847  0.00  0.00    -0.314 N 
ATOM      8  C   UNL     1       6.136   1.806   3.681  0.00  0.00    +0.125 C 
ATOM      9  C   UNL     1       5.162   2.795   3.033  0.00  0.00    +0.128 C 
ATOM     10  H   UNL     1       1.704   1.076   2.016  0.00  0.00    +0.150 HD
ENDROOT
BRANCH   7  11
ATOM     11  C   UNL     1       6.400   0.403   5.556  0.00  0.00    +0.099 A 
ATOM     12  C   UNL     1       5.984  -0.267   6.702  0.00  0.00    +0.042 A 
ATOM     13  C   UNL     1       6.893  -1.045   7.394  0.00  0.00    +0.017 A 
ATOM     14  C   UNL     1       8.197  -1.118   6.923  0.00  0.00    +0.071 A 
ATOM     15  C   UNL     1       8.544  -0.422   5.782  0.00  0.00    +0.096 A 
ATOM     16  N   UNL     1       7.675   0.347   5.073  0.00  0.00    -0.349 N 
ATOM     17  H   UNL     1       7.960   0.854   4.227  0.00  0.00    +0.167 HD
BRANCH  14  18
ATOM     18  C   UNL     1       9.224  -1.949   7.648  0.00  0.00    +0.419 C 
ATOM     19  F   UNL     1      10.451  -1.862   6.981  0.00  0.00    -0.166 F 
ATOM     20  F   UNL     1       9.369  -1.474   8.956  0.00  0.00    -0.166 F 
ATOM     21  F   UNL     1       8.805  -3.284   7.681  0.00  0.00    -0.166 F 
ENDBRANCH  14  18
ENDBRANCH   7  11
BRANCH   1  22
ATOM     22  C   UNL     1       1.479   1.730   0.009  0.00  0.00    +0.095 C 
BRANCH  22  23
ATOM     23  C   UNL     1       0.081   1.111   0.071  0.00  0.00    -0.013 C 
BRANCH  23  29
ATOM     24  C   UNL     1       1.157  -1.034  -0.258  0.00  0.00    -0.049 C 
ATOM     25  C   UNL     1       1.273  -2.454   0.300  0.00  0.00    +0.141 C 
ATOM     26  O   UNL     1      -0.019  -3.069   0.297  0.00  0.00    -0.383 OA
ATOM     27  C   UNL     1      -0.996  -2.359   1.064  0.00  0.00    +0.141 C 
ATOM     28  C   UNL     1      -1.134  -0.937   0.513  0.00  0.00    -0.049 C 
ATOM     29  N   UNL     1       0.188  -0.279   0.564  0.00  0.00    +0.389 N 
ATOM     30  H   UNL     1       0.516  -0.263   1.537  0.00  0.00    -0.081 HD
ENDBRANCH  23  29
BRANCH  23  33
ATOM     31  C   UNL     1      -2.382   3.449   1.797  0.00  0.00    +0.008 A 
ATOM     32  C   UNL     1      -1.708   2.849   0.750  0.00  0.00    +0.009 A 
ATOM     33  C   UNL     1      -0.777   1.903   1.024  0.00  0.00    -0.022 A 
ATOM     34  S   UNL     1      -0.837   1.831   2.807  0.00  0.00    -0.103 S 
ATOM     35  C   UNL     1      -2.092   3.074   3.067  0.00  0.00    +0.045 A 
ENDBRANCH  23  33
ENDBRANCH  22  23
ENDBRANCH   1  22
TORSDOF 6
