REMARK  Name = ZINC14579259
REMARK  12 active torsions:
REMARK  status: ('A' for Active; 'I' for Inactive)
REMARK    1  A    between atoms: C_1  and  C_2
REMARK    2  A    between atoms: C_2  and  C_3
REMARK    3  A    between atoms: C_2  and  C_4
REMARK    4  A    between atoms: C_4  and  C_5
REMARK    5  A    between atoms: C_5  and  N_6
REMARK    6  A    between atoms: N_6  and  C_7
REMARK    7  A    between atoms: C_8  and  N_23
REMARK    8  A    between atoms: N_9  and  C_16
REMARK    9  A    between atoms: C_16  and  C_17
REMARK   10  A    between atoms: C_24  and  C_26
REMARK   11  A    between atoms: C_27  and  C_28
REMARK   12  A    between atoms: C_33  and  N_34
REMARK                            x       y       z     vdW  Elec       q    Type
REMARK                         _______ _______ _______ _____ _____    ______ ____
ROOT
ATOM      1  N   UNL     1       0.999   3.357  -1.444  0.00  0.00    -0.261 N 
ATOM      2  C   UNL     1       2.191   3.965  -1.280  0.00  0.00    +0.244 C 
ATOM      3  O   UNL     1       3.217   3.311  -1.323  0.00  0.00    -0.270 OA
ENDROOT
BRANCH   1   4
ATOM      4  C   UNL     1       0.944   1.984  -1.759  0.00  0.00    +0.140 A 
ATOM      5  C   UNL     1       0.486   1.563  -2.991  0.00  0.00    +0.128 A 
ATOM      6  N   UNL     1       0.444   0.217  -3.268  0.00  0.00    -0.276 N 
ATOM      7  C   UNL     1       0.845  -0.680  -2.349  0.00  0.00    +0.331 A 
ATOM      8  O   UNL     1       0.800  -1.866  -2.613  0.00  0.00    -0.246 OA
ATOM      9  N   UNL     1       1.294  -0.289  -1.143  0.00  0.00    -0.273 N 
ATOM     10  H   UNL     1       1.585  -0.976  -0.477  0.00  0.00    +0.173 HD
ATOM     11  C   UNL     1       1.355   1.018  -0.821  0.00  0.00    +0.277 A 
ATOM     12  O   UNL     1       1.758   1.361   0.278  0.00  0.00    -0.266 OA
BRANCH   5  13
ATOM     13  N   UNL     1       0.076   2.479  -3.930  0.00  0.00    -0.343 N 
ATOM     14  H   UNL     1      -0.176   2.183  -4.819  0.00  0.00    +0.144 HD
ATOM     15  H   UNL     1       0.038   3.422  -3.704  0.00  0.00    +0.144 HD
ENDBRANCH   5  13
BRANCH   6  16
ATOM     16  C   UNL     1      -0.040  -0.244  -4.572  0.00  0.00    +0.163 C 
BRANCH  16  17
ATOM     17  C   UNL     1      -1.529  -0.466  -4.505  0.00  0.00    -0.028 A 
ATOM     18  C   UNL     1      -2.028  -1.704  -4.147  0.00  0.00    +0.005 A 
ATOM     19  C   UNL     1      -3.393  -1.907  -4.081  0.00  0.00    +0.000 A 
ATOM     20  C   UNL     1      -4.261  -0.874  -4.383  0.00  0.00    +0.000 A 
ATOM     21  C   UNL     1      -3.762   0.364  -4.746  0.00  0.00    +0.000 A 
ATOM     22  C   UNL     1      -2.396   0.568  -4.807  0.00  0.00    +0.005 A 
ENDBRANCH  16  17
ENDBRANCH   6  16
ENDBRANCH   1   4
BRANCH   2  23
ATOM     23  C   UNL     1       2.251   5.409  -1.051  0.00  0.00    +0.068 C 
ATOM     24  C   UNL     1       3.443   6.016  -0.887  0.00  0.00    +0.015 C 
BRANCH  24  25
ATOM     25  C   UNL     1       3.504   7.469  -0.657  0.00  0.00    +0.005 A 
ATOM     26  C   UNL     1       2.325   8.211  -0.531  0.00  0.00    +0.010 A 
ATOM     27  C   UNL     1       2.390   9.571  -0.315  0.00  0.00    +0.001 A 
ATOM     28  C   UNL     1       3.619  10.203  -0.223  0.00  0.00    +0.002 A 
ATOM     29  C   UNL     1       4.790   9.476  -0.346  0.00  0.00    +0.033 A 
ATOM     30  C   UNL     1       4.741   8.114  -0.557  0.00  0.00    +0.133 A 
BRANCH  30  31
ATOM     31  N   UNL     1       5.995   7.337  -0.682  0.00  0.00    +0.057 N 
ATOM     32  O   UNL     1       6.077   6.229  -0.182  0.00  0.00    -0.126 OA
ATOM     33  O   UNL     1       6.944   7.805  -1.285  0.00  0.00    -0.126 OA
ENDBRANCH  30  31
ENDBRANCH  24  25
ENDBRANCH   2  23
BRANCH   1  34
ATOM     34  C   UNL     1      -0.241   4.125  -1.296  0.00  0.00    +0.114 C 
BRANCH  34  35
ATOM     35  C   UNL     1      -0.621   4.198   0.184  0.00  0.00    +0.022 C 
BRANCH  35  37
ATOM     36  C   UNL     1      -3.064   4.248  -0.336  0.00  0.00    +0.007 C 
ATOM     37  C   UNL     1      -1.915   5.000   0.340  0.00  0.00    -0.016 C 
ATOM     38  C   UNL     1      -2.228   5.180   1.826  0.00  0.00    +0.007 C 
ENDBRANCH  35  37
ENDBRANCH  34  35
ENDBRANCH   1  34
TORSDOF 10
