REMARK  Name = ZINC12571378
REMARK  7 active torsions:
REMARK  status: ('A' for Active; 'I' for Inactive)
REMARK    1  A    between atoms: C_3  and  O_9
REMARK    2  A    between atoms: O_9  and  C_10
REMARK    3  A    between atoms: C_10  and  C_11
REMARK    4  A    between atoms: N_13  and  C_14
REMARK    5  A    between atoms: C_14  and  N_16
REMARK    6  A    between atoms: N_16  and  N_17
REMARK    7  A    between atoms: C_18  and  C_20
REMARK                            x       y       z     vdW  Elec       q    Type
REMARK                         _______ _______ _______ _____ _____    ______ ____
ROOT
ATOM      1  C   UNL     1       3.713  -0.860  -0.038  0.00  0.00    +0.256 C 
ATOM      2  O   UNL     1       4.663  -0.107  -0.043  0.00  0.00    -0.272 OA
ATOM      3  N   UNL     1       3.909  -2.193  -0.047  0.00  0.00    -0.264 N 
ATOM      4  H   UNL     1       3.148  -2.795  -0.043  0.00  0.00    +0.157 HD
ENDROOT
BRANCH   3   5
ATOM      5  C   UNL     1       5.162  -2.690  -0.062  0.00  0.00    +0.153 C 
ATOM      6  S   UNL     1       6.504  -1.627  -0.069  0.00  0.00    -0.017 S 
BRANCH   5   7
ATOM      7  N   UNL     1       5.358  -4.023  -0.071  0.00  0.00    -0.245 N 
ATOM      8  H   UNL     1       6.260  -4.381  -0.081  0.00  0.00    +0.172 HD
BRANCH   7   9
ATOM      9  N   UNL     1       4.260  -4.893  -0.065  0.00  0.00    -0.231 N 
ATOM     10  C   UNL     1       4.456  -6.226  -0.074  0.00  0.00    +0.260 C 
ATOM     11  O   UNL     1       5.585  -6.674  -0.087  0.00  0.00    -0.269 OA
ATOM     12  H   UNL     1       3.358  -4.535  -0.054  0.00  0.00    +0.173 HD
BRANCH  10  13
ATOM     13  C   UNL     1       3.295  -7.146  -0.068  0.00  0.00    +0.041 A 
ATOM     14  C   UNL     1       1.987  -6.652  -0.047  0.00  0.00    +0.033 A 
ATOM     15  C   UNL     1       0.933  -7.545  -0.046  0.00  0.00    +0.111 A 
ATOM     16  N   UNL     1       1.148  -8.845  -0.055  0.00  0.00    -0.263 NA
ATOM     17  C   UNL     1       2.365  -9.353  -0.070  0.00  0.00    +0.111 A 
ATOM     18  C   UNL     1       3.476  -8.532  -0.077  0.00  0.00    +0.033 A 
ENDBRANCH  10  13
ENDBRANCH   7   9
ENDBRANCH   5   7
ENDBRANCH   3   5
BRANCH   1  19
ATOM     19  C   UNL     1       2.312  -0.304  -0.022  0.00  0.00    +0.325 C 
BRANCH  19  20
ATOM     20  O   UNL     1       2.366   1.124  -0.015  0.00  0.00    -0.482 OA
BRANCH  20  23
ATOM     21  C   UNL     1      -1.218   1.751   0.017  0.00  0.00    +0.019 A 
ATOM     22  C   UNL     1      -0.013   1.076   0.008  0.00  0.00    +0.048 A 
ATOM     23  C   UNL     1       1.179   1.786   0.000  0.00  0.00    +0.135 A 
ATOM     24  C   UNL     1       1.157   3.174   0.008  0.00  0.00    +0.061 A 
ATOM     25  C   UNL     1      -0.051   3.845   0.022  0.00  0.00    +0.034 A 
ATOM     26  C   UNL     1      -1.238   3.134   0.030  0.00  0.00    +0.019 A 
ATOM     27 BR   UNL     1      -2.890   4.054   0.050  0.00  0.00    -0.050 Br
ATOM     28 BR   UNL     1       2.779   4.146  -0.003  0.00  0.00    -0.046 Br
ENDBRANCH  20  23
ENDBRANCH  19  20
ENDBRANCH   1  19
TORSDOF 7
