REMARK  Name = ZINC20343992
REMARK  5 active torsions:
REMARK  status: ('A' for Active; 'I' for Inactive)
REMARK    1  A    between atoms: C_1  and  C_2
REMARK    2  A    between atoms: N_9  and  C_10
REMARK    3  A    between atoms: N_17  and  C_18
REMARK    4  A    between atoms: C_21  and  O_24
REMARK    5  A    between atoms: O_24  and  C_25
REMARK                            x       y       z     vdW  Elec       q    Type
REMARK                         _______ _______ _______ _____ _____    ______ ____
ROOT
ATOM      1  C   UNL     1       4.689  -2.760  -0.546  0.00  0.00    +0.053 C 
ATOM      2  C   UNL     1       3.646  -1.708  -0.824  0.00  0.00    +0.007 A 
ATOM      3  C   UNL     1       3.005  -1.450  -1.986  0.00  0.00    +0.058 A 
ATOM      4  C   UNL     1       2.072  -0.416  -1.979  0.00  0.00    +0.140 A 
ATOM      5  N   UNL     1       1.390  -0.093  -3.059  0.00  0.00    -0.283 NA
ATOM      6  N   UNL     1       1.900   0.254  -0.788  0.00  0.00    -0.235 N 
ATOM      7  S   UNL     1       2.984  -0.539   0.267  0.00  0.00    -0.007 S 
ATOM      8  C   UNL     1       1.054   1.305  -0.513  0.00  0.00    +0.213 C 
ATOM      9  N   UNL     1       1.405   2.529  -0.830  0.00  0.00    -0.216 NA
ATOM     10  N   UNL     1      -0.156   1.072   0.093  0.00  0.00    -0.284 N 
ATOM     11  H   UNL     1       1.476  -0.626  -3.865  0.00  0.00    +0.188 HD
ATOM     12  H   UNL     1      -0.489   0.040   0.280  0.00  0.00    +0.155 HD
ENDROOT
BRANCH   9  13
ATOM     13  C   UNL     1       2.628   2.766  -1.401  0.00  0.00    +0.068 A 
ATOM     14  C   UNL     1       3.796   2.384  -0.739  0.00  0.00    +0.029 A 
ATOM     15  C   UNL     1       5.024   2.620  -1.321  0.00  0.00    +0.022 A 
ATOM     16  C   UNL     1       5.100   3.244  -2.554  0.00  0.00    +0.041 A 
ATOM     17  C   UNL     1       3.945   3.630  -3.214  0.00  0.00    +0.022 A 
ATOM     18  C   UNL     1       2.711   3.394  -2.645  0.00  0.00    +0.029 A 
ATOM     19 CL   UNL     1       6.649   3.544  -3.278  0.00  0.00    -0.084 Cl
ENDBRANCH   9  13
BRANCH  10  20
ATOM     20  C   UNL     1      -0.967   2.149   0.475  0.00  0.00    +0.034 A 
ATOM     21  C   UNL     1      -0.388   3.338   0.898  0.00  0.00    +0.027 A 
ATOM     22  C   UNL     1      -1.188   4.401   1.270  0.00  0.00    +0.047 A 
ATOM     23  C   UNL     1      -2.569   4.277   1.230  0.00  0.00    +0.120 A 
ATOM     24  C   UNL     1      -3.148   3.087   0.812  0.00  0.00    +0.047 A 
ATOM     25  C   UNL     1      -2.349   2.026   0.435  0.00  0.00    +0.027 A 
BRANCH  23  26
ATOM     26  O   UNL     1      -3.356   5.322   1.601  0.00  0.00    -0.495 OA
ATOM     27  C   UNL     1      -2.693   6.516   2.021  0.00  0.00    +0.277 C 
ENDBRANCH  23  26
ENDBRANCH  10  20
TORSDOF 3
