REMARK  Name = ZINC02835441
REMARK  7 active torsions:
REMARK  status: ('A' for Active; 'I' for Inactive)
REMARK    1  A    between atoms: C_1  and  C_2
REMARK    2  A    between atoms: C_2  and  N_3
REMARK    3  A    between atoms: C_4  and  C_17
REMARK    4  A    between atoms: C_7  and  S_8
REMARK    5  A    between atoms: S_8  and  C_9
REMARK    6  A    between atoms: C_9  and  C_10
REMARK    7  A    between atoms: C_20  and  N_23
REMARK                            x       y       z     vdW  Elec       q    Type
REMARK                         _______ _______ _______ _____ _____    ______ ____
ROOT
ATOM      1  N   UNL     1      -0.597   1.466   1.323  0.00  0.00    -0.302 N 
ATOM      2  C   UNL     1      -1.771   0.971   1.844  0.00  0.00    +0.165 A 
ATOM      3  N   UNL     1      -2.163   1.809   2.775  0.00  0.00    -0.128 NA
ATOM      4  N   UNL     1      -1.327   2.781   2.871  0.00  0.00    -0.122 NA
ATOM      5  C   UNL     1      -0.347   2.619   2.011  0.00  0.00    +0.192 A 
ENDROOT
BRANCH   2   6
ATOM      6  C   UNL     1      -2.460  -0.270   1.433  0.00  0.00    +0.019 A 
ATOM      7  C   UNL     1      -3.393  -0.867   2.283  0.00  0.00    +0.013 A 
ATOM      8  C   UNL     1      -4.038  -2.021   1.894  0.00  0.00    +0.023 A 
ATOM      9  C   UNL     1      -3.752  -2.598   0.662  0.00  0.00    +0.025 A 
ATOM     10  C   UNL     1      -2.818  -2.010  -0.184  0.00  0.00    +0.023 A 
ATOM     11  C   UNL     1      -2.174  -0.852   0.196  0.00  0.00    +0.013 A 
BRANCH   9  12
ATOM     12  N   UNL     1      -4.402  -3.770   0.274  0.00  0.00    -0.358 N 
ATOM     13  H   UNL     1      -4.202  -4.174  -0.585  0.00  0.00    +0.142 HD
ATOM     14  H   UNL     1      -5.053  -4.182   0.864  0.00  0.00    +0.142 HD
ENDBRANCH   9  12
ENDBRANCH   2   6
BRANCH   1  16
ATOM     15  C   UNL     1      -0.193   1.475  -1.089  0.00  0.00    +0.027 C 
ATOM     16  C   UNL     1       0.217   0.875   0.258  0.00  0.00    +0.122 C 
ENDBRANCH   1  16
BRANCH   5  17
ATOM     17  S   UNL     1       1.032   3.693   1.785  0.00  0.00    -0.081 S 
BRANCH  17  18
ATOM     18  C   UNL     1       0.656   4.954   3.028  0.00  0.00    +0.112 C 
BRANCH  18  19
ATOM     19  C   UNL     1       1.733   6.008   3.015  0.00  0.00    -0.037 A 
ATOM     20  C   UNL     1       2.842   5.874   3.830  0.00  0.00    +0.005 A 
ATOM     21  C   UNL     1       3.832   6.838   3.815  0.00  0.00    +0.015 A 
ATOM     22  C   UNL     1       3.708   7.943   2.993  0.00  0.00    +0.018 A 
ATOM     23  C   UNL     1       2.595   8.080   2.182  0.00  0.00    +0.015 A 
ATOM     24  C   UNL     1       1.609   7.113   2.193  0.00  0.00    +0.005 A 
ATOM     25 BR   UNL     1       5.059   9.267   2.977  0.00  0.00    -0.050 Br
ENDBRANCH  18  19
ENDBRANCH  17  18
ENDBRANCH   5  17
TORSDOF 6
