REMARK  Name = ZINC39464076
REMARK  5 active torsions:
REMARK  status: ('A' for Active; 'I' for Inactive)
REMARK    1  A    between atoms: C_1  and  O_2
REMARK    2  A    between atoms: O_2  and  C_3
REMARK    3  A    between atoms: C_8  and  O_9
REMARK    4  A    between atoms: P_17  and  C_20
REMARK    5  A    between atoms: C_20  and  C_21
REMARK                            x       y       z     vdW  Elec       q    Type
REMARK                         _______ _______ _______ _____ _____    ______ ____
ROOT
ATOM      1  C   UNL     1       0.606  -0.608  -1.056  0.00  0.00    +0.162 A 
ATOM      2  C   UNL     1       1.172   0.157  -2.061  0.00  0.00    +0.055 A 
ATOM      3  C   UNL     1       1.790  -0.453  -3.145  0.00  0.00    -0.020 A 
ATOM      4  C   UNL     1       1.840  -1.828  -3.219  0.00  0.00    -0.038 A 
ATOM      5  C   UNL     1       1.274  -2.599  -2.215  0.00  0.00    +0.053 A 
ATOM      6  C   UNL     1       0.662  -1.996  -1.130  0.00  0.00    +0.159 A 
ATOM      7  C   UNL     1       2.504  -2.530  -4.376  0.00  0.00    +0.052 C 
ATOM      8  C   UNL     1       2.639  -1.565  -5.554  0.00  0.00    +0.108 C 
ATOM      9  N   UNL     1       3.284  -0.330  -5.082  0.00  0.00    -0.226 NA
ATOM     10  C   UNL     1       2.388   0.428  -4.210  0.00  0.00    +0.129 C 
ATOM     11  C   UNL     1       3.127   1.591  -3.540  0.00  0.00    +0.194 C 
ATOM     12  O   UNL     1       3.595   2.492  -4.564  0.00  0.00    -0.314 OA
ATOM     13  P   UNL     1       4.418   1.869  -5.820  0.00  0.00    +0.289 P 
ATOM     14  O   UNL     1       5.833   1.649  -5.446  0.00  0.00    -0.271 OA
ATOM     15  N   UNL     1       3.687   0.426  -6.161  0.00  0.00    -0.179 NA
ATOM     16  H   UNL     1       3.550   0.127  -7.073  0.00  0.00    +0.151 HD
ENDROOT
BRANCH   1  18
ATOM     17  C   UNL     1      -0.017   1.425   0.010  0.00  0.00    +0.277 C 
ATOM     18  O   UNL     1       0.002  -0.004   0.002  0.00  0.00    -0.491 OA
ENDBRANCH   1  18
BRANCH   6  19
ATOM     19  O   UNL     1       0.114  -2.756  -0.144  0.00  0.00    -0.503 OA
ATOM     20  H   UNL     1      -0.814  -2.984  -0.293  0.00  0.00    +0.292 HD
ENDBRANCH   6  19
BRANCH  13  21
ATOM     21  C   UNL     1       4.314   2.987  -7.257  0.00  0.00    +0.150 C 
BRANCH  21  22
ATOM     22  C   UNL     1       4.904   4.326  -6.896  0.00  0.00    -0.037 A 
ATOM     23  C   UNL     1       4.100   5.312  -6.356  0.00  0.00    +0.004 A 
ATOM     24  C   UNL     1       4.641   6.540  -6.024  0.00  0.00    +0.000 A 
ATOM     25  C   UNL     1       5.986   6.782  -6.232  0.00  0.00    +0.000 A 
ATOM     26  C   UNL     1       6.790   5.795  -6.771  0.00  0.00    +0.000 A 
ATOM     27  C   UNL     1       6.250   4.566  -7.099  0.00  0.00    +0.004 A 
ENDBRANCH  21  22
ENDBRANCH  13  21
TORSDOF 4
