REMARK  Name = ZINC15221428
REMARK  9 active torsions:
REMARK  status: ('A' for Active; 'I' for Inactive)
REMARK    1  A    between atoms: C_4  and  C_7
REMARK    2  A    between atoms: C_7  and  C_8
REMARK    3  A    between atoms: C_8  and  C_10
REMARK    4  A    between atoms: C_8  and  S_31
REMARK    5  A    between atoms: C_10  and  C_11
REMARK    6  A    between atoms: C_11  and  C_13
REMARK    7  A    between atoms: C_14  and  O_30
REMARK    8  A    between atoms: N_21  and  C_24
REMARK    9  A    between atoms: S_31  and  C_32
REMARK                            x       y       z     vdW  Elec       q    Type
REMARK                         _______ _______ _______ _____ _____    ______ ____
ROOT
ATOM      1  C   UNL     1       4.452  -4.528   0.780  0.00  0.00    +0.173 C 
ATOM      2  O   UNL     1       5.562  -4.960   1.016  0.00  0.00    -0.292 OA
ENDROOT
BRANCH   1   3
ATOM      3  C   UNL     1       4.211  -3.133   0.823  0.00  0.00    +0.124 A 
ATOM      4  C   UNL     1       5.269  -2.234   1.013  0.00  0.00    +0.142 A 
ATOM      5  C   UNL     1       4.963  -0.801   1.049  0.00  0.00    +0.041 A 
ATOM      6  C   UNL     1       5.983   0.140   1.236  0.00  0.00    +0.013 A 
ATOM      7  C   UNL     1       5.684   1.472   1.250  0.00  0.00    +0.001 A 
ATOM      8  C   UNL     1       4.372   1.901   1.098  0.00  0.00    +0.002 A 
ATOM      9  C   UNL     1       3.352   0.992   0.919  0.00  0.00    +0.027 A 
ATOM     10  C   UNL     1       3.634  -0.371   0.889  0.00  0.00    +0.061 A 
ATOM     11  N   UNL     1       2.616  -1.287   0.710  0.00  0.00    -0.276 N 
ATOM     12  C   UNL     1       2.852  -2.609   0.670  0.00  0.00    +0.270 A 
ATOM     13  O   UNL     1       1.925  -3.381   0.505  0.00  0.00    -0.266 OA
BRANCH  11  14
ATOM     14  C   UNL     1       1.303  -0.825   0.559  0.00  0.00    +0.050 A 
ATOM     15  C   UNL     1       0.660  -0.199   1.619  0.00  0.00    +0.026 A 
ATOM     16  C   UNL     1      -0.636   0.256   1.467  0.00  0.00    +0.002 A 
ATOM     17  C   UNL     1      -1.292   0.088   0.262  0.00  0.00    +0.000 A 
ATOM     18  C   UNL     1      -0.654  -0.534  -0.796  0.00  0.00    +0.002 A 
ATOM     19  C   UNL     1       0.641  -0.991  -0.650  0.00  0.00    +0.026 A 
ENDBRANCH  11  14
BRANCH   4  20
ATOM     20  O   UNL     1       6.535  -2.675   1.159  0.00  0.00    -0.505 OA
ATOM     21  H   UNL     1       6.684  -3.625   1.050  0.00  0.00    +0.292 HD
ENDBRANCH   4  20
ENDBRANCH   1   3
BRANCH   1  22
ATOM     22  C   UNL     1       3.331  -5.476   0.441  0.00  0.00    +0.094 C 
BRANCH  22  23
ATOM     23  C   UNL     1       3.855  -6.914   0.462  0.00  0.00    +0.062 C 
BRANCH  23  24
ATOM     24  C   UNL     1       2.749  -7.867   0.005  0.00  0.00    +0.050 C 
BRANCH  24  28
ATOM     25  C   UNL     1       4.332 -11.818  -0.354  0.00  0.00    +0.000 A 
ATOM     26  C   UNL     1       3.695 -11.432   0.810  0.00  0.00    +0.000 A 
ATOM     27  C   UNL     1       3.182 -10.153   0.926  0.00  0.00    +0.003 A 
ATOM     28  C   UNL     1       3.308  -9.261  -0.122  0.00  0.00    -0.046 A 
ATOM     29  C   UNL     1       3.940  -9.649  -1.288  0.00  0.00    +0.003 A 
ATOM     30  C   UNL     1       4.456 -10.926  -1.403  0.00  0.00    +0.000 A 
ENDBRANCH  24  28
ENDBRANCH  23  24
BRANCH  23  31
ATOM     31  S   UNL     1       4.366  -7.346   2.148  0.00  0.00    -0.106 S 
BRANCH  31  32
ATOM     32  C   UNL     1       2.842  -7.196   3.121  0.00  0.00    +0.305 C 
ATOM     33  N   UNL     1       2.243  -5.861   2.941  0.00  0.00    -0.212 NA
ATOM     34  C   UNL     1       1.072  -6.082   2.414  0.00  0.00    +0.230 C 
ATOM     35  N   UNL     1       0.859  -7.419   2.237  0.00  0.00    -0.116 NA
ATOM     36  N   UNL     1       1.812  -8.116   2.613  0.00  0.00    -0.146 NA
ATOM     37  N   UNL     1       0.168  -5.097   2.080  0.00  0.00    -0.326 N 
ATOM     38  H   UNL     1       0.415  -4.163   2.168  0.00  0.00    +0.145 HD
ATOM     39  H   UNL     1      -0.714  -5.337   1.757  0.00  0.00    +0.145 HD
ENDBRANCH  31  32
ENDBRANCH  23  31
ENDBRANCH  22  23
ENDBRANCH   1  22
TORSDOF 9
