REMARK  Name = ZINC60523268
REMARK  4 active torsions:
REMARK  status: ('A' for Active; 'I' for Inactive)
REMARK    1  A    between atoms: C_10  and  C_12
REMARK    2  A    between atoms: C_15  and  C_17
REMARK    3  A    between atoms: C_17  and  O_18
REMARK    4  A    between atoms: O_18  and  C_19
REMARK                            x       y       z     vdW  Elec       q    Type
REMARK                         _______ _______ _______ _____ _____    ______ ____
ROOT
ATOM      1  C   UNL     1       3.648  -1.780  -2.192  0.00  0.00    +0.087 A 
ATOM      2  C   UNL     1       3.100  -2.705  -3.020  0.00  0.00    +0.074 A 
ATOM      3  S   UNL     1       3.403  -1.948  -4.608  0.00  0.00    -0.077 S 
ATOM      4  C   UNL     1       4.181  -0.561  -4.057  0.00  0.00    +0.116 A 
ATOM      5  N   UNL     1       4.178  -0.713  -2.756  0.00  0.00    -0.242 NA
ENDROOT
BRANCH   1  15
ATOM      6  C   UNL     1      -0.017   1.375   0.010  0.00  0.00    +0.001 A 
ATOM      7  C   UNL     1       1.168   2.095   0.002  0.00  0.00    +0.002 A 
ATOM      8  C   UNL     1       2.386   1.444  -0.015  0.00  0.00    +0.024 A 
ATOM      9  C   UNL     1       2.422   0.060  -0.024  0.00  0.00    +0.041 A 
ATOM     10  C   UNL     1       1.223  -0.674  -0.013  0.00  0.00    +0.058 A 
ATOM     11  C   UNL     1       0.002  -0.004   0.002  0.00  0.00    +0.015 A 
ATOM     12  C   UNL     1       1.301  -2.146  -0.013  0.00  0.00    +0.247 C 
ATOM     13  O   UNL     1       0.318  -2.814   0.246  0.00  0.00    -0.270 OA
ATOM     14  N   UNL     1       2.475  -2.744  -0.304  0.00  0.00    -0.288 N 
ATOM     15  C   UNL     1       3.647  -1.961  -0.696  0.00  0.00    +0.209 C 
ATOM     16  N   UNL     1       3.620  -0.645  -0.047  0.00  0.00    -0.320 N 
ATOM     17  H   UNL     1       2.543  -3.710  -0.252  0.00  0.00    +0.151 HD
ATOM     18  H   UNL     1       4.421  -0.275   0.357  0.00  0.00    +0.148 HD
ENDBRANCH   1  15
BRANCH   4  19
ATOM     19  C   UNL     1       4.742   0.582  -4.865  0.00  0.00    +0.291 C 
BRANCH  19  20
ATOM     20  O   UNL     1       6.104   0.308  -5.197  0.00  0.00    -0.485 OA
BRANCH  20  21
ATOM     21  C   UNL     1       6.761   1.245  -5.929  0.00  0.00    +0.121 A 
ATOM     22  C   UNL     1       6.110   2.408  -6.315  0.00  0.00    +0.047 A 
ATOM     23  C   UNL     1       6.780   3.359  -7.059  0.00  0.00    +0.023 A 
ATOM     24  C   UNL     1       8.100   3.154  -7.420  0.00  0.00    +0.041 A 
ATOM     25  C   UNL     1       8.751   1.995  -7.036  0.00  0.00    +0.023 A 
ATOM     26  C   UNL     1       8.087   1.044  -6.286  0.00  0.00    +0.047 A 
ATOM     27 CL   UNL     1       8.939   4.351  -8.355  0.00  0.00    -0.084 Cl
ENDBRANCH  20  21
ENDBRANCH  19  20
ENDBRANCH   4  19
TORSDOF 4
