REMARK  Name = ZINC59392243
REMARK  8 active torsions:
REMARK  status: ('A' for Active; 'I' for Inactive)
REMARK    1  A    between atoms: C_1  and  C_2
REMARK    2  A    between atoms: C_5  and  S_8
REMARK    3  A    between atoms: S_8  and  O_11
REMARK    4  A    between atoms: O_11  and  C_12
REMARK    5  A    between atoms: C_17  and  C_18
REMARK    6  A    between atoms: N_19  and  N_20
REMARK    7  A    between atoms: C_21  and  C_23
REMARK    8  A    between atoms: C_28  and  O_29
REMARK                            x       y       z     vdW  Elec       q    Type
REMARK                         _______ _______ _______ _____ _____    ______ ____
ROOT
ATOM      1  C   UNL     1       2.150  -4.816   1.162  0.00  0.00    +0.165 A 
ATOM      2  C   UNL     1       2.792  -3.629   1.471  0.00  0.00    +0.049 A 
ATOM      3  C   UNL     1       3.431  -3.482   2.688  0.00  0.00    +0.004 A 
ATOM      4  C   UNL     1       3.434  -4.518   3.607  0.00  0.00    +0.001 A 
ATOM      5  C   UNL     1       2.799  -5.707   3.316  0.00  0.00    +0.013 A 
ATOM      6  C   UNL     1       2.145  -5.866   2.091  0.00  0.00    +0.039 A 
ENDROOT
BRANCH   6   7
ATOM      7  C   UNL     1       1.459  -7.132   1.776  0.00  0.00    +0.142 C 
ATOM      8  N   UNL     1       0.858  -7.277   0.635  0.00  0.00    -0.187 NA
BRANCH   8   9
ATOM      9  N   UNL     1       0.206  -8.480   0.335  0.00  0.00    -0.203 N 
ATOM     10  C   UNL     1      -0.419  -8.631  -0.850  0.00  0.00    +0.267 C 
ATOM     11  O   UNL     1      -0.417  -7.723  -1.658  0.00  0.00    -0.268 OA
ATOM     12  H   UNL     1       0.204  -9.205   0.980  0.00  0.00    +0.178 HD
BRANCH  10  13
ATOM     13  C   UNL     1      -1.105  -9.898  -1.165  0.00  0.00    +0.080 A 
ATOM     14  C   UNL     1      -1.115 -10.942  -0.237  0.00  0.00    +0.017 A 
ATOM     15  C   UNL     1      -1.758 -12.123  -0.538  0.00  0.00    +0.001 A 
ATOM     16  C   UNL     1      -2.395 -12.281  -1.758  0.00  0.00    +0.004 A 
ATOM     17  C   UNL     1      -2.393 -11.258  -2.685  0.00  0.00    +0.046 A 
ATOM     18  C   UNL     1      -1.756 -10.060  -2.396  0.00  0.00    +0.129 A 
BRANCH  18  19
ATOM     19  O   UNL     1      -1.758  -9.051  -3.303  0.00  0.00    -0.506 OA
ATOM     20  H   UNL     1      -1.013  -9.074  -3.919  0.00  0.00    +0.292 HD
ENDBRANCH  18  19
ENDBRANCH  10  13
ENDBRANCH   8   9
ENDBRANCH   6   7
BRANCH   1  21
ATOM     21  O   UNL     1       1.522  -4.962  -0.033  0.00  0.00    -0.342 OA
BRANCH  21  22
ATOM     22  S   UNL     1       0.063  -4.530  -0.023  0.00  0.00    +0.151 S 
ATOM     23  O   UNL     1      -0.476  -4.950   1.223  0.00  0.00    -0.131 OA
ATOM     24  O   UNL     1      -0.490  -4.937  -1.267  0.00  0.00    -0.131 OA
BRANCH  22  29
ATOM     25  C   UNL     1      -0.018   1.503   0.010  0.00  0.00    +0.044 C 
ATOM     26  C   UNL     1       0.002  -0.004   0.002  0.00  0.00    -0.050 A 
ATOM     27  C   UNL     1       0.006  -0.689  -1.199  0.00  0.00    +0.005 A 
ATOM     28  C   UNL     1       0.025  -2.071  -1.206  0.00  0.00    +0.031 A 
ATOM     29  C   UNL     1       0.040  -2.768  -0.013  0.00  0.00    +0.128 A 
ATOM     30  C   UNL     1       0.037  -2.084   1.188  0.00  0.00    +0.031 A 
ATOM     31  C   UNL     1       0.023  -0.702   1.195  0.00  0.00    +0.005 A 
ENDBRANCH  22  29
ENDBRANCH  21  22
ENDBRANCH   1  21
TORSDOF 7
