REMARK  Name = ZINC03978371
REMARK  10 active torsions:
REMARK  status: ('A' for Active; 'I' for Inactive)
REMARK    1  A    between atoms: C_1  and  C_2
REMARK    2  A    between atoms: C_2  and  O_4
REMARK    3  A    between atoms: O_4  and  C_5
REMARK    4  A    between atoms: C_9  and  C_40
REMARK    5  A    between atoms: C_21  and  C_39
REMARK    6  A    between atoms: C_22  and  O_38
REMARK    7  A    between atoms: C_24  and  O_34
REMARK    8  A    between atoms: C_26  and  C_28
REMARK    9  A    between atoms: O_34  and  C_35
REMARK   10  A    between atoms: C_35  and  C_37
REMARK                            x       y       z     vdW  Elec       q    Type
REMARK                         _______ _______ _______ _____ _____    ______ ____
ROOT
ATOM      1  C   UNL     1      -1.147  -2.178  -0.258  0.00  0.00    +0.177 C 
ATOM      2  C   UNL     1      -1.158  -2.593   1.214  0.00  0.00    +0.045 C 
ATOM      3  C   UNL     1      -2.484  -2.173   1.852  0.00  0.00    +0.011 C 
ATOM      4  C   UNL     1      -3.642  -2.855   1.121  0.00  0.00    -0.026 C 
ATOM      5  C   UNL     1      -3.629  -2.442  -0.352  0.00  0.00    -0.001 C 
ATOM      6  C   UNL     1      -2.303  -2.862  -0.990  0.00  0.00    +0.048 C 
ATOM      7  C   UNL     1      -4.786  -3.126  -1.084  0.00  0.00    +0.004 C 
ATOM      8  C   UNL     1      -4.630  -4.644  -0.978  0.00  0.00    +0.007 C 
ATOM      9  C   UNL     1      -4.644  -5.056   0.496  0.00  0.00    +0.025 C 
ATOM     10  C   UNL     1      -3.490  -4.374   1.229  0.00  0.00    +0.001 C 
ATOM     11  C   UNL     1      -3.545  -4.782   2.705  0.00  0.00    +0.005 C 
ATOM     12  C   UNL     1      -3.331  -6.290   2.803  0.00  0.00    +0.010 C 
ATOM     13  C   UNL     1      -4.449  -7.045   2.080  0.00  0.00    +0.007 C 
ATOM     14  C   UNL     1      -4.568  -6.557   0.627  0.00  0.00    +0.079 C 
ATOM     15  C   UNL     1      -3.328  -7.152  -0.066  0.00  0.00    +0.080 C 
ATOM     16  C   UNL     1      -3.207  -8.561   0.560  0.00  0.00    +0.187 C 
ATOM     17  C   UNL     1      -3.962  -8.510   1.914  0.00  0.00    +0.068 C 
ATOM     18  C   UNL     1      -5.773  -6.964   2.842  0.00  0.00    +0.015 C 
ATOM     19  C   UNL     1      -4.967  -2.429   1.756  0.00  0.00    +0.012 C 
ENDROOT
BRANCH  17  20
ATOM     20  C   UNL     1      -5.140  -9.450   1.918  0.00  0.00    -0.019 C 
ATOM     21  C   UNL     1      -5.375 -10.424   2.794  0.00  0.00    +0.094 C 
ATOM     22  C   UNL     1      -6.627 -11.098   2.436  0.00  0.00    +0.332 C 
ATOM     23  O   UNL     1      -7.117 -12.030   3.042  0.00  0.00    -0.246 OA
ATOM     24  O   UNL     1      -7.153 -10.527   1.337  0.00  0.00    -0.457 OA
ATOM     25  C   UNL     1      -6.284  -9.464   0.932  0.00  0.00    +0.264 C 
ENDBRANCH  17  20
BRANCH  14  26
ATOM     26  O   UNL     1      -5.735  -7.139   0.043  0.00  0.00    -0.388 OA
ATOM     27  H   UNL     1      -5.854  -6.929  -0.893  0.00  0.00    +0.210 HD
ENDBRANCH  14  26
BRANCH   1  28
ATOM     28  O   UNL     1      -1.295  -0.760  -0.355  0.00  0.00    -0.462 OA
BRANCH  28  30
ATOM     29  C   UNL     1      -0.247   1.474  -0.450  0.00  0.00    +0.136 C 
ATOM     30  C   UNL     1      -0.170  -0.028  -0.351  0.00  0.00    +0.304 C 
ATOM     31  O   UNL     1       0.905  -0.573  -0.269  0.00  0.00    -0.251 OA
ENDBRANCH  28  30
ENDBRANCH   1  28
BRANCH  16  32
ATOM     32  O   UNL     1      -3.828  -9.529  -0.289  0.00  0.00    -0.461 OA
BRANCH  32  33
ATOM     33  C   UNL     1      -3.047 -10.128  -1.202  0.00  0.00    +0.304 C 
ATOM     34  O   UNL     1      -1.876  -9.840  -1.278  0.00  0.00    -0.251 OA
ATOM     35  C   UNL     1      -3.631 -11.159  -2.132  0.00  0.00    +0.136 C 
ENDBRANCH  32  33
ENDBRANCH  16  32
TORSDOF 6
