REMARK  Name = ZINC40267853
REMARK  2 active torsions:
REMARK  status: ('A' for Active; 'I' for Inactive)
REMARK    1  A    between atoms: C_5  and  C_7
REMARK    2  A    between atoms: C_7  and  N_8
REMARK                            x       y       z     vdW  Elec       q    Type
REMARK                         _______ _______ _______ _____ _____    ______ ____
ROOT
ATOM      1  N   UNL     1       1.373  -2.698   1.343  0.00  0.00    -0.282 N 
ATOM      2  C   UNL     1       2.548  -2.532   2.010  0.00  0.00    +0.095 A 
ATOM      3  C   UNL     1       2.707  -2.969   3.328  0.00  0.00    +0.049 A 
ATOM      4  C   UNL     1       4.022  -2.728   3.928  0.00  0.00    -0.025 A 
ATOM      5  C   UNL     1       4.942  -2.114   3.157  0.00  0.00    -0.004 A 
ATOM      6  S   UNL     1       4.124  -1.824   1.611  0.00  0.00    -0.075 S 
ATOM      7  C   UNL     1       6.348  -1.757   3.531  0.00  0.00    +0.043 C 
ATOM      8  C   UNL     1       6.484  -1.861   5.057  0.00  0.00    +0.005 C 
ATOM      9  C   UNL     1       5.876  -3.189   5.516  0.00  0.00    +0.005 C 
ATOM     10  C   UNL     1       4.355  -3.146   5.357  0.00  0.00    +0.037 C 
ATOM     11  C   UNL     1       1.562  -3.595   3.917  0.00  0.00    +0.132 A 
ATOM     12  N   UNL     1       0.449  -3.728   3.219  0.00  0.00    -0.178 NA
ATOM     13  C   UNL     1       0.333  -3.294   1.966  0.00  0.00    +0.351 A 
ATOM     14  O   UNL     1      -0.722  -3.440   1.372  0.00  0.00    -0.244 OA
ATOM     15  N   UNL     1       1.621  -4.057   5.210  0.00  0.00    -0.342 N 
ATOM     16  H   UNL     1       2.322  -3.748   5.804  0.00  0.00    +0.144 HD
ATOM     17  H   UNL     1       0.961  -4.693   5.528  0.00  0.00    +0.144 HD
ENDROOT
BRANCH   1  18
ATOM     18  C   UNL     1       1.236  -2.229  -0.037  0.00  0.00    +0.164 C 
BRANCH  18  23
ATOM     19  C   UNL     1       3.632  -4.113  -2.265  0.00  0.00    +0.000 A 
ATOM     20  C   UNL     1       2.839  -5.158  -2.703  0.00  0.00    +0.001 A 
ATOM     21  C   UNL     1       1.528  -5.255  -2.279  0.00  0.00    +0.020 A 
ATOM     22  C   UNL     1       1.008  -4.307  -1.416  0.00  0.00    +0.046 A 
ATOM     23  C   UNL     1       1.801  -3.262  -0.978  0.00  0.00    -0.009 A 
ATOM     24  C   UNL     1       3.113  -3.166  -1.403  0.00  0.00    +0.007 A 
ATOM     25 CL   UNL     1      -0.640  -4.429  -0.883  0.00  0.00    -0.083 Cl
ENDBRANCH  18  23
ENDBRANCH   1  18
TORSDOF 2
