REMARK  Name = ZINC22824109
REMARK  7 active torsions:
REMARK  status: ('A' for Active; 'I' for Inactive)
REMARK    1  A    between atoms: C_1  and  C_2
REMARK    2  A    between atoms: C_6  and  C_7
REMARK    3  A    between atoms: N_8  and  N_9
REMARK    4  A    between atoms: C_10  and  C_12
REMARK    5  A    between atoms: C_17  and  C_30
REMARK    6  A    between atoms: C_20  and  C_23
REMARK    7  A    between atoms: C_30  and  C_31
REMARK                            x       y       z     vdW  Elec       q    Type
REMARK                         _______ _______ _______ _____ _____    ______ ____
ROOT
ATOM      1  C   UNL     1       5.224   1.768   5.799  0.00  0.00    +0.151 A 
ATOM      2  C   UNL     1       5.939   2.082   6.976  0.00  0.00    +0.078 A 
ATOM      3  C   UNL     1       7.248   1.883   6.723  0.00  0.00    +0.119 A 
ATOM      4  N   UNL     1       7.371   1.465   5.428  0.00  0.00    -0.241 N 
ATOM      5  N   UNL     1       6.094   1.403   4.873  0.00  0.00    -0.164 NA
ATOM      6  C   UNL     1       8.655   1.151   4.794  0.00  0.00    +0.189 C 
ATOM      7  C   UNL     1       9.699   0.897   5.887  0.00  0.00    +0.060 C 
ATOM      8  C   UNL     1       9.674   2.039   6.908  0.00  0.00    +0.104 C 
ATOM      9  N   UNL     1       8.351   2.055   7.563  0.00  0.00    -0.322 N 
ATOM     10  H   UNL     1       8.278   2.195   8.652  0.00  0.00    +0.148 HD
ENDROOT
BRANCH   8  11
ATOM     11  C   UNL     1      10.748   1.818   7.942  0.00  0.00    -0.027 A 
ATOM     12  C   UNL     1      10.540   0.922   8.973  0.00  0.00    +0.008 A 
ATOM     13  C   UNL     1      11.526   0.714   9.919  0.00  0.00    +0.038 A 
ATOM     14  C   UNL     1      12.719   1.412   9.838  0.00  0.00    +0.123 A 
ATOM     15  C   UNL     1      12.925   2.313   8.808  0.00  0.00    +0.038 A 
ATOM     16  C   UNL     1      11.939   2.515   7.860  0.00  0.00    +0.008 A 
ATOM     17  F   UNL     1      13.682   1.214  10.766  0.00  0.00    -0.205 F 
ENDBRANCH   8  11
BRANCH   1  19
ATOM     18  N   UNL     1       3.199   1.519   4.447  0.00  0.00    -0.202 N 
ATOM     19  C   UNL     1       3.758   1.842   5.630  0.00  0.00    +0.283 C 
ATOM     20  O   UNL     1       3.056   2.194   6.558  0.00  0.00    -0.267 OA
ATOM     21  H   UNL     1       3.834   1.200   3.607  0.00  0.00    +0.178 HD
BRANCH  18  23
ATOM     22  C   UNL     1       1.270   1.278   3.144  0.00  0.00    +0.145 C 
ATOM     23  N   UNL     1       1.809   1.589   4.286  0.00  0.00    -0.187 NA
BRANCH  22  29
ATOM     24  C   UNL     1      -0.303   0.609   0.576  0.00  0.00    +0.045 C 
ATOM     25  C   UNL     1      -0.950   1.067   1.858  0.00  0.00    -0.035 A 
ATOM     26  C   UNL     1      -2.314   1.217   1.945  0.00  0.00    +0.011 A 
ATOM     27  C   UNL     1      -2.866   1.627   3.117  0.00  0.00    +0.046 A 
ATOM     28  S   UNL     1      -1.432   1.831   4.161  0.00  0.00    -0.095 S 
ATOM     29  C   UNL     1      -0.185   1.351   2.976  0.00  0.00    +0.035 A 
ENDBRANCH  22  29
ENDBRANCH  18  23
ENDBRANCH   1  19
BRANCH   6  30
ATOM     30  C   UNL     1       8.506  -0.101   3.927  0.00  0.00    +0.363 C 
ATOM     31  F   UNL     1       8.229  -1.203   4.743  0.00  0.00    -0.193 F 
ATOM     32  F   UNL     1       7.456   0.082   3.020  0.00  0.00    -0.193 F 
BRANCH  30  33
ATOM     33  C   UNL     1       9.806  -0.348   3.159  0.00  0.00    +0.456 C 
ATOM     34  F   UNL     1      10.827  -0.664   4.061  0.00  0.00    -0.165 F 
ATOM     35  F   UNL     1       9.626  -1.411   2.267  0.00  0.00    -0.165 F 
ATOM     36  F   UNL     1      10.153   0.805   2.447  0.00  0.00    -0.165 F 
ENDBRANCH  30  33
ENDBRANCH   6  30
TORSDOF 6
