REMARK  Name = ZINC08748712
REMARK  7 active torsions:
REMARK  status: ('A' for Active; 'I' for Inactive)
REMARK    1  A    between atoms: C_7  and  C_11
REMARK    2  A    between atoms: C_11  and  C_12
REMARK    3  A    between atoms: C_12  and  N_13
REMARK    4  A    between atoms: C_14  and  C_16
REMARK    5  A    between atoms: C_17  and  N_32
REMARK    6  A    between atoms: C_19  and  C_28
REMARK    7  A    between atoms: C_21  and  C_25
REMARK                            x       y       z     vdW  Elec       q    Type
REMARK                         _______ _______ _______ _____ _____    ______ ____
ROOT
ATOM      1  C   UNL     1       1.140   1.974  -0.234  0.00  0.00    +0.097 A 
ATOM      2  C   UNL     1       1.280   3.302   0.101  0.00  0.00    +0.054 A 
ATOM      3  C   UNL     1       2.607   3.793   0.440  0.00  0.00    +0.041 A 
ATOM      4  C   UNL     1       2.997   5.102   0.816  0.00  0.00    +0.068 A 
ATOM      5  C   UNL     1       4.321   5.351   1.090  0.00  0.00    +0.036 A 
ATOM      6  C   UNL     1       5.259   4.333   1.000  0.00  0.00    +0.046 A 
ATOM      7  N   UNL     1       4.893   3.115   0.649  0.00  0.00    -0.244 NA
ATOM      8  C   UNL     1       3.638   2.828   0.377  0.00  0.00    +0.112 A 
ATOM      9  S   UNL     1       2.802   1.341  -0.115  0.00  0.00    -0.062 S 
ENDROOT
BRANCH   1  11
ATOM     10  N   UNL     1       0.015  -0.034  -0.896  0.00  0.00    -0.311 N 
ATOM     11  C   UNL     1      -0.041   1.277  -0.592  0.00  0.00    +0.253 C 
ATOM     12  O   UNL     1      -1.107   1.866  -0.630  0.00  0.00    -0.270 OA
ATOM     13  H   UNL     1       0.865  -0.502  -0.870  0.00  0.00    +0.149 HD
BRANCH  10  14
ATOM     14  C   UNL     1      -1.206  -0.754  -1.267  0.00  0.00    +0.109 C 
BRANCH  14  15
ATOM     15  C   UNL     1      -0.867  -2.216  -1.561  0.00  0.00    +0.056 C 
BRANCH  15  22
ATOM     16  C   UNL     1      -3.165  -2.759  -5.610  0.00  0.00    +0.001 A 
ATOM     17  C   UNL     1      -4.303  -3.544  -5.485  0.00  0.00    +0.002 A 
ATOM     18  C   UNL     1      -4.660  -4.076  -4.265  0.00  0.00    +0.026 A 
ATOM     19  C   UNL     1      -3.872  -3.825  -3.146  0.00  0.00    +0.047 A 
ATOM     20  C   UNL     1      -2.720  -3.029  -3.278  0.00  0.00    +0.003 A 
ATOM     21  C   UNL     1      -2.378  -2.500  -4.524  0.00  0.00    +0.010 A 
ATOM     22  C   UNL     1      -2.123  -2.957  -1.942  0.00  0.00    -0.021 A 
ATOM     23  C   UNL     1      -2.904  -3.679  -1.124  0.00  0.00    +0.087 A 
ATOM     24  N   UNL     1      -3.957  -4.201  -1.824  0.00  0.00    -0.360 N 
ATOM     25  H   UNL     1      -4.656  -4.757  -1.446  0.00  0.00    +0.165 HD
ENDBRANCH  15  22
ENDBRANCH  14  15
ENDBRANCH  10  14
ENDBRANCH   1  11
BRANCH   4  26
ATOM     26  C   UNL     1       1.976   6.206   0.915  0.00  0.00    +0.418 C 
ATOM     27  F   UNL     1       2.580   7.356   1.433  0.00  0.00    -0.166 F 
ATOM     28  F   UNL     1       1.463   6.481  -0.357  0.00  0.00    -0.166 F 
ATOM     29  F   UNL     1       0.935   5.804   1.760  0.00  0.00    -0.166 F 
ENDBRANCH   4  26
BRANCH   6  30
ATOM     30  C   UNL     1       6.707   4.620   1.304  0.00  0.00    +0.038 C 
ATOM     31  C   UNL     1       7.146   6.085   1.331  0.00  0.00    +0.010 C 
ATOM     32  C   UNL     1       7.570   5.180   0.172  0.00  0.00    +0.010 C 
ENDBRANCH   6  30
BRANCH   2  33
ATOM     33  N   UNL     1       0.182   4.151   0.117  0.00  0.00    -0.356 N 
ATOM     34  H   UNL     1      -0.711   3.786   0.214  0.00  0.00    +0.142 HD
ATOM     35  H   UNL     1       0.308   5.109   0.032  0.00  0.00    +0.142 HD
ENDBRANCH   2  33
TORSDOF 7
