REMARK  Name = ZINC65260018
REMARK  3 active torsions:
REMARK  status: ('A' for Active; 'I' for Inactive)
REMARK    1  A    between atoms: C_4  and  C_7
REMARK    2  A    between atoms: C_7  and  N_8
REMARK    3  A    between atoms: N_26  and  C_27
REMARK                            x       y       z     vdW  Elec       q    Type
REMARK                         _______ _______ _______ _____ _____    ______ ____
ROOT
ATOM      1  N   UNL     1       4.154  -0.948   1.337  0.00  0.00    -0.295 N 
ATOM      2  C   UNL     1       5.311  -1.601   1.569  0.00  0.00    +0.303 C 
ATOM      3  O   UNL     1       5.943  -2.065   0.640  0.00  0.00    -0.253 OA
ATOM      4  N   UNL     1       5.766  -1.738   2.830  0.00  0.00    -0.283 N 
ATOM      5  C   UNL     1       4.958  -1.289   3.972  0.00  0.00    +0.109 C 
ATOM      6  C   UNL     1       4.805  -2.454   4.956  0.00  0.00    +0.022 C 
ATOM      7  C   UNL     1       6.191  -2.977   5.340  0.00  0.00    +0.036 C 
ATOM      8  C   UNL     1       6.913  -3.480   4.092  0.00  0.00    +0.102 C 
ATOM      9  C   UNL     1       7.080  -2.344   3.091  0.00  0.00    +0.142 C 
ATOM     10  C   UNL     1       8.274  -4.024   4.475  0.00  0.00    +0.098 C 
ATOM     11  N   UNL     1       8.286  -5.208   5.191  0.00  0.00    -0.301 N 
ATOM     12  C   UNL     1       7.339  -6.187   4.846  0.00  0.00    +0.053 A 
ATOM     13  C   UNL     1       7.464  -7.474   5.344  0.00  0.00    +0.025 A 
ATOM     14  C   UNL     1       6.529  -8.437   5.010  0.00  0.00    +0.002 A 
ATOM     15  C   UNL     1       5.469  -8.119   4.182  0.00  0.00    +0.002 A 
ATOM     16  C   UNL     1       5.338  -6.838   3.679  0.00  0.00    +0.025 A 
ATOM     17  C   UNL     1       6.274  -5.867   4.005  0.00  0.00    +0.049 A 
ATOM     18  N   UNL     1       6.150  -4.574   3.477  0.00  0.00    -0.329 N 
ATOM     19  N   UNL     1       9.368  -3.414   4.150  0.00  0.00    -0.372 N 
ATOM     20  H   UNL     1       3.613  -0.641   2.082  0.00  0.00    +0.151 HD
ATOM     21  H   UNL     1       5.569  -4.404   2.719  0.00  0.00    +0.147 HD
ATOM     22  H   UNL     1       9.329  -2.585   3.647  0.00  0.00    +0.161 HD
ATOM     23  H   UNL     1       8.926  -5.357   5.905  0.00  0.00    +0.153 HD
ENDROOT
BRANCH  19  24
ATOM     24  C   UNL     1      10.664  -3.974   4.540  0.00  0.00    +0.080 C 
ATOM     25  C   UNL     1      11.155  -4.967   3.467  0.00  0.00    +0.024 C 
ATOM     26  C   UNL     1      12.095  -4.123   2.571  0.00  0.00    +0.002 C 
ATOM     27  C   UNL     1      12.814  -3.210   3.594  0.00  0.00    +0.002 C 
ATOM     28  C   UNL     1      11.718  -2.857   4.622  0.00  0.00    +0.024 C 
ENDBRANCH  19  24
BRANCH   1  29
ATOM     29  C   UNL     1       3.714  -0.704  -0.038  0.00  0.00    +0.141 C 
BRANCH  29  33
ATOM     30  C   UNL     1      -0.006   1.396   0.008  0.00  0.00    +0.000 A 
ATOM     31  C   UNL     1       1.184   2.099  -0.002  0.00  0.00    +0.000 A 
ATOM     32  C   UNL     1       2.388   1.419  -0.016  0.00  0.00    +0.005 A 
ATOM     33  C   UNL     1       2.401   0.037  -0.021  0.00  0.00    -0.030 A 
ATOM     34  C   UNL     1       1.211  -0.666  -0.011  0.00  0.00    +0.005 A 
ATOM     35  C   UNL     1       0.007   0.013   0.002  0.00  0.00    +0.000 A 
ENDBRANCH  29  33
ENDBRANCH   1  29
TORSDOF 3
