REMARK  Name = ZINC39327607
REMARK  6 active torsions:
REMARK  status: ('A' for Active; 'I' for Inactive)
REMARK    1  A    between atoms: C_6  and  C_10
REMARK    2  A    between atoms: C_10  and  C_31
REMARK    3  A    between atoms: C_11  and  C_12
REMARK    4  A    between atoms: C_15  and  C_17
REMARK    5  A    between atoms: C_19  and  C_27
REMARK    6  A    between atoms: C_21  and  C_23
REMARK                            x       y       z     vdW  Elec       q    Type
REMARK                         _______ _______ _______ _____ _____    ______ ____
ROOT
ATOM      1  C   UNL     1       4.740  -4.558  -2.347  0.00  0.00    +0.130 A 
ATOM      2  C   UNL     1       5.521  -5.697  -2.386  0.00  0.00    +0.050 A 
ATOM      3  C   UNL     1       5.707  -6.012  -3.736  0.00  0.00    +0.050 A 
ATOM      4  C   UNL     1       5.043  -5.067  -4.465  0.00  0.00    +0.136 A 
ATOM      5  O   UNL     1       4.460  -4.199  -3.618  0.00  0.00    -0.455 OA
ENDROOT
BRANCH   4   6
ATOM      6  C   UNL     1       4.973  -5.011  -5.938  0.00  0.00    +0.018 A 
ATOM      7  C   UNL     1       5.615  -5.982  -6.709  0.00  0.00    +0.024 A 
ATOM      8  C   UNL     1       5.544  -5.923  -8.085  0.00  0.00    +0.056 A 
ATOM      9  C   UNL     1       4.840  -4.904  -8.702  0.00  0.00    +0.024 A 
ATOM     10  C   UNL     1       4.201  -3.938  -7.944  0.00  0.00    +0.056 A 
ATOM     11  C   UNL     1       4.258  -3.988  -6.567  0.00  0.00    +0.024 A 
BRANCH  10  12
ATOM     12  C   UNL     1       3.436  -2.833  -8.626  0.00  0.00    +0.417 C 
ATOM     13  F   UNL     1       3.517  -2.996 -10.013  0.00  0.00    -0.166 F 
ATOM     14  F   UNL     1       2.096  -2.879  -8.227  0.00  0.00    -0.166 F 
ATOM     15  F   UNL     1       3.986  -1.597  -8.269  0.00  0.00    -0.166 F 
ENDBRANCH  10  12
BRANCH   8  16
ATOM     16  C   UNL     1       6.237  -6.970  -8.919  0.00  0.00    +0.417 C 
ATOM     17  F   UNL     1       5.360  -8.035  -9.153  0.00  0.00    -0.166 F 
ATOM     18  F   UNL     1       6.627  -6.410 -10.140  0.00  0.00    -0.166 F 
ATOM     19  F   UNL     1       7.366  -7.437  -8.238  0.00  0.00    -0.166 F 
ENDBRANCH   8  16
ENDBRANCH   4   6
BRANCH   1  21
ATOM     20  C   UNL     1       3.534  -2.776  -1.283  0.00  0.00    +0.075 C 
ATOM     21  C   UNL     1       4.306  -3.887  -1.179  0.00  0.00    +0.064 C 
BRANCH  20  27
ATOM     22  C   UNL     1      -0.016   1.344   0.009  0.00  0.00    +0.002 A 
ATOM     23  C   UNL     1       1.158   2.118   0.002  0.00  0.00    +0.002 A 
ATOM     24  C   UNL     1       2.389   1.570  -0.013  0.00  0.00    +0.027 A 
ATOM     25  C   UNL     1       2.533   0.108  -0.022  0.00  0.00    +0.060 A 
ATOM     26  N   UNL     1       3.569  -0.680  -0.036  0.00  0.00    -0.359 N 
ATOM     27  C   UNL     1       3.071  -2.062  -0.039  0.00  0.00    +0.216 C 
ATOM     28  N   UNL     1       1.606  -1.974  -0.024  0.00  0.00    -0.359 N 
ATOM     29  C   UNL     1       1.290  -0.712  -0.014  0.00  0.00    +0.060 A 
ATOM     30  C   UNL     1       0.002  -0.004   0.002  0.00  0.00    +0.027 A 
ATOM     31  H   UNL     1       4.499  -0.405  -0.045  0.00  0.00    +0.162 HD
ATOM     32  H   UNL     1       0.987  -2.721  -0.022  0.00  0.00    +0.162 HD
ENDBRANCH  20  27
BRANCH  20  33
ATOM     33  C   UNL     1       3.160  -2.281  -2.574  0.00  0.00    +0.099 C 
ATOM     34  N   UNL     1       2.864  -1.889  -3.598  0.00  0.00    -0.191 NA
ENDBRANCH  20  33
ENDBRANCH   1  21
TORSDOF 6
