REMARK  Name = ZINC20812947
REMARK  6 active torsions:
REMARK  status: ('A' for Active; 'I' for Inactive)
REMARK    1  A    between atoms: C_1  and  C_2
REMARK    2  A    between atoms: C_2  and  N_3
REMARK    3  A    between atoms: C_6  and  C_7
REMARK    4  A    between atoms: C_17  and  C_25
REMARK    5  A    between atoms: C_19  and  C_23
REMARK    6  A    between atoms: C_20  and  N_22
REMARK                            x       y       z     vdW  Elec       q    Type
REMARK                         _______ _______ _______ _____ _____    ______ ____
ROOT
ATOM      1  N   UNL     1      -0.300   1.637   0.394  0.00  0.00    -0.294 NA
ATOM      2  C   UNL     1       1.071   2.148   0.214  0.00  0.00    +0.123 C 
ATOM      3  C   UNL     1       1.897   1.613   1.365  0.00  0.00    +0.010 C 
ATOM      4  C   UNL     1       2.804   2.384   1.990  0.00  0.00    +0.016 C 
ATOM      5  C   UNL     1       1.670   0.212   1.776  0.00  0.00    +0.136 C 
ATOM      6  C   UNL     1       0.625  -0.458   1.286  0.00  0.00    -0.001 C 
ATOM      7  C   UNL     1      -0.324   0.176   0.302  0.00  0.00    +0.120 C 
ATOM      8  C   UNL     1       0.367  -1.884   1.711  0.00  0.00    +0.095 C 
ATOM      9  C   UNL     1       1.118  -2.200   2.973  0.00  0.00    +0.098 C 
ATOM     10  C   UNL     1       2.155  -1.423   3.375  0.00  0.00    +0.199 C 
ATOM     11  O   UNL     1       2.533  -0.353   2.655  0.00  0.00    -0.441 OA
ENDROOT
BRANCH   4  12
ATOM     12  C   UNL     1       3.130   3.718   1.456  0.00  0.00    -0.022 A 
ATOM     13  C   UNL     1       3.478   4.757   2.325  0.00  0.00    +0.008 A 
ATOM     14  C   UNL     1       3.782   6.003   1.820  0.00  0.00    +0.003 A 
ATOM     15  C   UNL     1       3.744   6.228   0.455  0.00  0.00    +0.038 A 
ATOM     16  C   UNL     1       3.401   5.205  -0.414  0.00  0.00    +0.124 A 
ATOM     17  C   UNL     1       3.099   3.950   0.079  0.00  0.00    +0.046 A 
ATOM     18  F   UNL     1       3.368   5.433  -1.745  0.00  0.00    -0.205 F 
ENDBRANCH   4  12
BRANCH   8  19
ATOM     19  C   UNL     1       0.815  -2.818   0.617  0.00  0.00    -0.032 A 
ATOM     20  C   UNL     1       2.135  -2.819   0.206  0.00  0.00    +0.005 A 
ATOM     21  C   UNL     1       2.548  -3.679  -0.794  0.00  0.00    +0.003 A 
ATOM     22  C   UNL     1       1.639  -4.533  -1.391  0.00  0.00    +0.038 A 
ATOM     23  C   UNL     1       0.316  -4.529  -0.984  0.00  0.00    +0.124 A 
ATOM     24  C   UNL     1      -0.096  -3.671   0.022  0.00  0.00    +0.043 A 
ATOM     25  F   UNL     1      -0.573  -5.363  -1.567  0.00  0.00    -0.205 F 
ENDBRANCH   8  19
BRANCH  10  26
ATOM     26  N   UNL     1       2.826  -1.734   4.531  0.00  0.00    -0.328 N 
ATOM     27  H   UNL     1       3.668  -1.109   4.863  0.00  0.00    +0.145 HD
ATOM     28  H   UNL     1       2.522  -2.608   5.126  0.00  0.00    +0.145 HD
ENDBRANCH  10  26
BRANCH   1  30
ATOM     29  C   UNL     1      -1.356   3.737  -0.291  0.00  0.00    +0.020 C 
ATOM     30  C   UNL     1      -1.219   2.241  -0.580  0.00  0.00    +0.082 C 
ENDBRANCH   1  30
BRANCH   9  31
ATOM     31  C   UNL     1       0.735  -3.333   3.760  0.00  0.00    +0.101 C 
ATOM     32  N   UNL     1       0.432  -4.232   4.385  0.00  0.00    -0.191 NA
ENDBRANCH   9  31
TORSDOF 5
