REMARK  Name = ZINC37360103
REMARK  3 active torsions:
REMARK  status: ('A' for Active; 'I' for Inactive)
REMARK    1  A    between atoms: C_4  and  N_7
REMARK    2  A    between atoms: C_8  and  N_33
REMARK    3  A    between atoms: C_10  and  C_28
REMARK                            x       y       z     vdW  Elec       q    Type
REMARK                         _______ _______ _______ _____ _____    ______ ____
ROOT
ATOM      1  N   UNL     1       3.456  -0.682   0.313  0.00  0.00    -0.216 N 
ATOM      2  C   UNL     1       3.921  -1.823   0.863  0.00  0.00    +0.131 A 
ATOM      3  C   UNL     1       5.236  -1.981   0.449  0.00  0.00    +0.087 A 
ATOM      4  C   UNL     1       6.258  -2.938   0.662  0.00  0.00    +0.095 A 
ATOM      5  N   UNL     1       7.436  -2.742   0.075  0.00  0.00    -0.213 NA
ATOM      6  C   UNL     1       7.673  -1.686  -0.696  0.00  0.00    +0.220 A 
ATOM      7  N   UNL     1       6.780  -0.750  -0.946  0.00  0.00    -0.193 NA
ATOM      8  C   UNL     1       5.544  -0.826  -0.413  0.00  0.00    +0.189 A 
ATOM      9  N   UNL     1       4.456  -0.089  -0.466  0.00  0.00    -0.144 NA
ATOM     10  N   UNL     1       8.927  -1.562  -1.266  0.00  0.00    -0.297 N 
ATOM     11  C   UNL     1       9.961  -2.578  -1.027  0.00  0.00    +0.127 C 
ATOM     12  C   UNL     1      10.458  -3.100  -2.381  0.00  0.00    +0.125 C 
ATOM     13  N   UNL     1      10.780  -1.950  -3.238  0.00  0.00    -0.314 N 
ATOM     14  C   UNL     1       9.745  -0.934  -3.477  0.00  0.00    +0.125 C 
ATOM     15  C   UNL     1       9.246  -0.415  -2.128  0.00  0.00    +0.127 C 
ATOM     16  C   UNL     1      12.040  -1.826  -3.812  0.00  0.00    +0.099 A 
ATOM     17  C   UNL     1      12.958  -2.864  -3.691  0.00  0.00    +0.042 A 
ATOM     18  C   UNL     1      14.208  -2.727  -4.267  0.00  0.00    +0.005 A 
ATOM     19  C   UNL     1      14.499  -1.551  -4.946  0.00  0.00    +0.018 A 
ATOM     20  C   UNL     1      13.541  -0.562  -5.027  0.00  0.00    +0.084 A 
ATOM     21  N   UNL     1      12.354  -0.722  -4.472  0.00  0.00    -0.350 N 
ATOM     22  H   UNL     1      11.697  -0.013  -4.547  0.00  0.00    +0.166 HD
ENDROOT
BRANCH   1  26
ATOM     23  C   UNL     1      -0.387   0.840   0.840  0.00  0.00    +0.000 A 
ATOM     24  C   UNL     1       0.687   1.703   0.720  0.00  0.00    +0.002 A 
ATOM     25  C   UNL     1       1.962   1.202   0.545  0.00  0.00    +0.028 A 
ATOM     26  C   UNL     1       2.165  -0.171   0.490  0.00  0.00    +0.067 A 
ATOM     27  C   UNL     1       1.085  -1.036   0.611  0.00  0.00    +0.028 A 
ATOM     28  C   UNL     1      -0.188  -0.528   0.785  0.00  0.00    +0.002 A 
ENDBRANCH   1  26
BRANCH   4  29
ATOM     29  C   UNL     1       6.024  -4.116   1.511  0.00  0.00    +0.038 A 
ATOM     30  C   UNL     1       4.946  -4.984   1.521  0.00  0.00    +0.017 A 
ATOM     31  C   UNL     1       5.010  -6.008   2.439  0.00  0.00    +0.008 A 
ATOM     32  C   UNL     1       6.092  -6.097   3.249  0.00  0.00    +0.046 A 
ATOM     33  S   UNL     1       7.059  -4.803   2.789  0.00  0.00    -0.095 S 
ENDBRANCH   4  29
BRANCH   2  34
ATOM     34  N   UNL     1       3.215  -2.678   1.689  0.00  0.00    -0.342 N 
ATOM     35  H   UNL     1       2.315  -2.449   1.970  0.00  0.00    +0.144 HD
ATOM     36  H   UNL     1       3.620  -3.507   1.988  0.00  0.00    +0.144 HD
ENDBRANCH   2  34
TORSDOF 3
