REMARK  Name = ZINC15329330
REMARK  11 active torsions:
REMARK  status: ('A' for Active; 'I' for Inactive)
REMARK    1  A    between atoms: C_1  and  C_2
REMARK    2  A    between atoms: C_4  and  N_28
REMARK    3  A    between atoms: C_6  and  S_9
REMARK    4  A    between atoms: C_7  and  C_8
REMARK    5  A    between atoms: S_9  and  N_12
REMARK    6  A    between atoms: N_12  and  C_13
REMARK    7  A    between atoms: C_13  and  C_14
REMARK    8  A    between atoms: C_14  and  C_16
REMARK    9  A    between atoms: C_14  and  N_57
REMARK   10  A    between atoms: C_19  and  O_22
REMARK   11  A    between atoms: O_22  and  C_23
REMARK                            x       y       z     vdW  Elec       q    Type
REMARK                         _______ _______ _______ _____ _____    ______ ____
ROOT
ATOM      1  N   UNL     1      -1.658  -1.682  -1.438  0.00  0.00    -0.191 NA
ATOM      2  H   UNL     1      -2.251  -1.296  -2.102  0.00  0.00    +0.148 HD
ENDROOT
BRANCH   1   3
ATOM      3  S   UNL     1      -1.660  -1.100   0.112  0.00  0.00    +0.059 S 
ATOM      4  O   UNL     1      -1.798  -2.226   0.968  0.00  0.00    -0.153 OA
ATOM      5  O   UNL     1      -2.570  -0.009   0.136  0.00  0.00    -0.153 OA
BRANCH   3  11
ATOM      6  C   UNL     1       2.106   2.399  -0.835  0.00  0.00    +0.044 C 
ATOM      7  C   UNL     1       1.630   1.200  -0.056  0.00  0.00    -0.044 A 
ATOM      8  C   UNL     1       2.449   0.627   0.900  0.00  0.00    +0.036 A 
ATOM      9  C   UNL     1       2.014  -0.472   1.614  0.00  0.00    +0.128 A 
ATOM     10  C   UNL     1       0.758  -1.000   1.374  0.00  0.00    +0.061 A 
ATOM     11  C   UNL     1      -0.060  -0.428   0.419  0.00  0.00    +0.111 A 
ATOM     12  C   UNL     1       0.376   0.673  -0.296  0.00  0.00    -0.021 A 
ATOM     13  C   UNL     1      -0.517   1.297  -1.337  0.00  0.00    +0.046 C 
BRANCH   9  14
ATOM     14  N   UNL     1       2.890  -1.085   2.638  0.00  0.00    +0.056 N 
ATOM     15  O   UNL     1       2.506  -2.054   3.268  0.00  0.00    -0.126 OA
ATOM     16  O   UNL     1       3.996  -0.620   2.849  0.00  0.00    -0.126 OA
ENDBRANCH   9  14
ENDBRANCH   3  11
ENDBRANCH   1   3
BRANCH   1  17
ATOM     17  C   UNL     1      -0.759  -2.778  -1.808  0.00  0.00    +0.095 C 
BRANCH  17  18
ATOM     18  C   UNL     1      -1.217  -3.387  -3.135  0.00  0.00    -0.022 C 
BRANCH  18  19
ATOM     19  C   UNL     1      -0.225  -4.431  -3.577  0.00  0.00    -0.059 A 
ATOM     20  C   UNL     1      -0.668  -5.585  -4.198  0.00  0.00    +0.005 A 
ATOM     21  C   UNL     1       0.240  -6.541  -4.610  0.00  0.00    +0.046 A 
ATOM     22  C   UNL     1       1.597  -6.349  -4.389  0.00  0.00    +0.120 A 
ATOM     23  C   UNL     1       2.038  -5.194  -3.760  0.00  0.00    +0.046 A 
ATOM     24  C   UNL     1       1.126  -4.237  -3.356  0.00  0.00    +0.005 A 
BRANCH  22  25
ATOM     25  O   UNL     1       2.491  -7.292  -4.787  0.00  0.00    -0.495 OA
ATOM     26  C   UNL     1       1.965  -8.456  -5.427  0.00  0.00    +0.277 C 
ENDBRANCH  22  25
ENDBRANCH  18  19
BRANCH  18  31
ATOM     27  C   UNL     1       0.042  -1.802  -4.488  0.00  0.00    -0.078 C 
ATOM     28  C   UNL     1      -0.171  -1.141  -5.873  0.00  0.00    -0.020 C 
ATOM     29  C   UNL     1      -1.162  -2.103  -6.567  0.00  0.00    -0.020 C 
ATOM     30  C   UNL     1      -1.855  -2.862  -5.420  0.00  0.00    -0.078 C 
ATOM     31  N   UNL     1      -1.299  -2.321  -4.179  0.00  0.00    +0.385 N 
ATOM     32  H   UNL     1      -1.895  -1.559  -3.835  0.00  0.00    -0.081 HD
ENDBRANCH  18  31
ENDBRANCH  17  18
ENDBRANCH   1  17
TORSDOF 8
