REMARK  Name = ZINC22853730
REMARK  6 active torsions:
REMARK  status: ('A' for Active; 'I' for Inactive)
REMARK    1  A    between atoms: C_1  and  C_2
REMARK    2  A    between atoms: C_2  and  C_3
REMARK    3  A    between atoms: C_9  and  C_11
REMARK    4  A    between atoms: C_11  and  C_13
REMARK    5  A    between atoms: C_11  and  N_20
REMARK    6  A    between atoms: C_23  and  C_26
REMARK                            x       y       z     vdW  Elec       q    Type
REMARK                         _______ _______ _______ _____ _____    ______ ____
ROOT
ATOM      1  C   UNL     1       1.229  -2.185  -0.022  0.00  0.00    +0.006 C 
ENDROOT
BRANCH   1   8
ATOM      2  C   UNL     1       0.822  -3.545  -5.813  0.00  0.00    +0.152 A 
ATOM      3  N   UNL     1       2.014  -3.175  -5.348  0.00  0.00    -0.205 NA
ATOM      4  C   UNL     1       1.917  -2.917  -4.072  0.00  0.00    +0.199 A 
ATOM      5  N   UNL     1       0.635  -3.116  -3.662  0.00  0.00    -0.170 N 
ATOM      6  N   UNL     1      -0.045  -3.527  -4.838  0.00  0.00    -0.146 NA
ATOM      7  C   UNL     1       0.357  -2.893  -2.334  0.00  0.00    +0.282 A 
ATOM      8  C   UNL     1       1.318  -2.487  -1.496  0.00  0.00    +0.050 A 
ATOM      9  S   UNL     1       2.735  -2.406  -2.580  0.00  0.00    -0.050 S 
ATOM     10  O   UNL     1      -0.907  -3.082  -1.870  0.00  0.00    -0.265 OA
BRANCH   2  12
ATOM     11  C   UNL     1       0.731  -5.431  -7.421  0.00  0.00    +0.012 C 
ATOM     12  C   UNL     1       0.523  -3.926  -7.240  0.00  0.00    +0.075 C 
ENDBRANCH   2  12
ENDBRANCH   1   8
BRANCH   1  13
ATOM     13  C   UNL     1       1.298  -0.695   0.190  0.00  0.00    -0.055 A 
ATOM     14  C   UNL     1       2.502  -0.031   0.044  0.00  0.00    +0.002 A 
ATOM     15  C   UNL     1       2.566   1.336   0.238  0.00  0.00    +0.001 A 
ATOM     16  C   UNL     1       1.426   2.040   0.579  0.00  0.00    +0.015 A 
ATOM     17  C   UNL     1       0.221   1.376   0.725  0.00  0.00    +0.018 A 
ATOM     18  C   UNL     1       0.158   0.008   0.530  0.00  0.00    +0.017 A 
ATOM     19 BR   UNL     1      -1.340   2.340   1.182  0.00  0.00    -0.050 Br
ENDBRANCH   1  13
BRANCH   1  20
ATOM     20  N   UNL     1       2.346  -2.832   0.679  0.00  0.00    +0.387 N 
ATOM     21  C   UNL     1       2.360  -4.278   0.425  0.00  0.00    -0.077 C 
ATOM     22  C   UNL     1       3.615  -4.895   1.048  0.00  0.00    -0.006 C 
ATOM     23  C   UNL     1       3.617  -4.622   2.555  0.00  0.00    +0.071 C 
ATOM     24  C   UNL     1       3.554  -3.111   2.792  0.00  0.00    -0.006 C 
ATOM     25  C   UNL     1       2.301  -2.546   2.119  0.00  0.00    -0.077 C 
ATOM     26  H   UNL     1       3.283  -2.413   0.283  0.00  0.00    -0.080 HD
BRANCH  23  27
ATOM     27  C   UNL     1       4.879  -5.175   3.166  0.00  0.00    +0.213 C 
ATOM     28  O   UNL     1       5.652  -4.434   3.735  0.00  0.00    -0.276 OA
ATOM     29  N   UNL     1       5.148  -6.493   3.079  0.00  0.00    -0.329 N 
ATOM     30  H   UNL     1       6.069  -6.896   3.526  0.00  0.00    +0.145 HD
ATOM     31  H   UNL     1       4.447  -7.165   2.563  0.00  0.00    +0.145 HD
ENDBRANCH  23  27
ENDBRANCH   1  20
TORSDOF 5
