REMARK  Name = ZINC00187299
REMARK  6 active torsions:
REMARK  status: ('A' for Active; 'I' for Inactive)
REMARK    1  A    between atoms: C_1  and  C_2
REMARK    2  A    between atoms: C_2  and  O_3
REMARK    3  A    between atoms: O_3  and  C_4
REMARK    4  A    between atoms: C_4  and  C_6
REMARK    5  A    between atoms: C_7  and  C_23
REMARK    6  A    between atoms: C_12  and  C_14
REMARK                            x       y       z     vdW  Elec       q    Type
REMARK                         _______ _______ _______ _____ _____    ______ ____
ROOT
ATOM      1  C   UNL     1      -2.799  -2.431   0.231  0.00  0.00    +0.078 C 
ATOM      2  C   UNL     1      -2.984  -3.731  -0.085  0.00  0.00    +0.019 C 
ATOM      3  N   UNL     1      -4.236  -4.235  -0.292  0.00  0.00    -0.300 N 
ATOM      4  C   UNL     1      -5.354  -3.504  -0.203  0.00  0.00    +0.135 C 
ATOM      5  S   UNL     1      -6.863  -4.263  -0.488  0.00  0.00    -0.019 S 
ATOM      6  N   UNL     1      -5.332  -2.192   0.103  0.00  0.00    -0.315 N 
ATOM      7  C   UNL     1      -4.029  -1.553   0.352  0.00  0.00    +0.141 C 
ATOM      8  C   UNL     1      -1.789  -4.641  -0.210  0.00  0.00    +0.061 C 
ATOM      9  H   UNL     1      -4.319  -5.175  -0.517  0.00  0.00    +0.154 HD
ATOM     10  H   UNL     1      -6.155  -1.682   0.162  0.00  0.00    +0.149 HD
ENDROOT
BRANCH   7  11
ATOM     11  C   UNL     1      -4.049  -0.971   1.742  0.00  0.00    -0.019 A 
ATOM     12  C   UNL     1      -4.501  -1.734   2.802  0.00  0.00    +0.009 A 
ATOM     13  C   UNL     1      -4.522  -1.205   4.079  0.00  0.00    +0.050 A 
ATOM     14  C   UNL     1      -4.089   0.092   4.299  0.00  0.00    +0.166 A 
ATOM     15  C   UNL     1      -3.634   0.861   3.231  0.00  0.00    +0.167 A 
ATOM     16  C   UNL     1      -3.611   0.322   1.955  0.00  0.00    +0.055 A 
ATOM     17  O   UNL     1      -3.268   2.089   3.702  0.00  0.00    -0.453 OA
ATOM     18  C   UNL     1      -3.885   2.203   4.998  0.00  0.00    +0.466 C 
ATOM     19  O   UNL     1      -4.008   0.839   5.439  0.00  0.00    -0.453 OA
ENDBRANCH   7  11
BRANCH   1  20
ATOM     20  C   UNL     1      -1.503  -1.907   0.446  0.00  0.00    +0.339 C 
ATOM     21  O   UNL     1      -0.543  -2.654   0.473  0.00  0.00    -0.245 OA
BRANCH  20  22
ATOM     22  O   UNL     1      -1.332  -0.581   0.622  0.00  0.00    -0.462 OA
BRANCH  22  24
ATOM     23  C   UNL     1      -0.000   1.398   1.013  0.00  0.00    +0.048 C 
ATOM     24  C   UNL     1       0.005  -0.122   0.835  0.00  0.00    +0.229 C 
ENDBRANCH  22  24
ENDBRANCH  20  22
ENDBRANCH   1  20
TORSDOF 4
