REMARK  Name = ZINC22371383
REMARK  11 active torsions:
REMARK  status: ('A' for Active; 'I' for Inactive)
REMARK    1  A    between atoms: C_1  and  C_2
REMARK    2  A    between atoms: C_6  and  N_8
REMARK    3  A    between atoms: N_8  and  C_9
REMARK    4  A    between atoms: N_8  and  S_28
REMARK    5  A    between atoms: C_9  and  C_10
REMARK    6  A    between atoms: N_12  and  C_13
REMARK    7  A    between atoms: C_16  and  C_26
REMARK    8  A    between atoms: C_16  and  C_27
REMARK    9  A    between atoms: C_22  and  O_24
REMARK   10  A    between atoms: O_24  and  C_25
REMARK   11  A    between atoms: S_28  and  C_31
REMARK                            x       y       z     vdW  Elec       q    Type
REMARK                         _______ _______ _______ _____ _____    ______ ____
ROOT
ATOM      1  C   UNL     1      -4.086   1.415   0.464  0.00  0.00    +0.227 C 
ENDROOT
BRANCH   1   2
ATOM      2  C   UNL     1      -4.696   2.284  -0.605  0.00  0.00    +0.233 C 
ATOM      3  O   UNL     1      -4.067   2.540  -1.611  0.00  0.00    -0.274 OA
ATOM      4  N   UNL     1      -5.939   2.778  -0.445  0.00  0.00    -0.307 N 
ATOM      5  H   UNL     1      -6.510   2.547   0.467  0.00  0.00    +0.149 HD
BRANCH   4   6
ATOM      6  C   UNL     1      -6.532   3.624  -1.484  0.00  0.00    +0.110 C 
ATOM      7  C   UNL     1      -7.595   4.530  -0.859  0.00  0.00    +0.074 C 
ATOM      8  C   UNL     1      -8.396   5.185  -1.992  0.00  0.00    +0.107 C 
ATOM      9  O   UNL     1      -9.098   4.161  -2.697  0.00  0.00    -0.486 OA
ATOM     10  C   UNL     1      -8.399   3.063  -3.087  0.00  0.00    +0.130 A 
ATOM     11  C   UNL     1      -7.165   2.752  -2.539  0.00  0.00    +0.015 A 
ATOM     12  C   UNL     1      -6.488   1.620  -2.961  0.00  0.00    +0.012 A 
ATOM     13  C   UNL     1      -7.034   0.799  -3.927  0.00  0.00    +0.046 A 
ATOM     14  C   UNL     1      -8.268   1.108  -4.481  0.00  0.00    +0.124 A 
ATOM     15  C   UNL     1      -8.949   2.239  -4.061  0.00  0.00    +0.091 A 
ATOM     16  C   UNL     1      -9.395   6.185  -1.406  0.00  0.00    +0.055 C 
ATOM     17  C   UNL     1      -7.443   5.908  -2.946  0.00  0.00    +0.055 C 
BRANCH  14  18
ATOM     18  O   UNL     1      -8.808   0.303  -5.434  0.00  0.00    -0.495 OA
ATOM     19  C   UNL     1      -8.050  -0.846  -5.818  0.00  0.00    +0.277 C 
ENDBRANCH  14  18
ENDBRANCH   4   6
ENDBRANCH   1   2
BRANCH   1  20
ATOM     20  N   UNL     1      -2.740   1.009   0.054  0.00  0.00    -0.194 N 
BRANCH  20  26
ATOM     21  C   UNL     1      -0.968   5.533   0.792  0.00  0.00    +0.044 C 
ATOM     22  C   UNL     1      -0.763   4.045   0.667  0.00  0.00    -0.049 A 
ATOM     23  C   UNL     1       0.506   3.510   0.793  0.00  0.00    +0.003 A 
ATOM     24  C   UNL     1       0.699   2.146   0.678  0.00  0.00    +0.002 A 
ATOM     25  C   UNL     1      -0.376   1.313   0.436  0.00  0.00    +0.025 A 
ATOM     26  C   UNL     1      -1.651   1.848   0.304  0.00  0.00    +0.052 A 
ATOM     27  C   UNL     1      -1.842   3.218   0.425  0.00  0.00    +0.028 A 
ENDBRANCH  20  26
BRANCH  20  28
ATOM     28  S   UNL     1      -2.508  -0.445  -0.705  0.00  0.00    +0.075 S 
ATOM     29  O   UNL     1      -3.740  -0.777  -1.331  0.00  0.00    -0.150 OA
ATOM     30  O   UNL     1      -1.290  -0.335  -1.429  0.00  0.00    -0.150 OA
BRANCH  28  31
ATOM     31  C   UNL     1      -2.241  -1.651   0.551  0.00  0.00    +0.109 A 
ATOM     32  C   UNL     1      -0.952  -2.014   0.898  0.00  0.00    +0.030 A 
ATOM     33  C   UNL     1      -0.742  -2.956   1.887  0.00  0.00    +0.022 A 
ATOM     34  C   UNL     1      -1.821  -3.545   2.522  0.00  0.00    +0.041 A 
ATOM     35  C   UNL     1      -3.110  -3.186   2.171  0.00  0.00    +0.022 A 
ATOM     36  C   UNL     1      -3.319  -2.239   1.185  0.00  0.00    +0.030 A 
ATOM     37 CL   UNL     1      -1.558  -4.734   3.759  0.00  0.00    -0.084 Cl
ENDBRANCH  28  31
ENDBRANCH  20  28
ENDBRANCH   1  20
TORSDOF 7
