REMARK  Name = ZINC40812738
REMARK  6 active torsions:
REMARK  status: ('A' for Active; 'I' for Inactive)
REMARK    1  A    between atoms: C_1  and  C_2
REMARK    2  A    between atoms: C_6  and  C_7
REMARK    3  A    between atoms: C_7  and  O_9
REMARK    4  A    between atoms: O_9  and  C_10
REMARK    5  A    between atoms: N_24  and  N_25
REMARK    6  A    between atoms: C_26  and  C_28
REMARK                            x       y       z     vdW  Elec       q    Type
REMARK                         _______ _______ _______ _____ _____    ______ ____
ROOT
ATOM      1  C   UNL     1      -0.285   1.509   0.031  0.00  0.00    +0.048 C 
ATOM      2  C   UNL     1      -0.164   0.007   0.013  0.00  0.00    +0.011 A 
ATOM      3  C   UNL     1      -0.127  -0.819  -1.117  0.00  0.00    +0.042 A 
ATOM      4  C   UNL     1      -0.012  -2.117  -0.676  0.00  0.00    +0.115 A 
ATOM      5  O   UNL     1       0.025  -2.098   0.654  0.00  0.00    -0.452 OA
ATOM      6  C   UNL     1      -0.062  -0.822   1.096  0.00  0.00    +0.215 A 
ATOM      7  C   UNL     1       0.053  -3.298  -1.611  0.00  0.00    +0.075 C 
ATOM      8  C   UNL     1      -0.529  -2.903  -2.970  0.00  0.00    +0.014 C 
ATOM      9  C   UNL     1       0.146  -1.634  -3.500  0.00  0.00    +0.058 C 
ATOM     10  C   UNL     1      -0.190  -0.487  -2.558  0.00  0.00    +0.070 C 
ATOM     11  N   UNL     1      -0.507   0.696  -2.986  0.00  0.00    -0.184 NA
ENDROOT
BRANCH  11  12
ATOM     12  N   UNL     1      -0.550   0.954  -4.362  0.00  0.00    -0.203 N 
ATOM     13  C   UNL     1      -0.881   2.182  -4.808  0.00  0.00    +0.265 C 
ATOM     14  O   UNL     1      -1.141   3.067  -4.015  0.00  0.00    -0.268 OA
ATOM     15  H   UNL     1      -0.343   0.248  -4.995  0.00  0.00    +0.178 HD
BRANCH  13  16
ATOM     16  C   UNL     1      -0.926   2.454  -6.259  0.00  0.00    +0.057 A 
ATOM     17  C   UNL     1      -0.633   1.440  -7.173  0.00  0.00    +0.014 A 
ATOM     18  C   UNL     1      -0.677   1.700  -8.526  0.00  0.00    +0.001 A 
ATOM     19  C   UNL     1      -1.011   2.965  -8.981  0.00  0.00    +0.001 A 
ATOM     20  C   UNL     1      -1.302   3.975  -8.083  0.00  0.00    +0.021 A 
ATOM     21  C   UNL     1      -1.268   3.727  -6.724  0.00  0.00    +0.053 A 
ATOM     22 CL   UNL     1      -1.642   4.994  -5.598  0.00  0.00    -0.083 Cl
ENDBRANCH  13  16
ENDBRANCH  11  12
BRANCH   6  23
ATOM     23  C   UNL     1      -0.053  -0.400   2.499  0.00  0.00    +0.380 C 
ATOM     24  O   UNL     1      -0.140   0.781   2.780  0.00  0.00    -0.241 OA
BRANCH  23  25
ATOM     25  O   UNL     1       0.054  -1.320   3.480  0.00  0.00    -0.420 OA
BRANCH  25  26
ATOM     26  C   UNL     1       0.164  -0.878   4.759  0.00  0.00    +0.140 A 
ATOM     27  C   UNL     1       1.405  -0.711   5.332  0.00  0.00    +0.047 A 
ATOM     28  C   UNL     1       1.530  -0.259   6.642  0.00  0.00    +0.004 A 
ATOM     29  C   UNL     1       0.431   0.031   7.393  0.00  0.00    +0.009 A 
ATOM     30  C   UNL     1      -0.853  -0.126   6.846  0.00  0.00    -0.014 A 
ATOM     31  C   UNL     1      -0.991  -0.581   5.511  0.00  0.00    +0.025 A 
ATOM     32  C   UNL     1      -2.276  -0.732   4.964  0.00  0.00    +0.012 A 
ATOM     33  C   UNL     1      -3.369  -0.436   5.719  0.00  0.00    +0.001 A 
ATOM     34  C   UNL     1      -3.234   0.017   7.029  0.00  0.00    +0.001 A 
ATOM     35  C   UNL     1      -2.005   0.165   7.597  0.00  0.00    +0.008 A 
ENDBRANCH  25  26
ENDBRANCH  23  25
ENDBRANCH   6  23
TORSDOF 5
