REMARK  Name = ZINC43284399
REMARK  6 active torsions:
REMARK  status: ('A' for Active; 'I' for Inactive)
REMARK    1  A    between atoms: C_1  and  C_2
REMARK    2  A    between atoms: C_2  and  C_4
REMARK    3  A    between atoms: C_2  and  N_19
REMARK    4  A    between atoms: C_4  and  C_6
REMARK    5  A    between atoms: C_4  and  N_12
REMARK    6  A    between atoms: N_15  and  C_18
REMARK                            x       y       z     vdW  Elec       q    Type
REMARK                         _______ _______ _______ _____ _____    ______ ____
ROOT
ATOM      1  C   UNL     1       0.667  -0.612   1.238  0.00  0.00    +0.079 C 
ENDROOT
BRANCH   1   2
ATOM      2  N   UNL     1      -0.092  -0.235   2.438  0.00  0.00    -0.300 NA
ATOM      3  C   UNL     1      -0.313   1.217   2.487  0.00  0.00    +0.066 C 
ATOM      4  C   UNL     1      -1.156   1.561   3.717  0.00  0.00    -0.064 C 
ATOM      5  N   UNL     1      -0.459   1.113   4.930  0.00  0.00    +0.379 N 
ATOM      6  C   UNL     1      -0.268  -0.342   4.878  0.00  0.00    -0.064 C 
ATOM      7  C   UNL     1       0.583  -0.702   3.657  0.00  0.00    +0.066 C 
ATOM      8  C   UNL     1      -1.260   1.459   6.111  0.00  0.00    -0.096 C 
ATOM      9  H   UNL     1       0.440   1.568   4.988  0.00  0.00    -0.082 HD
ENDBRANCH   1   2
BRANCH   1  10
ATOM     10  C   UNL     1       0.861  -2.106   1.216  0.00  0.00    +0.006 A 
ATOM     11  C   UNL     1       1.957  -2.819   0.858  0.00  0.00    +0.028 A 
ATOM     12  C   UNL     1       1.907  -4.200   0.916  0.00  0.00    +0.025 A 
ATOM     13  C   UNL     1       0.763  -4.799   1.330  0.00  0.00    +0.060 A 
ATOM     14  S   UNL     1      -0.290  -3.396   1.661  0.00  0.00    -0.099 S 
ATOM     15 BR   UNL     1       3.411  -5.237   0.426  0.00  0.00    -0.050 Br
ENDBRANCH   1  10
BRANCH   1  17
ATOM     16  C   UNL     1       0.685  -0.575  -1.260  0.00  0.00    -0.012 C 
ATOM     17  C   UNL     1      -0.104  -0.179  -0.010  0.00  0.00    -0.056 C 
BRANCH  17  18
ATOM     18  N   UNL     1      -1.416  -0.839  -0.029  0.00  0.00    +0.381 N 
ATOM     19  H   UNL     1      -1.288  -1.840  -0.043  0.00  0.00    -0.090 HD
ATOM     20  H   UNL     1      -1.936  -0.577   0.795  0.00  0.00    -0.090 HD
ATOM     21  H   UNL     1      -1.924  -0.553  -0.853  0.00  0.00    -0.090 HD
ENDBRANCH  17  18
ENDBRANCH   1  17
TORSDOF 4
