REMARK  Name = ZINC37337840
REMARK  3 active torsions:
REMARK  status: ('A' for Active; 'I' for Inactive)
REMARK    1  A    between atoms: C_3  and  C_11
REMARK    2  A    between atoms: C_5  and  O_7
REMARK    3  A    between atoms: O_7  and  C_8
REMARK                            x       y       z     vdW  Elec       q    Type
REMARK                         _______ _______ _______ _____ _____    ______ ____
ROOT
ATOM      1  C   UNL     1      -0.017   1.378   0.010  0.00  0.00    +0.004 A 
ATOM      2  C   UNL     1       1.167   2.089   0.002  0.00  0.00    +0.009 A 
ATOM      3  C   UNL     1       2.386   1.411  -0.013  0.00  0.00    -0.008 A 
ATOM      4  C   UNL     1       2.404   0.016  -0.021  0.00  0.00    +0.055 A 
ATOM      5  C   UNL     1       1.211  -0.687  -0.013  0.00  0.00    +0.127 A 
ATOM      6  C   UNL     1       0.002  -0.004   0.002  0.00  0.00    +0.046 A 
ENDROOT
BRANCH   3   7
ATOM      7  C   UNL     1       3.656   2.169  -0.022  0.00  0.00    +0.022 A 
ATOM      8  C   UNL     1       3.839   3.516  -0.011  0.00  0.00    +0.044 A 
ATOM      9  C   UNL     1       5.137   4.047  -0.022  0.00  0.00    +0.083 A 
ATOM     10  C   UNL     1       6.184   3.092  -0.044  0.00  0.00    +0.075 A 
ATOM     11  S   UNL     1       5.327   1.540  -0.040  0.00  0.00    -0.084 S 
ATOM     12  C   UNL     1       7.503   3.483  -0.057  0.00  0.00    +0.147 A 
ATOM     13  N   UNL     1       7.777   4.783  -0.048  0.00  0.00    -0.223 NA
ATOM     14  C   UNL     1       6.796   5.669  -0.027  0.00  0.00    +0.223 A 
ATOM     15  N   UNL     1       5.529   5.343  -0.014  0.00  0.00    -0.235 NA
ATOM     16 CL   UNL     1       8.779   2.307  -0.083  0.00  0.00    -0.061 Cl
ENDBRANCH   3   7
BRANCH   5  17
ATOM     17  O   UNL     1       1.224  -2.046  -0.021  0.00  0.00    -0.434 OA
BRANCH  17  18
ATOM     18  C   UNL     1      -0.043  -2.706  -0.012  0.00  0.00    +0.541 C 
ATOM     19  F   UNL     1      -0.751  -2.343   1.139  0.00  0.00    -0.166 F 
ATOM     20  F   UNL     1      -0.773  -2.331  -1.145  0.00  0.00    -0.166 F 
ENDBRANCH  17  18
ENDBRANCH   5  17
TORSDOF 3
