REMARK  Name = ZINC12807454
REMARK  11 active torsions:
REMARK  status: ('A' for Active; 'I' for Inactive)
REMARK    1  A    between atoms: C_1  and  C_2
REMARK    2  A    between atoms: C_2  and  C_3
REMARK    3  A    between atoms: C_2  and  C_4
REMARK    4  A    between atoms: C_2  and  C_5
REMARK    5  A    between atoms: C_5  and  C_6
REMARK    6  A    between atoms: N_8  and  C_9
REMARK    7  A    between atoms: C_9  and  C_10
REMARK    8  A    between atoms: C_10  and  C_12
REMARK    9  A    between atoms: C_10  and  C_20
REMARK   10  A    between atoms: C_15  and  O_18
REMARK   11  A    between atoms: O_18  and  C_19
REMARK                            x       y       z     vdW  Elec       q    Type
REMARK                         _______ _______ _______ _____ _____    ______ ____
ROOT
ATOM      1  C   UNL     1      -2.513   0.977   0.019  0.00  0.00    +0.068 C 
ENDROOT
BRANCH   1   2
ATOM      2  C   UNL     1      -3.303   1.322   1.255  0.00  0.00    -0.013 A 
ATOM      3  C   UNL     1      -3.743   2.541   1.607  0.00  0.00    +0.088 A 
ATOM      4  N   UNL     1      -4.426   2.466   2.791  0.00  0.00    -0.360 N 
ATOM      5  H   UNL     1      -4.839   3.217   3.244  0.00  0.00    +0.165 HD
ATOM      6  C   UNL     1      -4.434   1.166   3.245  0.00  0.00    +0.047 A 
ATOM      7  C   UNL     1      -3.732   0.393   2.303  0.00  0.00    +0.003 A 
ATOM      8  C   UNL     1      -3.578  -0.980   2.505  0.00  0.00    +0.010 A 
ATOM      9  C   UNL     1      -4.111  -1.566   3.618  0.00  0.00    +0.001 A 
ATOM     10  C   UNL     1      -4.805  -0.808   4.550  0.00  0.00    +0.002 A 
ATOM     11  C   UNL     1      -4.969   0.549   4.371  0.00  0.00    +0.026 A 
ENDBRANCH   1   2
BRANCH   1  12
ATOM     12  C   UNL     1      -1.220   1.750   0.017  0.00  0.00    -0.038 A 
ATOM     13  C   UNL     1      -0.013   1.076   0.008  0.00  0.00    +0.008 A 
ATOM     14  C   UNL     1       1.175   1.782   0.000  0.00  0.00    +0.046 A 
ATOM     15  C   UNL     1       1.155   3.169   0.008  0.00  0.00    +0.120 A 
ATOM     16  C   UNL     1      -0.057   3.844   0.023  0.00  0.00    +0.046 A 
ATOM     17  C   UNL     1      -1.242   3.133   0.031  0.00  0.00    +0.008 A 
BRANCH  15  18
ATOM     18  O   UNL     1       2.322   3.866   0.000  0.00  0.00    -0.495 OA
ATOM     19  C   UNL     1       2.225   5.292   0.009  0.00  0.00    +0.277 C 
ENDBRANCH  15  18
ENDBRANCH   1  12
BRANCH   1  20
ATOM     20  C   UNL     1      -3.327   1.342  -1.225  0.00  0.00    +0.117 C 
BRANCH  20  23
ATOM     21  C   UNL     1      -5.399   0.650  -2.303  0.00  0.00    +0.214 C 
ATOM     22  O   UNL     1      -5.191   1.475  -3.167  0.00  0.00    -0.276 OA
ATOM     23  N   UNL     1      -4.527   0.504  -1.286  0.00  0.00    -0.314 N 
ATOM     24  H   UNL     1      -4.694  -0.155  -0.594  0.00  0.00    +0.149 HD
BRANCH  21  25
ATOM     25  C   UNL     1      -6.634  -0.211  -2.366  0.00  0.00    +0.102 C 
BRANCH  25  27
ATOM     26  C   UNL     1      -6.599  -0.080  -4.860  0.00  0.00    +0.011 C 
ATOM     27  C   UNL     1      -7.448   0.154  -3.609  0.00  0.00    -0.029 C 
ATOM     28  C   UNL     1      -8.702  -0.721  -3.673  0.00  0.00    +0.011 C 
ATOM     29  C   UNL     1      -7.856   1.626  -3.537  0.00  0.00    +0.011 C 
ENDBRANCH  25  27
ENDBRANCH  21  25
ENDBRANCH  20  23
ENDBRANCH   1  20
TORSDOF 7
