REMARK  Name = ZINC09594548
REMARK  7 active torsions:
REMARK  status: ('A' for Active; 'I' for Inactive)
REMARK    1  A    between atoms: C_1  and  C_2
REMARK    2  A    between atoms: C_3  and  C_28
REMARK    3  A    between atoms: N_5  and  C_22
REMARK    4  A    between atoms: N_11  and  C_14
REMARK    5  A    between atoms: C_17  and  O_20
REMARK    6  A    between atoms: O_20  and  C_21
REMARK    7  A    between atoms: C_33  and  O_34
REMARK                            x       y       z     vdW  Elec       q    Type
REMARK                         _______ _______ _______ _____ _____    ______ ____
ROOT
ATOM      1  C   UNL     1       0.418   0.115   1.243  0.00  0.00    +0.027 C 
ATOM      2  C   UNL     1      -0.239   0.207  -0.136  0.00  0.00    +0.109 C 
ATOM      3  C   UNL     1      -1.264  -0.850  -0.118  0.00  0.00    +0.163 C 
ATOM      4  N   UNL     1      -0.434  -2.102  -0.081  0.00  0.00    -0.243 N 
ATOM      5  O   UNL     1       0.994  -1.679  -0.177  0.00  0.00    -0.257 OA
ATOM      6  C   UNL     1       0.937  -0.469  -0.945  0.00  0.00    +0.252 C 
ATOM      7  C   UNL     1       1.951   0.615  -0.681  0.00  0.00    +0.259 C 
ATOM      8  O   UNL     1       3.145   0.476  -0.523  0.00  0.00    -0.272 OA
ATOM      9  N   UNL     1       1.250   1.786  -0.654  0.00  0.00    -0.208 N 
ATOM     10  C   UNL     1      -0.101   1.594  -0.513  0.00  0.00    +0.238 C 
ATOM     11  O   UNL     1      -0.985   2.408  -0.674  0.00  0.00    -0.274 OA
ENDROOT
BRANCH   9  12
ATOM     12  C   UNL     1       1.847   3.051  -0.761  0.00  0.00    +0.044 A 
ATOM     13  C   UNL     1       1.061   4.195  -0.732  0.00  0.00    +0.027 A 
ATOM     14  C   UNL     1       1.649   5.440  -0.833  0.00  0.00    +0.047 A 
ATOM     15  C   UNL     1       3.026   5.548  -0.973  0.00  0.00    +0.120 A 
ATOM     16  C   UNL     1       3.811   4.405  -1.008  0.00  0.00    +0.047 A 
ATOM     17  C   UNL     1       3.224   3.160  -0.902  0.00  0.00    +0.027 A 
BRANCH  15  18
ATOM     18  O   UNL     1       3.604   6.774  -1.077  0.00  0.00    -0.495 OA
ATOM     19  C   UNL     1       2.735   7.907  -1.034  0.00  0.00    +0.277 C 
ENDBRANCH  15  18
ENDBRANCH   9  12
BRANCH   4  20
ATOM     20  C   UNL     1      -0.665  -2.821   1.095  0.00  0.00    +0.065 A 
ATOM     21  C   UNL     1      -1.925  -3.343   1.356  0.00  0.00    +0.028 A 
ATOM     22  C   UNL     1      -2.148  -4.057   2.517  0.00  0.00    +0.002 A 
ATOM     23  C   UNL     1      -1.121  -4.242   3.424  0.00  0.00    +0.000 A 
ATOM     24  C   UNL     1       0.133  -3.719   3.170  0.00  0.00    +0.002 A 
ATOM     25  C   UNL     1       0.365  -3.009   2.009  0.00  0.00    +0.028 A 
ENDBRANCH   4  20
BRANCH   3  26
ATOM     26  C   UNL     1      -2.125  -0.741   1.114  0.00  0.00    +0.020 A 
ATOM     27  C   UNL     1      -1.575  -0.958   2.363  0.00  0.00    +0.009 A 
ATOM     28  C   UNL     1      -2.364  -0.854   3.494  0.00  0.00    +0.001 A 
ATOM     29  C   UNL     1      -3.706  -0.541   3.378  0.00  0.00    +0.004 A 
ATOM     30  C   UNL     1      -4.261  -0.328   2.131  0.00  0.00    +0.046 A 
ATOM     31  C   UNL     1      -3.471  -0.427   0.995  0.00  0.00    +0.122 A 
BRANCH  31  32
ATOM     32  O   UNL     1      -4.014  -0.217  -0.233  0.00  0.00    -0.506 OA
ATOM     33  H   UNL     1      -4.367  -1.016  -0.649  0.00  0.00    +0.292 HD
ENDBRANCH  31  32
ENDBRANCH   3  26
TORSDOF 5
