REMARK  Name = ZINC26492962
REMARK  13 active torsions:
REMARK  status: ('A' for Active; 'I' for Inactive)
REMARK    1  A    between atoms: C_1  and  C_2
REMARK    2  A    between atoms: C_2  and  C_4
REMARK    3  A    between atoms: C_2  and  N_14
REMARK    4  A    between atoms: C_6  and  O_12
REMARK    5  A    between atoms: C_9  and  O_10
REMARK    6  A    between atoms: O_10  and  C_11
REMARK    7  A    between atoms: O_12  and  C_13
REMARK    8  A    between atoms: C_15  and  C_17
REMARK    9  A    between atoms: C_17  and  C_19
REMARK   10  A    between atoms: C_17  and  S_20
REMARK   11  A    between atoms: S_20  and  C_21
REMARK   12  A    between atoms: C_24  and  C_28
REMARK   13  A    between atoms: C_25  and  N_27
REMARK                            x       y       z     vdW  Elec       q    Type
REMARK                         _______ _______ _______ _____ _____    ______ ____
ROOT
ATOM      1  N   UNL     1      -3.178   4.349   4.362  0.00  0.00    -0.308 N 
ATOM      2  C   UNL     1      -4.293   4.759   4.998  0.00  0.00    +0.227 C 
ATOM      3  O   UNL     1      -4.509   5.944   5.141  0.00  0.00    -0.275 OA
ATOM      4  H   UNL     1      -2.982   3.275   4.232  0.00  0.00    +0.149 HD
ENDROOT
BRANCH   1   6
ATOM      5  C   UNL     1      -1.229   5.707   4.945  0.00  0.00    +0.033 C 
ATOM      6  C   UNL     1      -2.225   5.335   3.845  0.00  0.00    +0.104 C 
BRANCH   6   7
ATOM      7  C   UNL     1      -1.483   4.750   2.672  0.00  0.00    +0.018 A 
ATOM      8  C   UNL     1      -1.307   3.383   2.579  0.00  0.00    +0.054 A 
ATOM      9  C   UNL     1      -0.624   2.844   1.498  0.00  0.00    +0.121 A 
ATOM     10  C   UNL     1      -0.113   3.678   0.515  0.00  0.00    +0.049 A 
ATOM     11  C   UNL     1      -0.294   5.044   0.605  0.00  0.00    +0.049 A 
ATOM     12  C   UNL     1      -0.977   5.583   1.686  0.00  0.00    +0.125 A 
BRANCH  12  13
ATOM     13  O   UNL     1      -1.151   6.928   1.778  0.00  0.00    -0.495 OA
ATOM     14  C   UNL     1      -0.603   7.726   0.726  0.00  0.00    +0.277 C 
ENDBRANCH  12  13
BRANCH   9  15
ATOM     15  O   UNL     1      -0.451   1.498   1.406  0.00  0.00    -0.495 OA
ATOM     16  C   UNL     1       0.262   1.012   0.267  0.00  0.00    +0.277 C 
ENDBRANCH   9  15
ENDBRANCH   6   7
ENDBRANCH   1   6
BRANCH   2  17
ATOM     17  C   UNL     1      -5.273   3.745   5.529  0.00  0.00    +0.137 C 
ATOM     18  C   UNL     1      -6.155   3.240   4.386  0.00  0.00    +0.029 C 
BRANCH  17  19
ATOM     19  S   UNL     1      -6.311   4.515   6.797  0.00  0.00    -0.074 S 
BRANCH  19  20
ATOM     20  C   UNL     1      -7.228   3.110   7.336  0.00  0.00    +0.191 A 
ATOM     21  N   UNL     1      -6.994   1.933   6.770  0.00  0.00    -0.229 NA
ATOM     22  C   UNL     1      -7.656   0.853   7.141  0.00  0.00    +0.136 A 
ATOM     23  C   UNL     1      -8.620   0.960   8.149  0.00  0.00    +0.109 A 
ATOM     24  C   UNL     1      -8.842   2.228   8.728  0.00  0.00    +0.138 A 
ATOM     25  N   UNL     1      -8.127   3.261   8.298  0.00  0.00    -0.206 NA
BRANCH  24  26
ATOM     26  N   UNL     1      -9.781   2.391   9.726  0.00  0.00    -0.342 N 
ATOM     27  H   UNL     1      -9.945   3.384  10.170  0.00  0.00    +0.144 HD
ATOM     28  H   UNL     1     -10.365   1.528  10.078  0.00  0.00    +0.144 HD
ENDBRANCH  24  26
BRANCH  23  29
ATOM     29  C   UNL     1      -9.362  -0.186   8.583  0.00  0.00    +0.104 C 
ATOM     30  N   UNL     1      -9.950  -1.095   8.927  0.00  0.00    -0.191 NA
ENDBRANCH  23  29
ENDBRANCH  19  20
ENDBRANCH  17  19
ENDBRANCH   2  17
TORSDOF 9
