REMARK  Name = ZINC12574344
REMARK  3 active torsions:
REMARK  status: ('A' for Active; 'I' for Inactive)
REMARK    1  A    between atoms: C_9  and  C_11
REMARK    2  A    between atoms: C_17  and  C_19
REMARK    3  A    between atoms: C_19  and  C_20
REMARK                            x       y       z     vdW  Elec       q    Type
REMARK                         _______ _______ _______ _____ _____    ______ ____
ROOT
ATOM      1  C   UNL     1      -2.366   6.622   0.059  0.00  0.00    +0.142 C 
ATOM      2  C   UNL     1      -2.706   7.049  -1.384  0.00  0.00    +0.032 C 
ATOM      3  C   UNL     1      -2.474   8.585  -1.353  0.00  0.00    +0.021 C 
ATOM      4  C   UNL     1      -1.268   8.700  -0.387  0.00  0.00    +0.108 C 
ATOM      5  N   UNL     1      -1.503   7.664   0.634  0.00  0.00    -0.291 N 
ATOM      6  C   UNL     1      -1.008   7.671   1.888  0.00  0.00    +0.218 C 
ATOM      7  O   UNL     1      -1.269   6.761   2.648  0.00  0.00    -0.276 OA
ENDROOT
BRANCH   1  16
ATOM      8  C   UNL     1      -0.013   1.076   0.008  0.00  0.00    +0.002 A 
ATOM      9  C   UNL     1       1.183   1.781   0.000  0.00  0.00    +0.002 A 
ATOM     10  C   UNL     1       1.185   3.147   0.007  0.00  0.00    +0.030 A 
ATOM     11  C   UNL     1      -0.025   3.846   0.022  0.00  0.00    +0.089 A 
ATOM     12  C   UNL     1      -1.235   3.132   0.030  0.00  0.00    +0.066 A 
ATOM     13  C   UNL     1      -1.218   1.744   0.017  0.00  0.00    +0.028 A 
ATOM     14  N   UNL     1      -2.237   4.082   0.045  0.00  0.00    -0.340 N 
ATOM     15  H   UNL     1      -3.221   3.905   0.053  0.00  0.00    +0.167 HD
ATOM     16  C   UNL     1      -1.638   5.303   0.046  0.00  0.00    +0.129 A 
ATOM     17  N   UNL     1      -0.344   5.166   0.032  0.00  0.00    -0.231 NA
ENDBRANCH   1  16
BRANCH   6  18
ATOM     18  C   UNL     1      -0.132   8.808   2.347  0.00  0.00    +0.120 C 
BRANCH  18  19
ATOM     19  C   UNL     1       0.291   8.572   3.798  0.00  0.00    +0.146 C 
ATOM     20  C   UNL     1       1.245   9.656   4.229  0.00  0.00    +0.231 C 
ATOM     21  O   UNL     1       2.435   9.421   4.203  0.00  0.00    -0.274 OA
ATOM     22  N   UNL     1       0.847  10.857   4.637  0.00  0.00    -0.284 N 
ATOM     23  C   UNL     1      -0.466  11.270   4.845  0.00  0.00    +0.047 A 
ATOM     24  C   UNL     1      -0.744  12.631   4.923  0.00  0.00    +0.024 A 
ATOM     25  C   UNL     1      -2.042  13.067   5.107  0.00  0.00    +0.002 A 
ATOM     26  C   UNL     1      -3.078  12.158   5.218  0.00  0.00    +0.001 A 
ATOM     27  C   UNL     1      -2.815  10.802   5.147  0.00  0.00    +0.016 A 
ATOM     28  C   UNL     1      -1.515  10.359   4.963  0.00  0.00    +0.030 A 
ATOM     29  S   UNL     1      -1.171   8.630   4.878  0.00  0.00    -0.110 S 
ATOM     30  H   UNL     1       1.542  11.511   4.808  0.00  0.00    +0.155 HD
ENDBRANCH  18  19
ENDBRANCH   6  18
TORSDOF 3
