REMARK  Name = ZINC58005157
REMARK  10 active torsions:
REMARK  status: ('A' for Active; 'I' for Inactive)
REMARK    1  A    between atoms: C_1  and  C_2
REMARK    2  A    between atoms: C_2  and  C_3
REMARK    3  A    between atoms: C_3  and  C_20
REMARK    4  A    between atoms: N_6  and  C_15
REMARK    5  A    between atoms: C_9  and  N_14
REMARK    6  A    between atoms: C_15  and  C_16
REMARK    7  A    between atoms: C_16  and  N_17
REMARK    8  A    between atoms: N_17  and  C_18
REMARK    9  A    between atoms: N_17  and  C_19
REMARK   10  A    between atoms: C_20  and  C_21
REMARK                            x       y       z     vdW  Elec       q    Type
REMARK                         _______ _______ _______ _____ _____    ______ ____
ROOT
ATOM      1  C   UNL     1      -1.433  -0.534   0.013  0.00  0.00    +0.186 C 
ATOM      2  C   UNL     1      -2.160  -0.038  -1.211  0.00  0.00    +0.264 C 
ATOM      3  O   UNL     1      -1.543   0.228  -2.221  0.00  0.00    -0.271 OA
ATOM      4  N   UNL     1      -3.502   0.110  -1.179  0.00  0.00    -0.267 N 
ATOM      5  C   UNL     1      -4.182  -0.081   0.031  0.00  0.00    +0.080 A 
ATOM      6  C   UNL     1      -5.565  -0.163   0.054  0.00  0.00    +0.050 A 
ATOM      7  C   UNL     1      -6.224  -0.366   1.259  0.00  0.00    +0.027 A 
ATOM      8  C   UNL     1      -5.498  -0.485   2.437  0.00  0.00    +0.026 A 
ATOM      9  C   UNL     1      -4.118  -0.398   2.414  0.00  0.00    +0.049 A 
ATOM     10  C   UNL     1      -3.458  -0.191   1.216  0.00  0.00    +0.143 A 
ATOM     11  O   UNL     1      -2.102  -0.072   1.189  0.00  0.00    -0.475 OA
ENDROOT
BRANCH   7  12
ATOM     12  N   UNL     1      -7.621  -0.449   1.287  0.00  0.00    -0.358 N 
ATOM     13  H   UNL     1      -8.128  -0.365   0.465  0.00  0.00    +0.142 HD
ATOM     14  H   UNL     1      -8.081  -0.590   2.129  0.00  0.00    +0.142 HD
ENDBRANCH   7  12
BRANCH   1  16
ATOM     15  C   UNL     1      -0.019   1.526   0.010  0.00  0.00    +0.008 C 
ATOM     16  C   UNL     1       0.002  -0.004   0.002  0.00  0.00    +0.054 C 
ENDBRANCH   1  16
BRANCH   1  17
ATOM     17  C   UNL     1      -1.412  -2.063   0.006  0.00  0.00    +0.054 C 
ATOM     18  C   UNL     1      -2.842  -2.593  -0.108  0.00  0.00    +0.008 C 
ENDBRANCH   1  17
BRANCH   4  19
ATOM     19  C   UNL     1      -4.237   0.464  -2.396  0.00  0.00    +0.095 C 
BRANCH  19  20
ATOM     20  C   UNL     1      -4.654  -0.813  -3.130  0.00  0.00    -0.060 C 
BRANCH  20  21
ATOM     21  N   UNL     1      -5.392  -0.458  -4.349  0.00  0.00    +0.377 N 
ATOM     22  C   UNL     1      -4.496   0.248  -5.275  0.00  0.00    -0.097 C 
ATOM     23  C   UNL     1      -5.895  -1.680  -4.990  0.00  0.00    -0.097 C 
ATOM     24  H   UNL     1      -6.168   0.141  -4.110  0.00  0.00    -0.083 HD
ENDBRANCH  20  21
ENDBRANCH  19  20
ENDBRANCH   4  19
TORSDOF 6
