REMARK  Name = ZINC39494077
REMARK  9 active torsions:
REMARK  status: ('A' for Active; 'I' for Inactive)
REMARK    1  A    between atoms: C_1  and  C_2
REMARK    2  A    between atoms: C_2  and  C_4
REMARK    3  A    between atoms: C_2  and  C_22
REMARK    4  A    between atoms: C_4  and  C_6
REMARK    5  A    between atoms: C_4  and  N_12
REMARK    6  A    between atoms: C_13  and  C_15
REMARK    7  A    between atoms: C_20  and  O_21
REMARK    8  A    between atoms: C_22  and  C_24
REMARK    9  A    between atoms: C_29  and  O_30
REMARK                            x       y       z     vdW  Elec       q    Type
REMARK                         _______ _______ _______ _____ _____    ______ ____
ROOT
ATOM      1  C   UNL     1       0.742  -0.511   1.242  0.00  0.00    +0.114 C 
ENDROOT
BRANCH   1   2
ATOM      2  C   UNL     1       0.762  -2.018   1.233  0.00  0.00    -0.027 A 
ATOM      3  C   UNL     1      -0.351  -2.726   1.644  0.00  0.00    +0.005 A 
ATOM      4  C   UNL     1      -0.332  -4.109   1.637  0.00  0.00    +0.000 A 
ATOM      5  C   UNL     1       0.800  -4.782   1.218  0.00  0.00    +0.000 A 
ATOM      6  C   UNL     1       1.913  -4.074   0.806  0.00  0.00    +0.000 A 
ATOM      7  C   UNL     1       1.893  -2.691   0.809  0.00  0.00    +0.005 A 
ENDBRANCH   1   2
BRANCH   1   8
ATOM      8  N   UNL     1       0.056  -0.038   2.447  0.00  0.00    -0.304 N 
ATOM      9  C   UNL     1       0.738   0.093   3.602  0.00  0.00    +0.248 C 
ATOM     10  O   UNL     1       1.922  -0.180   3.644  0.00  0.00    -0.270 OA
ATOM     11  H   UNL     1      -0.888   0.180   2.413  0.00  0.00    +0.150 HD
BRANCH   9  12
ATOM     12  C   UNL     1       0.047   0.569   4.816  0.00  0.00    +0.078 A 
ATOM     13  C   UNL     1      -1.314   0.879   4.774  0.00  0.00    +0.017 A 
ATOM     14  C   UNL     1      -1.954   1.322   5.911  0.00  0.00    +0.001 A 
ATOM     15  C   UNL     1      -1.252   1.463   7.098  0.00  0.00    +0.004 A 
ATOM     16  C   UNL     1       0.094   1.160   7.153  0.00  0.00    +0.046 A 
ATOM     17  C   UNL     1       0.752   0.707   6.019  0.00  0.00    +0.129 A 
BRANCH  17  18
ATOM     18  O   UNL     1       2.073   0.405   6.074  0.00  0.00    -0.506 OA
ATOM     19  H   UNL     1       2.656   1.151   5.877  0.00  0.00    +0.292 HD
ENDBRANCH  17  18
ENDBRANCH   9  12
ENDBRANCH   1   8
BRANCH   1  21
ATOM     20  C   UNL     1      -0.019   1.526   0.010  0.00  0.00    +0.018 C 
ATOM     21  C   UNL     1       0.002  -0.004   0.002  0.00  0.00    +0.082 C 
BRANCH  21  22
ATOM     22  C   UNL     1       0.707  -0.490  -1.238  0.00  0.00    +0.172 C 
ATOM     23  O   UNL     1       1.889  -0.763  -1.196  0.00  0.00    -0.292 OA
BRANCH  22  24
ATOM     24  C   UNL     1      -0.035  -0.633  -2.496  0.00  0.00    +0.059 A 
ATOM     25  C   UNL     1      -1.397  -0.314  -2.551  0.00  0.00    +0.015 A 
ATOM     26  C   UNL     1      -2.086  -0.451  -3.735  0.00  0.00    +0.001 A 
ATOM     27  C   UNL     1      -1.439  -0.904  -4.874  0.00  0.00    +0.004 A 
ATOM     28  C   UNL     1      -0.096  -1.222  -4.835  0.00  0.00    +0.046 A 
ATOM     29  C   UNL     1       0.618  -1.086  -3.654  0.00  0.00    +0.127 A 
BRANCH  29  30
ATOM     30  O   UNL     1       1.938  -1.393  -3.617  0.00  0.00    -0.506 OA
ATOM     31  H   UNL     1       2.121  -2.316  -3.393  0.00  0.00    +0.292 HD
ENDBRANCH  29  30
ENDBRANCH  22  24
ENDBRANCH  21  22
ENDBRANCH   1  21
TORSDOF 8
