REMARK  Name = ZINC39697690
REMARK  6 active torsions:
REMARK  status: ('A' for Active; 'I' for Inactive)
REMARK    1  A    between atoms: C_1  and  C_2
REMARK    2  A    between atoms: C_6  and  O_31
REMARK    3  A    between atoms: C_15  and  S_17
REMARK    4  A    between atoms: S_17  and  C_18
REMARK    5  A    between atoms: C_18  and  C_19
REMARK    6  A    between atoms: O_31  and  C_32
REMARK                            x       y       z     vdW  Elec       q    Type
REMARK                         _______ _______ _______ _____ _____    ______ ____
ROOT
ATOM      1  C   UNL     1      -0.018   1.503   0.010  0.00  0.00    +0.042 C 
ATOM      2  C   UNL     1       0.002  -0.004   0.002  0.00  0.00    -0.036 C 
ATOM      3  C   UNL     1       0.005  -0.659  -1.156  0.00  0.00    +0.012 C 
ATOM      4  C   UNL     1       0.030  -2.134  -1.202  0.00  0.00    -0.000 A 
ATOM      5  C   UNL     1      -0.316  -2.842  -2.347  0.00  0.00    +0.055 A 
ATOM      6  C   UNL     1      -0.260  -4.226  -2.339  0.00  0.00    +0.121 A 
ATOM      7  C   UNL     1       0.139  -4.910  -1.198  0.00  0.00    +0.047 A 
ATOM      8  C   UNL     1       0.479  -4.215  -0.050  0.00  0.00    +0.027 A 
ATOM      9  C   UNL     1       0.420  -2.839  -0.043  0.00  0.00    +0.040 A 
ATOM     10  N   UNL     1       0.700  -2.052   1.065  0.00  0.00    -0.284 N 
ATOM     11  C   UNL     1       0.025  -0.759   1.303  0.00  0.00    +0.184 C 
ATOM     12  N   UNL     1       0.815  -0.062   2.332  0.00  0.00    -0.230 NA
ATOM     13  N   UNL     1       2.089  -0.795   2.419  0.00  0.00    -0.226 NA
ATOM     14  C   UNL     1       1.688  -2.204   2.133  0.00  0.00    +0.217 C 
ATOM     15  H   UNL     1       0.336  -0.064   3.220  0.00  0.00    +0.143 HD
ATOM     16  H   UNL     1       2.750  -0.453   1.738  0.00  0.00    +0.143 HD
ENDROOT
BRANCH   6  17
ATOM     17  O   UNL     1      -0.599  -4.921  -3.458  0.00  0.00    -0.495 OA
ATOM     18  C   UNL     1      -0.520  -6.346  -3.385  0.00  0.00    +0.277 C 
ENDBRANCH   6  17
BRANCH  14  19
ATOM     19  S   UNL     1       3.119  -3.157   1.553  0.00  0.00    -0.117 S 
BRANCH  19  20
ATOM     20  C   UNL     1       3.771  -2.175   0.174  0.00  0.00    +0.108 C 
BRANCH  20  21
ATOM     21  C   UNL     1       4.979  -2.864  -0.406  0.00  0.00    -0.023 A 
ATOM     22  C   UNL     1       4.901  -3.515  -1.593  0.00  0.00    +0.075 A 
ATOM     23  C   UNL     1       6.039  -4.157  -2.127  0.00  0.00    +0.249 A 
ATOM     24  O   UNL     1       5.947  -4.737  -3.195  0.00  0.00    -0.268 OA
ATOM     25  N   UNL     1       7.222  -4.145  -1.487  0.00  0.00    -0.322 N 
ATOM     26  H   UNL     1       7.984  -4.596  -1.883  0.00  0.00    +0.169 HD
ATOM     27  C   UNL     1       7.367  -3.500  -0.278  0.00  0.00    +0.049 A 
ATOM     28  C   UNL     1       6.264  -2.839   0.295  0.00  0.00    +0.002 A 
ATOM     29  C   UNL     1       6.407  -2.178   1.520  0.00  0.00    +0.010 A 
ATOM     30  C   UNL     1       7.620  -2.174   2.149  0.00  0.00    +0.001 A 
ATOM     31  C   UNL     1       8.711  -2.819   1.585  0.00  0.00    +0.002 A 
ATOM     32  C   UNL     1       8.590  -3.486   0.384  0.00  0.00    +0.026 A 
ENDBRANCH  20  21
ENDBRANCH  19  20
ENDBRANCH  14  19
TORSDOF 4
