REMARK  Name = ZINC36359451
REMARK  5 active torsions:
REMARK  status: ('A' for Active; 'I' for Inactive)
REMARK    1  A    between atoms: C_1  and  C_2
REMARK    2  A    between atoms: C_9  and  C_19
REMARK    3  A    between atoms: C_12  and  C_13
REMARK    4  A    between atoms: C_21  and  C_29
REMARK    5  A    between atoms: C_22  and  N_24
REMARK                            x       y       z     vdW  Elec       q    Type
REMARK                         _______ _______ _______ _____ _____    ______ ____
ROOT
ATOM      1  C   UNL     1      -0.643   1.423   0.113  0.00  0.00    +0.051 C 
ATOM      2  C   UNL     1      -0.298  -0.042   0.051  0.00  0.00    +0.040 A 
ATOM      3  C   UNL     1      -0.405  -0.749  -1.169  0.00  0.00    +0.196 A 
ATOM      4  O   UNL     1      -0.776  -0.196  -2.192  0.00  0.00    -0.287 OA
ATOM      5  C   UNL     1      -0.050  -2.182  -1.157  0.00  0.00    +0.065 A 
ATOM      6  C   UNL     1      -0.126  -2.958  -2.314  0.00  0.00    +0.015 A 
ATOM      7  C   UNL     1       0.213  -4.294  -2.269  0.00  0.00    +0.002 A 
ATOM      8  C   UNL     1       0.629  -4.873  -1.083  0.00  0.00    +0.017 A 
ATOM      9  C   UNL     1       0.711  -4.115   0.084  0.00  0.00    +0.080 A 
ATOM     10  C   UNL     1       0.369  -2.755   0.052  0.00  0.00    +0.151 A 
ATOM     11  O   UNL     1       0.439  -1.999   1.165  0.00  0.00    -0.454 OA
ATOM     12  C   UNL     1       0.125  -0.694   1.168  0.00  0.00    +0.142 A 
ENDROOT
BRANCH  12  13
ATOM     13  C   UNL     1       0.237   0.061   2.432  0.00  0.00    +0.018 A 
ATOM     14  C   UNL     1      -0.334  -0.443   3.603  0.00  0.00    +0.011 A 
ATOM     15  C   UNL     1      -0.225   0.267   4.780  0.00  0.00    +0.001 A 
ATOM     16  C   UNL     1       0.448   1.477   4.803  0.00  0.00    +0.000 A 
ATOM     17  C   UNL     1       1.015   1.982   3.646  0.00  0.00    +0.001 A 
ATOM     18  C   UNL     1       0.919   1.279   2.463  0.00  0.00    +0.011 A 
ENDBRANCH  12  13
BRANCH   9  19
ATOM     19  C   UNL     1       1.155  -4.741   1.345  0.00  0.00    +0.234 A 
ATOM     20  N   UNL     1       1.262  -4.126   2.495  0.00  0.00    -0.196 NA
ATOM     21  C   UNL     1       1.696  -5.018   3.425  0.00  0.00    +0.201 A 
ATOM     22  C   UNL     1       1.853  -6.233   2.776  0.00  0.00    +0.227 A 
ATOM     23  O   UNL     1       1.506  -6.033   1.491  0.00  0.00    -0.420 OA
BRANCH  22  24
ATOM     24  N   UNL     1       2.278  -7.417   3.338  0.00  0.00    -0.299 N 
ATOM     25  C   UNL     1       2.641  -7.614   4.748  0.00  0.00    +0.108 C 
ATOM     26  C   UNL     1       3.077  -9.086   4.908  0.00  0.00    +0.020 C 
ATOM     27  C   UNL     1       3.475  -9.489   3.464  0.00  0.00    +0.020 C 
ATOM     28  C   UNL     1       2.437  -8.698   2.625  0.00  0.00    +0.108 C 
ENDBRANCH  22  24
BRANCH  21  29
ATOM     29  C   UNL     1       1.945  -4.753   4.810  0.00  0.00    +0.124 C 
ATOM     30  N   UNL     1       2.142  -4.543   5.909  0.00  0.00    -0.189 NA
ENDBRANCH  21  29
ENDBRANCH   9  19
TORSDOF 4
