REMARK  Name = ZINC01808765
REMARK  6 active torsions:
REMARK  status: ('A' for Active; 'I' for Inactive)
REMARK    1  A    between atoms: N_13  and  C_14
REMARK    2  A    between atoms: C_14  and  C_15
REMARK    3  A    between atoms: C_15  and  C_16
REMARK    4  A    between atoms: N_18  and  N_19
REMARK    5  A    between atoms: C_20  and  C_21
REMARK    6  A    between atoms: C_26  and  O_27
REMARK                            x       y       z     vdW  Elec       q    Type
REMARK                         _______ _______ _______ _____ _____    ______ ____
ROOT
ATOM      1  C   UNL     1       6.859   0.002   1.375  0.00  0.00    +0.234 C 
ATOM      2  O   UNL     1       7.435   0.161   0.319  0.00  0.00    -0.274 OA
ATOM      3  N   UNL     1       7.523   0.164   2.536  0.00  0.00    -0.207 N 
ATOM      4  H   UNL     1       7.062   0.037   3.380  0.00  0.00    +0.177 HD
ENDROOT
BRANCH   3   5
ATOM      5  N   UNL     1       8.880   0.514   2.524  0.00  0.00    -0.188 NA
ATOM      6  C   UNL     1       9.520   0.669   3.642  0.00  0.00    +0.142 C 
BRANCH   6   7
ATOM      7  C   UNL     1      10.947   1.038   3.630  0.00  0.00    +0.038 A 
ATOM      8  C   UNL     1      11.640   1.200   4.831  0.00  0.00    +0.028 A 
ATOM      9  C   UNL     1      12.976   1.545   4.813  0.00  0.00    +0.020 A 
ATOM     10  C   UNL     1      13.633   1.730   3.607  0.00  0.00    +0.034 A 
ATOM     11  C   UNL     1      12.957   1.573   2.412  0.00  0.00    +0.061 A 
ATOM     12  C   UNL     1      11.616   1.221   2.413  0.00  0.00    +0.139 A 
ATOM     13 BR   UNL     1      13.864   1.829   0.773  0.00  0.00    -0.046 Br
ATOM     14 BR   UNL     1      13.914   1.765   6.440  0.00  0.00    -0.050 Br
BRANCH  12  15
ATOM     15  O   UNL     1      10.952   1.061   1.238  0.00  0.00    -0.505 OA
ATOM     16  H   UNL     1      10.539   1.869   0.906  0.00  0.00    +0.292 HD
ENDBRANCH  12  15
ENDBRANCH   6   7
ENDBRANCH   3   5
BRANCH   1  17
ATOM     17  C   UNL     1       5.399  -0.374   1.387  0.00  0.00    +0.119 C 
BRANCH  17  18
ATOM     18  C   UNL     1       4.891  -0.493  -0.051  0.00  0.00    +0.131 C 
BRANCH  18  31
ATOM     19  C   UNL     1      -0.017   1.374   0.010  0.00  0.00    +0.001 A 
ATOM     20  C   UNL     1       1.171   2.089   0.002  0.00  0.00    +0.002 A 
ATOM     21  C   UNL     1       2.384   1.433  -0.013  0.00  0.00    +0.026 A 
ATOM     22  C   UNL     1       2.423   0.042  -0.022  0.00  0.00    +0.050 A 
ATOM     23  C   UNL     1       1.220  -0.680  -0.014  0.00  0.00    +0.008 A 
ATOM     24  C   UNL     1       0.002  -0.004   0.002  0.00  0.00    +0.010 A 
ATOM     25  C   UNL     1       1.589  -2.107  -0.026  0.00  0.00    +0.008 A 
ATOM     26  C   UNL     1       0.850  -3.288  -0.027  0.00  0.00    +0.010 A 
ATOM     27  C   UNL     1       1.501  -4.503  -0.041  0.00  0.00    +0.001 A 
ATOM     28  C   UNL     1       2.886  -4.553  -0.056  0.00  0.00    +0.002 A 
ATOM     29  C   UNL     1       3.629  -3.393  -0.056  0.00  0.00    +0.026 A 
ATOM     30  C   UNL     1       2.990  -2.156  -0.041  0.00  0.00    +0.050 A 
ATOM     31  N   UNL     1       3.472  -0.859  -0.038  0.00  0.00    -0.339 N 
ENDBRANCH  18  31
ENDBRANCH  17  18
ENDBRANCH   1  17
TORSDOF 6
