REMARK  Name = ZINC03170987
REMARK  6 active torsions:
REMARK  status: ('A' for Active; 'I' for Inactive)
REMARK    1  A    between atoms: C_1  and  C_2
REMARK    2  A    between atoms: C_4  and  C_15
REMARK    3  A    between atoms: C_5  and  C_14
REMARK    4  A    between atoms: N_6  and  C_7
REMARK    5  A    between atoms: N_16  and  N_17
REMARK    6  A    between atoms: C_18  and  C_20
REMARK                            x       y       z     vdW  Elec       q    Type
REMARK                         _______ _______ _______ _____ _____    ______ ____
ROOT
ATOM      1  C   UNL     1      -3.148  10.279   0.336  0.00  0.00    +0.140 C 
ATOM      2  N   UNL     1      -2.173   9.486   0.009  0.00  0.00    -0.188 NA
ENDROOT
BRANCH   1   6
ATOM      3  C   UNL     1      -4.356  15.208  -0.217  0.00  0.00    +0.064 C 
ATOM      4  C   UNL     1      -3.648  13.878  -0.271  0.00  0.00    +0.022 A 
ATOM      5  C   UNL     1      -4.106  12.726   0.252  0.00  0.00    +0.032 A 
ATOM      6  C   UNL     1      -3.096  11.704  -0.038  0.00  0.00    +0.016 A 
ATOM      7  C   UNL     1      -2.095  12.337  -0.717  0.00  0.00    +0.030 A 
ATOM      8  N   UNL     1      -2.438  13.646  -0.859  0.00  0.00    -0.316 N 
ATOM      9  C   UNL     1      -0.830  11.695  -1.226  0.00  0.00    +0.064 C 
BRANCH   8  10
ATOM     10  C   UNL     1      -1.660  14.615  -1.509  0.00  0.00    +0.065 A 
ATOM     11  C   UNL     1      -0.727  15.351  -0.793  0.00  0.00    +0.027 A 
ATOM     12  C   UNL     1       0.042  16.302  -1.436  0.00  0.00    +0.002 A 
ATOM     13  C   UNL     1      -0.125  16.528  -2.790  0.00  0.00    +0.002 A 
ATOM     14  C   UNL     1      -1.058  15.800  -3.506  0.00  0.00    +0.022 A 
ATOM     15  C   UNL     1      -1.826  14.844  -2.869  0.00  0.00    +0.065 A 
ATOM     16 CL   UNL     1      -2.996  13.929  -3.768  0.00  0.00    -0.081 Cl
ENDBRANCH   8  10
ENDBRANCH   1   6
BRANCH   2  17
ATOM     17  N   UNL     1      -2.222   8.132   0.364  0.00  0.00    -0.204 N 
ATOM     18  C   UNL     1      -1.210   7.309   0.025  0.00  0.00    +0.276 C 
ATOM     19  O   UNL     1      -0.256   7.742  -0.587  0.00  0.00    -0.270 OA
ATOM     20  H   UNL     1      -2.985   7.786   0.854  0.00  0.00    +0.177 HD
BRANCH  18  21
ATOM     21  C   UNL     1      -1.263   5.852   0.407  0.00  0.00    +0.297 C 
ATOM     22  C   UNL     1      -2.424   5.167  -0.326  0.00  0.00    +0.283 C 
ATOM     23  O   UNL     1      -2.437   3.785   0.048  0.00  0.00    -0.484 OA
ATOM     24  C   UNL     1      -1.241   3.136   0.030  0.00  0.00    +0.162 A 
ATOM     25  C   UNL     1      -1.219   1.749   0.017  0.00  0.00    +0.049 A 
ATOM     26  C   UNL     1      -0.013   1.076   0.008  0.00  0.00    +0.004 A 
ATOM     27  C   UNL     1       1.176   1.782   0.000  0.00  0.00    +0.004 A 
ATOM     28  C   UNL     1       1.161   3.164   0.007  0.00  0.00    +0.049 A 
ATOM     29  C   UNL     1      -0.046   3.846   0.020  0.00  0.00    +0.163 A 
ATOM     30  O   UNL     1      -0.045   5.207   0.019  0.00  0.00    -0.472 OA
ENDBRANCH  18  21
ENDBRANCH   2  17
TORSDOF 4
