REMARK  Name = ZINC22754368
REMARK  8 active torsions:
REMARK  status: ('A' for Active; 'I' for Inactive)
REMARK    1  A    between atoms: C_1  and  C_2
REMARK    2  A    between atoms: N_10  and  C_14
REMARK    3  A    between atoms: C_14  and  N_15
REMARK    4  A    between atoms: N_18  and  C_21
REMARK    5  A    between atoms: C_21  and  C_22
REMARK    6  A    between atoms: C_25  and  C_27
REMARK    7  A    between atoms: C_30  and  O_33
REMARK    8  A    between atoms: O_33  and  C_34
REMARK                            x       y       z     vdW  Elec       q    Type
REMARK                         _______ _______ _______ _____ _____    ______ ____
ROOT
ATOM      1  N   UNL     1       8.243   1.577  -3.712  0.00  0.00    -0.290 NA
ATOM      2  C   UNL     1       8.110   2.805  -2.915  0.00  0.00    +0.067 C 
ATOM      3  C   UNL     1       7.781   2.437  -1.466  0.00  0.00    -0.063 C 
ATOM      4  N   UNL     1       6.537   1.655  -1.433  0.00  0.00    +0.385 N 
ATOM      5  C   UNL     1       6.670   0.427  -2.230  0.00  0.00    -0.063 C 
ATOM      6  C   UNL     1       6.999   0.795  -3.678  0.00  0.00    +0.067 C 
ATOM      7  H   UNL     1       5.740   2.266  -1.881  0.00  0.00    -0.081 HD
ENDROOT
BRANCH   1   8
ATOM      8  C   UNL     1       8.634   1.886  -5.093  0.00  0.00    +0.204 C 
BRANCH   8  18
ATOM      9  C   UNL     1      11.861  -4.614  -8.461  0.00  0.00    +0.007 C 
ATOM     10  C   UNL     1      10.736  -3.660  -8.055  0.00  0.00    -0.014 C 
ATOM     11  C   UNL     1      10.698  -3.537  -6.530  0.00  0.00    +0.006 C 
ATOM     12  C   UNL     1       9.565  -2.591  -6.124  0.00  0.00    +0.035 C 
ATOM     13  C   UNL     1       9.791  -1.222  -6.755  0.00  0.00    +0.113 C 
ATOM     14  C   UNL     1       9.857  -1.331  -8.275  0.00  0.00    +0.035 C 
ATOM     15  C   UNL     1      10.989  -2.283  -8.672  0.00  0.00    +0.006 C 
ATOM     16  C   UNL     1       8.697  -0.264  -6.343  0.00  0.00    +0.248 C 
ATOM     17  O   UNL     1       7.509  -0.368  -6.565  0.00  0.00    -0.273 OA
ATOM     18  N   UNL     1       9.319   0.730  -5.677  0.00  0.00    -0.211 N 
ATOM     19  C   UNL     1      10.642   0.532  -5.619  0.00  0.00    +0.310 C 
ATOM     20  O   UNL     1      11.417   1.294  -5.074  0.00  0.00    -0.252 OA
ATOM     21  N   UNL     1      11.018  -0.609  -6.229  0.00  0.00    -0.285 N 
ATOM     22  H   UNL     1      11.989  -1.102  -6.382  0.00  0.00    +0.151 HD
ENDBRANCH   8  18
ENDBRANCH   1   8
BRANCH   4  23
ATOM     23  C   UNL     1       6.146   1.346  -0.051  0.00  0.00    -0.022 C 
BRANCH  23  24
ATOM     24  C   UNL     1       4.756   0.764  -0.040  0.00  0.00    +0.033 A 
ATOM     25  C   UNL     1       4.583  -0.584  -0.046  0.00  0.00    +0.068 A 
ATOM     26  S   UNL     1       2.798  -0.687  -0.022  0.00  0.00    -0.075 S 
ATOM     27  C   UNL     1       2.478   1.072  -0.016  0.00  0.00    +0.108 A 
ATOM     28  N   UNL     1       3.711   1.559  -0.026  0.00  0.00    -0.246 NA
BRANCH  27  29
ATOM     29  C   UNL     1       1.186   1.791   0.000  0.00  0.00    +0.007 A 
ATOM     30  C   UNL     1      -0.013   1.076   0.008  0.00  0.00    +0.014 A 
ATOM     31  C   UNL     1      -1.215   1.750   0.017  0.00  0.00    +0.046 A 
ATOM     32  C   UNL     1      -1.235   3.138   0.031  0.00  0.00    +0.120 A 
ATOM     33  C   UNL     1      -0.044   3.853   0.023  0.00  0.00    +0.046 A 
ATOM     34  C   UNL     1       1.162   3.187   0.008  0.00  0.00    +0.014 A 
BRANCH  32  35
ATOM     35  O   UNL     1      -2.422   3.799   0.046  0.00  0.00    -0.495 OA
ATOM     36  C   UNL     1      -3.608   3.002   0.054  0.00  0.00    +0.277 C 
ENDBRANCH  32  35
ENDBRANCH  27  29
ENDBRANCH  23  24
ENDBRANCH   4  23
TORSDOF 6
