REMARK  Name = ZINC45820613
REMARK  8 active torsions:
REMARK  status: ('A' for Active; 'I' for Inactive)
REMARK    1  A    between atoms: C_1  and  C_2
REMARK    2  A    between atoms: C_4  and  C_14
REMARK    3  A    between atoms: N_16  and  C_17
REMARK    4  A    between atoms: C_17  and  C_18
REMARK    5  A    between atoms: C_18  and  C_20
REMARK    6  A    between atoms: C_18  and  N_28
REMARK    7  A    between atoms: C_23  and  O_26
REMARK    8  A    between atoms: O_26  and  C_27
REMARK                            x       y       z     vdW  Elec       q    Type
REMARK                         _______ _______ _______ _____ _____    ______ ____
ROOT
ATOM      1  C   UNL     1      -0.504   1.733  -3.703  0.00  0.00    +0.093 C 
ENDROOT
BRANCH   1   4
ATOM      2  C   UNL     1      -0.107  -0.172  -5.169  0.00  0.00    +0.257 C 
ATOM      3  O   UNL     1      -0.324  -0.907  -4.229  0.00  0.00    -0.272 OA
ATOM      4  N   UNL     1      -0.223   1.163  -5.023  0.00  0.00    -0.313 N 
ATOM      5  H   UNL     1      -0.120   1.746  -5.791  0.00  0.00    +0.149 HD
BRANCH   2   8
ATOM      6  C   UNL     1       2.014   1.042  -6.803  0.00  0.00    +0.056 C 
ATOM      7  C   UNL     1       1.775  -0.469  -6.767  0.00  0.00    +0.220 C 
ATOM      8  C   UNL     1       0.291  -0.752  -6.502  0.00  0.00    +0.298 C 
ATOM      9  O   UNL     1       0.101  -2.171  -6.488  0.00  0.00    -0.472 OA
ATOM     10  C   UNL     1       0.682  -2.876  -7.497  0.00  0.00    +0.163 A 
ATOM     11  C   UNL     1       0.256  -4.170  -7.758  0.00  0.00    +0.049 A 
ATOM     12  C   UNL     1       0.839  -4.899  -8.777  0.00  0.00    +0.004 A 
ATOM     13  C   UNL     1       1.850  -4.341  -9.538  0.00  0.00    +0.004 A 
ATOM     14  C   UNL     1       2.279  -3.052  -9.284  0.00  0.00    +0.049 A 
ATOM     15  C   UNL     1       1.696  -2.314  -8.264  0.00  0.00    +0.163 A 
ATOM     16  O   UNL     1       2.124  -1.043  -8.031  0.00  0.00    -0.481 OA
ENDBRANCH   2   8
ENDBRANCH   1   4
BRANCH   1  17
ATOM     17  C   UNL     1      -0.464   3.260  -3.788  0.00  0.00    -0.020 C 
BRANCH  17  18
ATOM     18  N   UNL     1      -0.649   3.830  -2.447  0.00  0.00    +0.385 N 
ATOM     19  C   UNL     1       0.479   3.443  -1.592  0.00  0.00    -0.078 C 
ATOM     20  C   UNL     1       0.251   3.966  -0.172  0.00  0.00    -0.019 C 
ATOM     21  C   UNL     1       0.136   5.493  -0.209  0.00  0.00    -0.004 C 
ATOM     22  C   UNL     1      -0.996   5.887  -1.161  0.00  0.00    -0.019 C 
ATOM     23  C   UNL     1      -0.722   5.293  -2.544  0.00  0.00    -0.078 C 
ATOM     24  H   UNL     1      -1.507   3.478  -2.048  0.00  0.00    -0.081 HD
ENDBRANCH  17  18
BRANCH  17  25
ATOM     25  C   UNL     1      -1.566   3.742  -4.696  0.00  0.00    -0.059 A 
ATOM     26  C   UNL     1      -2.860   3.842  -4.217  0.00  0.00    +0.005 A 
ATOM     27  C   UNL     1      -3.872   4.283  -5.048  0.00  0.00    +0.046 A 
ATOM     28  C   UNL     1      -3.590   4.626  -6.362  0.00  0.00    +0.120 A 
ATOM     29  C   UNL     1      -2.291   4.525  -6.839  0.00  0.00    +0.046 A 
ATOM     30  C   UNL     1      -1.281   4.088  -6.003  0.00  0.00    +0.005 A 
BRANCH  28  31
ATOM     31  O   UNL     1      -4.584   5.060  -7.181  0.00  0.00    -0.495 OA
ATOM     32  C   UNL     1      -4.220   5.396  -8.521  0.00  0.00    +0.277 C 
ENDBRANCH  28  31
ENDBRANCH  17  25
ENDBRANCH   1  17
TORSDOF 6
