REMARK  Name = ZINC00870389
REMARK  9 active torsions:
REMARK  status: ('A' for Active; 'I' for Inactive)
REMARK    1  A    between atoms: C_1  and  C_2
REMARK    2  A    between atoms: C_2  and  O_3
REMARK    3  A    between atoms: O_3  and  C_4
REMARK    4  A    between atoms: C_4  and  C_6
REMARK    5  A    between atoms: C_7  and  C_28
REMARK    6  A    between atoms: C_9  and  N_27
REMARK    7  A    between atoms: C_10  and  C_25
REMARK    8  A    between atoms: C_11  and  C_13
REMARK    9  A    between atoms: C_17  and  C_24
REMARK                            x       y       z     vdW  Elec       q    Type
REMARK                         _______ _______ _______ _____ _____    ______ ____
ROOT
ATOM      1  C   UNL     1       1.280  -4.746   4.256  0.00  0.00    +0.088 C 
ATOM      2  C   UNL     1       1.333  -3.967   5.343  0.00  0.00    +0.133 C 
ATOM      3  O   UNL     1       0.240  -3.396   5.869  0.00  0.00    -0.444 OA
ATOM      4  C   UNL     1      -0.974  -3.884   5.559  0.00  0.00    +0.198 C 
ATOM      5  C   UNL     1      -1.171  -4.667   4.471  0.00  0.00    +0.098 C 
ATOM      6  C   UNL     1      -0.026  -5.024   3.562  0.00  0.00    +0.108 C 
ENDROOT
BRANCH   6   7
ATOM      7  C   UNL     1      -0.110  -4.200   2.303  0.00  0.00    +0.003 A 
ATOM      8  C   UNL     1      -0.062  -2.837   2.374  0.00  0.00    +0.017 A 
ATOM      9  C   UNL     1      -0.144  -2.106   1.173  0.00  0.00    +0.001 A 
ATOM     10  C   UNL     1      -0.103  -0.702   1.168  0.00  0.00    +0.013 A 
ATOM     11  C   UNL     1      -0.185  -0.031  -0.013  0.00  0.00    -0.050 A 
ATOM     12  C   UNL     1      -0.315  -0.718  -1.218  0.00  0.00    +0.005 A 
ATOM     13  C   UNL     1      -0.352  -2.078  -1.251  0.00  0.00    +0.028 A 
ATOM     14  C   UNL     1      -0.270  -2.807  -0.051  0.00  0.00    +0.073 A 
ATOM     15  N   UNL     1      -0.311  -4.143  -0.052  0.00  0.00    -0.235 NA
ATOM     16  C   UNL     1      -0.235  -4.828   1.064  0.00  0.00    +0.134 A 
ATOM     17 CL   UNL     1      -0.293  -6.562   0.998  0.00  0.00    -0.062 Cl
ATOM     18  C   UNL     1      -0.141   1.475  -0.017  0.00  0.00    +0.044 C 
ENDBRANCH   6   7
BRANCH   4  19
ATOM     19  N   UNL     1      -2.042  -3.580   6.366  0.00  0.00    -0.328 N 
ATOM     20  H   UNL     1      -2.923  -3.925   6.154  0.00  0.00    +0.145 HD
ATOM     21  H   UNL     1      -1.915  -3.021   7.148  0.00  0.00    +0.145 HD
ENDBRANCH   4  19
BRANCH   1  22
ATOM     22  C   UNL     1       2.472  -5.319   3.750  0.00  0.00    +0.339 C 
ATOM     23  O   UNL     1       3.516  -5.189   4.361  0.00  0.00    -0.245 OA
BRANCH  22  24
ATOM     24  O   UNL     1       2.451  -6.007   2.590  0.00  0.00    -0.462 OA
BRANCH  24  26
ATOM     25  C   UNL     1       3.470  -7.297   0.818  0.00  0.00    +0.048 C 
ATOM     26  C   UNL     1       3.691  -6.557   2.139  0.00  0.00    +0.229 C 
ENDBRANCH  24  26
ENDBRANCH  22  24
ENDBRANCH   1  22
BRANCH   5  27
ATOM     27  C   UNL     1      -2.485  -5.160   4.182  0.00  0.00    +0.101 C 
ATOM     28  N   UNL     1      -3.526  -5.550   3.953  0.00  0.00    -0.191 NA
ENDBRANCH   5  27
BRANCH   2  29
ATOM     29  C   UNL     1       2.668  -3.724   5.999  0.00  0.00    +0.183 C 
ATOM     30 CL   UNL     1       2.469  -2.543   7.348  0.00  0.00    -0.117 Cl
ENDBRANCH   2  29
TORSDOF 7
