REMARK  Name = ZINC52302949
REMARK  5 active torsions:
REMARK  status: ('A' for Active; 'I' for Inactive)
REMARK    1  A    between atoms: C_1  and  C_2
REMARK    2  A    between atoms: C_5  and  N_7
REMARK    3  A    between atoms: C_8  and  C_10
REMARK    4  A    between atoms: C_15  and  N_16
REMARK    5  A    between atoms: N_16  and  C_17
REMARK                            x       y       z     vdW  Elec       q    Type
REMARK                         _______ _______ _______ _____ _____    ______ ____
ROOT
ATOM      1  C   UNL     1       2.910   0.510   4.005  0.00  0.00    +0.077 A 
ATOM      2  C   UNL     1       2.499   1.839   4.168  0.00  0.00    +0.033 A 
ATOM      3  C   UNL     1       3.100   2.596   5.159  0.00  0.00    +0.037 A 
ATOM      4  C   UNL     1       4.081   2.025   5.952  0.00  0.00    +0.128 A 
ATOM      5  N   UNL     1       4.453   0.771   5.782  0.00  0.00    -0.239 NA
ATOM      6  C   UNL     1       3.907   0.001   4.853  0.00  0.00    +0.131 A 
ATOM      7 BR   UNL     1       2.587   4.396   5.426  0.00  0.00    -0.049 Br
ENDROOT
BRANCH   1   9
ATOM      8  N   UNL     1       1.264   0.119   2.240  0.00  0.00    -0.308 N 
ATOM      9  C   UNL     1       2.302  -0.341   2.965  0.00  0.00    +0.248 C 
ATOM     10  O   UNL     1       2.738  -1.458   2.763  0.00  0.00    -0.270 OA
ATOM     11  H   UNL     1       0.916   1.010   2.402  0.00  0.00    +0.149 HD
BRANCH   8  15
ATOM     12  C   UNL     1      -0.109   1.503   0.075  0.00  0.00    +0.009 C 
ATOM     13  C   UNL     1      -0.068  -0.026   0.058  0.00  0.00    +0.008 C 
ATOM     14  C   UNL     1      -0.868  -0.767   1.131  0.00  0.00    +0.027 C 
ATOM     15  C   UNL     1       0.660  -0.726   1.207  0.00  0.00    +0.076 C 
ENDBRANCH   8  15
ENDBRANCH   1   9
BRANCH   6  16
ATOM     16  N   UNL     1       4.325  -1.310   4.714  0.00  0.00    -0.332 N 
ATOM     17  C   UNL     1       5.277  -1.881   5.670  0.00  0.00    +0.127 C 
ATOM     18  H   UNL     1       3.988  -1.851   3.983  0.00  0.00    +0.147 HD
ENDBRANCH   6  16
TORSDOF 3
