REMARK  Name = ZINC13645073
REMARK  5 active torsions:
REMARK  status: ('A' for Active; 'I' for Inactive)
REMARK    1  A    between atoms: C_1  and  N_2
REMARK    2  A    between atoms: N_2  and  C_3
REMARK    3  A    between atoms: N_2  and  C_4
REMARK    4  A    between atoms: C_7  and  C_10
REMARK    5  A    between atoms: C_21  and  C_26
REMARK                            x       y       z     vdW  Elec       q    Type
REMARK                         _______ _______ _______ _____ _____    ______ ____
ROOT
ATOM      1  C   UNL     1      -0.129   2.602   2.567  0.00  0.00    +0.105 C 
ATOM      2  C   UNL     1      -0.378   3.920   1.856  0.00  0.00    +0.029 C 
ATOM      3  C   UNL     1       0.671   4.374   0.833  0.00  0.00    +0.033 C 
ATOM      4  C   UNL     1      -0.181   5.190  -0.141  0.00  0.00    -0.030 C 
ATOM      5  C   UNL     1      -1.439   4.770  -0.106  0.00  0.00    -0.023 C 
ATOM      6  C   UNL     1      -1.534   3.636   0.849  0.00  0.00    +0.049 C 
ATOM      7  C   UNL     1      -2.761   3.372   1.631  0.00  0.00    -0.019 A 
ATOM      8  C   UNL     1      -4.007   3.751   1.194  0.00  0.00    +0.019 A 
ATOM      9  C   UNL     1      -5.139   3.466   1.964  0.00  0.00    +0.037 A 
ATOM     10  C   UNL     1      -4.997   2.792   3.180  0.00  0.00    +0.015 A 
ATOM     11  C   UNL     1      -3.746   2.417   3.620  0.00  0.00    +0.024 A 
ATOM     12  C   UNL     1      -2.615   2.705   2.859  0.00  0.00    +0.031 A 
ATOM     13  N   UNL     1      -1.361   2.326   3.338  0.00  0.00    -0.336 N 
ATOM     14  H   UNL     1      -1.296   1.873   4.193  0.00  0.00    +0.147 HD
ENDROOT
BRANCH   9  15
ATOM     15  C   UNL     1      -6.476   3.876   1.494  0.00  0.00    +0.247 C 
ATOM     16  O   UNL     1      -6.760   3.787   0.315  0.00  0.00    -0.270 OA
ATOM     17  N   UNL     1      -7.383   4.348   2.373  0.00  0.00    -0.298 N 
ATOM     18  C   UNL     1      -7.073   4.297   3.784  0.00  0.00    +0.108 C 
ATOM     19  C   UNL     1      -7.544   2.952   4.377  0.00  0.00    +0.019 C 
ATOM     20  C   UNL     1      -9.012   2.913   4.449  0.00  0.00    +0.002 C 
ATOM     21  C   UNL     1      -9.710   2.995   3.095  0.00  0.00    +0.002 C 
ATOM     22  C   UNL     1      -9.862   4.443   2.698  0.00  0.00    +0.019 C 
ATOM     23  C   UNL     1      -8.654   4.889   1.854  0.00  0.00    +0.108 C 
ENDBRANCH   9  15
BRANCH   1  27
ATOM     24  C   UNL     1       3.214   2.958   5.207  0.00  0.00    +0.029 A 
ATOM     25  C   UNL     1       3.371   2.366   3.960  0.00  0.00    +0.023 A 
ATOM     26  C   UNL     1       2.289   2.252   3.109  0.00  0.00    +0.007 A 
ATOM     27  C   UNL     1       1.050   2.728   3.498  0.00  0.00    -0.027 A 
ATOM     28  C   UNL     1       0.891   3.322   4.736  0.00  0.00    +0.007 A 
ATOM     29  C   UNL     1       1.968   3.434   5.594  0.00  0.00    +0.023 A 
BRANCH  24  31
ATOM     30  C   UNL     1       5.620   2.570   5.659  0.00  0.00    +0.129 C 
ATOM     31  N   UNL     1       4.306   3.073   6.069  0.00  0.00    -0.336 N 
ATOM     32  C   UNL     1       4.139   3.698   7.384  0.00  0.00    +0.129 C 
ENDBRANCH  24  31
ENDBRANCH   1  27
TORSDOF 3
