REMARK  Name = ZINC40408613
REMARK  9 active torsions:
REMARK  status: ('A' for Active; 'I' for Inactive)
REMARK    1  A    between atoms: C_1  and  C_2
REMARK    2  A    between atoms: C_2  and  C_3
REMARK    3  A    between atoms: C_2  and  C_29
REMARK    4  A    between atoms: C_2  and  O_31
REMARK    5  A    between atoms: C_3  and  N_4
REMARK    6  A    between atoms: N_4  and  C_5
REMARK    7  A    between atoms: N_4  and  C_12
REMARK    8  A    between atoms: C_5  and  C_6
REMARK    9  A    between atoms: C_12  and  C_13
REMARK                            x       y       z     vdW  Elec       q    Type
REMARK                         _______ _______ _______ _____ _____    ______ ____
ROOT
ATOM      1  C   UNL     1       3.003  -0.730   2.355  0.00  0.00    -0.003 C 
ENDROOT
BRANCH   1   2
ATOM      2  C   UNL     1       3.298  -2.141   1.916  0.00  0.00    +0.094 A 
ATOM      3  N   UNL     1       3.866  -3.007   2.794  0.00  0.00    -0.312 N 
ATOM      4  H   UNL     1       4.074  -2.706   3.692  0.00  0.00    +0.170 HD
ATOM      5  C   UNL     1       4.146  -4.276   2.443  0.00  0.00    +0.260 A 
ATOM      6  O   UNL     1       4.656  -5.042   3.242  0.00  0.00    -0.267 OA
ATOM      7  C   UNL     1       3.833  -4.711   1.113  0.00  0.00    +0.075 A 
ATOM      8  C   UNL     1       4.048  -6.034   0.520  0.00  0.00    -0.023 A 
ATOM      9  C   UNL     1       3.669  -6.191  -0.765  0.00  0.00    -0.004 A 
ATOM     10  S   UNL     1       3.005  -4.617  -1.247  0.00  0.00    -0.073 S 
ATOM     11  C   UNL     1       3.248  -3.747   0.280  0.00  0.00    +0.116 A 
ATOM     12  N   UNL     1       2.996  -2.510   0.700  0.00  0.00    -0.229 NA
ATOM     13  C   UNL     1       3.789  -7.417  -1.616  0.00  0.00    +0.043 C 
ATOM     14  C   UNL     1       3.236  -8.624  -0.845  0.00  0.00    +0.005 C 
ATOM     15  C   UNL     1       4.377  -9.247  -0.046  0.00  0.00    +0.001 C 
ATOM     16  C   UNL     1       5.353  -8.162   0.405  0.00  0.00    +0.005 C 
ATOM     17  C   UNL     1       4.661  -7.171   1.333  0.00  0.00    +0.037 C 
ENDBRANCH   1   2
BRANCH   1  18
ATOM     18  N   UNL     1       2.258  -0.033   1.298  0.00  0.00    +0.389 N 
ATOM     19  H   UNL     1       2.343  -0.546   0.433  0.00  0.00    -0.081 HD
BRANCH  18  20
ATOM     20  C   UNL     1       0.841   0.057   1.677  0.00  0.00    -0.039 C 
BRANCH  20  22
ATOM     21  C   UNL     1       0.257  -1.882   0.214  0.00  0.00    +0.044 C 
ATOM     22  C   UNL     1       0.214  -1.338   1.643  0.00  0.00    +0.067 C 
BRANCH  22  23
ATOM     23  C   UNL     1      -1.217  -1.257   2.107  0.00  0.00    -0.003 C 
ATOM     24  C   UNL     1      -1.604  -1.934   3.160  0.00  0.00    +0.006 C 
ENDBRANCH  22  23
BRANCH  22  25
ATOM     25  O   UNL     1       0.946  -2.210   2.507  0.00  0.00    -0.387 OA
ATOM     26  H   UNL     1       0.962  -1.926   3.431  0.00  0.00    +0.210 HD
ENDBRANCH  22  25
ENDBRANCH  20  22
ENDBRANCH  18  20
BRANCH  18  27
ATOM     27  C   UNL     1       2.805   1.319   1.122  0.00  0.00    -0.042 C 
BRANCH  27  28
ATOM     28  C   UNL     1       2.118   1.991  -0.038  0.00  0.00    -0.064 A 
ATOM     29  C   UNL     1       2.559   1.764  -1.329  0.00  0.00    +0.002 A 
ATOM     30  C   UNL     1       1.929   2.381  -2.393  0.00  0.00    +0.000 A 
ATOM     31  C   UNL     1       0.858   3.225  -2.167  0.00  0.00    +0.000 A 
ATOM     32  C   UNL     1       0.417   3.452  -0.877  0.00  0.00    +0.000 A 
ATOM     33  C   UNL     1       1.044   2.832   0.187  0.00  0.00    +0.002 A 
ENDBRANCH  27  28
ENDBRANCH  18  27
ENDBRANCH   1  18
TORSDOF 8
