REMARK  Name = ZINC67294347
REMARK  4 active torsions:
REMARK  status: ('A' for Active; 'I' for Inactive)
REMARK    1  A    between atoms: C_1  and  C_2
REMARK    2  A    between atoms: C_9  and  C_11
REMARK    3  A    between atoms: C_16  and  O_30
REMARK    4  A    between atoms: N_21  and  C_22
REMARK                            x       y       z     vdW  Elec       q    Type
REMARK                         _______ _______ _______ _____ _____    ______ ____
ROOT
ATOM      1  C   UNL     1       0.070  -6.433  -0.981  0.00  0.00    +0.098 A 
ATOM      2  C   UNL     1       0.400  -7.184  -2.101  0.00  0.00    +0.030 A 
ATOM      3  C   UNL     1       0.655  -8.568  -1.928  0.00  0.00    +0.018 A 
ATOM      4  C   UNL     1       1.186  -9.329  -2.981  0.00  0.00    +0.015 A 
ATOM      5  C   UNL     1       1.466 -10.650  -2.790  0.00  0.00    +0.046 A 
ATOM      6  C   UNL     1       1.222 -11.254  -1.558  0.00  0.00    +0.120 A 
ATOM      7  C   UNL     1       0.680 -10.523  -0.512  0.00  0.00    +0.092 A 
ATOM      8  C   UNL     1       0.383  -9.183  -0.690  0.00  0.00    +0.141 A 
ATOM      9  O   UNL     1      -0.188  -8.470   0.312  0.00  0.00    -0.438 OA
ATOM     10  C   UNL     1       0.047  -7.129   0.320  0.00  0.00    +0.212 A 
ATOM     11  N   UNL     1       0.242  -6.476   1.445  0.00  0.00    -0.324 N 
ATOM     12  H   UNL     1       0.522  -5.548   1.425  0.00  0.00    +0.169 HD
ENDROOT
BRANCH   1  21
ATOM     13  C   UNL     1      -2.040   1.120  -0.360  0.00  0.00    +0.045 C 
ATOM     14  C   UNL     1      -1.656  -0.336  -0.297  0.00  0.00    -0.032 A 
ATOM     15  C   UNL     1      -0.823  -0.884  -1.263  0.00  0.00    +0.008 A 
ATOM     16  C   UNL     1      -0.495  -2.224  -1.169  0.00  0.00    +0.044 A 
ATOM     17  C   UNL     1      -1.009  -2.974  -0.116  0.00  0.00    +0.125 A 
ATOM     18  N   UNL     1      -1.801  -2.415   0.785  0.00  0.00    -0.240 NA
ATOM     19  C   UNL     1      -2.125  -1.137   0.724  0.00  0.00    +0.116 A 
ATOM     20  N   UNL     1      -0.687  -4.325  -0.009  0.00  0.00    -0.266 N 
ATOM     21  C   UNL     1      -0.240  -4.998  -1.087  0.00  0.00    +0.254 C 
ATOM     22  O   UNL     1      -0.092  -4.421  -2.147  0.00  0.00    -0.270 OA
ATOM     23  H   UNL     1      -0.785  -4.781   0.842  0.00  0.00    +0.157 HD
ENDBRANCH   1  21
BRANCH  11  24
ATOM     24  C   UNL     1       0.049  -7.106   2.644  0.00  0.00    +0.061 A 
ATOM     25  C   UNL     1      -1.132  -7.812   2.884  0.00  0.00    +0.030 A 
ATOM     26  C   UNL     1      -1.321  -8.446   4.095  0.00  0.00    +0.040 A 
ATOM     27  C   UNL     1      -0.341  -8.383   5.073  0.00  0.00    +0.125 A 
ATOM     28  C   UNL     1       0.833  -7.684   4.843  0.00  0.00    +0.060 A 
ATOM     29  C   UNL     1       1.036  -7.051   3.633  0.00  0.00    +0.067 A 
ATOM     30 CL   UNL     1       2.510  -6.182   3.342  0.00  0.00    -0.081 Cl
ATOM     31  F   UNL     1      -0.532  -9.005   6.257  0.00  0.00    -0.205 F 
ENDBRANCH  11  24
BRANCH   6  32
ATOM     32  O   UNL     1       1.517 -12.567  -1.382  0.00  0.00    -0.507 OA
ATOM     33  H   UNL     1       2.415 -12.729  -1.062  0.00  0.00    +0.292 HD
ENDBRANCH   6  32
TORSDOF 3
