REMARK  Name = ZINC59639646
REMARK  11 active torsions:
REMARK  status: ('A' for Active; 'I' for Inactive)
REMARK    1  A    between atoms: C_1  and  C_2
REMARK    2  A    between atoms: C_4  and  C_25
REMARK    3  A    between atoms: C_5  and  C_23
REMARK    4  A    between atoms: N_8  and  C_9
REMARK    5  A    between atoms: C_9  and  C_10
REMARK    6  A    between atoms: N_12  and  N_13
REMARK    7  A    between atoms: C_14  and  C_15
REMARK    8  A    between atoms: C_18  and  O_22
REMARK    9  A    between atoms: C_20  and  O_21
REMARK   10  A    between atoms: C_25  and  O_26
REMARK   11  A    between atoms: O_26  and  C_27
REMARK                            x       y       z     vdW  Elec       q    Type
REMARK                         _______ _______ _______ _____ _____    ______ ____
ROOT
ATOM      1  C   UNL     1      -1.396   0.313   2.882  0.00  0.00    +0.252 C 
ATOM      2  O   UNL     1      -2.319  -0.104   2.214  0.00  0.00    -0.272 OA
ATOM      3  N   UNL     1      -1.641   0.988   4.023  0.00  0.00    -0.206 N 
ATOM      4  H   UNL     1      -0.903   1.321   4.557  0.00  0.00    +0.177 HD
ENDROOT
BRANCH   3   5
ATOM      5  N   UNL     1      -2.961   1.210   4.436  0.00  0.00    -0.188 NA
ATOM      6  C   UNL     1      -3.196   1.861   5.535  0.00  0.00    +0.142 C 
BRANCH   6   7
ATOM      7  C   UNL     1      -4.585   2.093   5.970  0.00  0.00    +0.036 A 
ATOM      8  C   UNL     1      -4.842   2.798   7.148  0.00  0.00    +0.016 A 
ATOM      9  C   UNL     1      -6.141   3.014   7.551  0.00  0.00    +0.046 A 
ATOM     10  C   UNL     1      -7.199   2.532   6.789  0.00  0.00    +0.120 A 
ATOM     11  C   UNL     1      -6.955   1.831   5.617  0.00  0.00    +0.091 A 
ATOM     12  C   UNL     1      -5.653   1.613   5.199  0.00  0.00    +0.129 A 
BRANCH  12  13
ATOM     13  O   UNL     1      -5.412   0.931   4.050  0.00  0.00    -0.506 OA
ATOM     14  H   UNL     1      -5.328  -0.025   4.169  0.00  0.00    +0.292 HD
ENDBRANCH  12  13
BRANCH  10  15
ATOM     15  O   UNL     1      -8.478   2.749   7.193  0.00  0.00    -0.507 OA
ATOM     16  H   UNL     1      -8.864   3.568   6.854  0.00  0.00    +0.292 HD
ENDBRANCH  10  15
ENDBRANCH   6   7
ENDBRANCH   3   5
BRANCH   1  17
ATOM     17  C   UNL     1       0.024   0.075   2.438  0.00  0.00    +0.222 C 
BRANCH  17  25
ATOM     18  C   UNL     1      -0.018   1.503   0.010  0.00  0.00    +0.065 C 
ATOM     19  C   UNL     1       0.002  -0.004   0.002  0.00  0.00    +0.034 A 
ATOM     20  C   UNL     1       0.005  -0.664  -1.184  0.00  0.00    +0.044 A 
ATOM     21  C   UNL     1       0.024  -2.060  -1.210  0.00  0.00    +0.016 A 
ATOM     22  C   UNL     1       0.039  -2.756  -0.004  0.00  0.00    +0.123 A 
ATOM     23  C   UNL     1       0.035  -2.022   1.211  0.00  0.00    +0.270 A 
ATOM     24  O   UNL     1       0.049  -2.608   2.280  0.00  0.00    -0.266 OA
ATOM     25  N   UNL     1       0.022  -0.676   1.179  0.00  0.00    -0.302 N 
ATOM     26 BR   UNL     1      -0.016   0.309  -2.806  0.00  0.00    -0.048 Br
BRANCH  22  27
ATOM     27  C   UNL     1       0.058  -4.188   0.010  0.00  0.00    +0.105 C 
ATOM     28  N   UNL     1       0.072  -5.324   0.022  0.00  0.00    -0.191 NA
ENDBRANCH  22  27
BRANCH  21  29
ATOM     29  C   UNL     1       0.027  -2.801  -2.522  0.00  0.00    +0.197 C 
BRANCH  29  30
ATOM     30  O   UNL     1       0.047  -4.208  -2.273  0.00  0.00    -0.378 OA
ATOM     31  C   UNL     1       0.051  -5.008  -3.458  0.00  0.00    +0.194 C 
ENDBRANCH  29  30
ENDBRANCH  21  29
ENDBRANCH  17  25
ENDBRANCH   1  17
TORSDOF 9
