REMARK  Name = ZINC14538263
REMARK  7 active torsions:
REMARK  status: ('A' for Active; 'I' for Inactive)
REMARK    1  A    between atoms: C_1  and  N_2
REMARK    2  A    between atoms: C_8  and  C_10
REMARK    3  A    between atoms: N_13  and  C_15
REMARK    4  A    between atoms: C_15  and  C_16
REMARK    5  A    between atoms: C_20  and  N_23
REMARK    6  A    between atoms: N_23  and  C_24
REMARK    7  A    between atoms: C_24  and  C_25
REMARK                            x       y       z     vdW  Elec       q    Type
REMARK                         _______ _______ _______ _____ _____    ______ ____
ROOT
ATOM      1  C   UNL     1       2.964   1.306   3.084  0.00  0.00    +0.151 A 
ATOM      2  C   UNL     1       3.582   0.321   2.296  0.00  0.00    +0.007 A 
ATOM      3  C   UNL     1       3.000   0.401   1.074  0.00  0.00    +0.044 A 
ATOM      4  N   UNL     1       2.087   1.385   1.133  0.00  0.00    -0.264 N 
ATOM      5  N   UNL     1       2.077   1.909   2.310  0.00  0.00    -0.166 NA
ATOM      6  C   UNL     1       3.361  -0.486  -0.089  0.00  0.00    +0.057 C 
ATOM      7  C   UNL     1       4.135  -1.696   0.449  0.00  0.00    +0.025 C 
ATOM      8  C   UNL     1       5.264  -1.220   1.367  0.00  0.00    +0.059 C 
ATOM      9  C   UNL     1       4.667  -0.654   2.662  0.00  0.00    +0.058 C 
ENDROOT
BRANCH   1  17
ATOM     10  C   UNL     1       2.444   6.748   6.055  0.00  0.00    -0.096 C 
ATOM     11  N   UNL     1       2.237   5.302   5.899  0.00  0.00    +0.380 N 
ATOM     12  C   UNL     1       2.045   4.947   4.486  0.00  0.00    -0.060 C 
ATOM     13  C   UNL     1       1.654   3.469   4.383  0.00  0.00    +0.089 C 
ATOM     14  N   UNL     1       2.662   2.668   5.095  0.00  0.00    -0.300 N 
ATOM     15  C   UNL     1       3.004   3.046   6.474  0.00  0.00    +0.089 C 
ATOM     16  C   UNL     1       3.346   4.544   6.493  0.00  0.00    -0.060 C 
ATOM     17  C   UNL     1       3.252   1.613   4.500  0.00  0.00    +0.267 C 
ATOM     18  O   UNL     1       4.023   0.913   5.128  0.00  0.00    -0.268 OA
ATOM     19  H   UNL     1       1.318   5.030   6.440  0.00  0.00    -0.082 HD
ENDBRANCH   1  17
BRANCH   8  20
ATOM     20  N   UNL     1       6.145  -2.350   1.686  0.00  0.00    -0.309 NA
ATOM     21  H   UNL     1       6.655  -2.159   2.642  0.00  0.00    +0.123 HD
BRANCH  20  22
ATOM     22  C   UNL     1       7.160  -2.540   0.641  0.00  0.00    +0.116 C 
BRANCH  22  23
ATOM     23  C   UNL     1       8.043  -3.706   1.003  0.00  0.00    -0.028 A 
ATOM     24  C   UNL     1       9.189  -3.498   1.746  0.00  0.00    +0.046 A 
ATOM     25  C   UNL     1      10.000  -4.569   2.084  0.00  0.00    +0.162 A 
ATOM     26  C   UNL     1       9.666  -5.848   1.667  0.00  0.00    +0.193 A 
ATOM     27  C   UNL     1       8.519  -6.053   0.917  0.00  0.00    +0.162 A 
ATOM     28  C   UNL     1       7.708  -4.981   0.586  0.00  0.00    +0.046 A 
ATOM     29  F   UNL     1       8.191  -7.299   0.510  0.00  0.00    -0.202 F 
ATOM     30  F   UNL     1      10.458  -6.893   1.991  0.00  0.00    -0.199 F 
ATOM     31  F   UNL     1      11.117  -4.366   2.816  0.00  0.00    -0.202 F 
ENDBRANCH  22  23
ENDBRANCH  20  22
ENDBRANCH   8  20
BRANCH   4  32
ATOM     32  C   UNL     1       1.231   1.804   0.021  0.00  0.00    +0.170 C 
BRANCH  32  33
ATOM     33  C   UNL     1      -0.049   1.008   0.043  0.00  0.00    -0.012 C 
ATOM     34  C   UNL     1      -1.204   1.625   0.064  0.00  0.00    +0.006 C 
ENDBRANCH  32  33
ENDBRANCH   4  32
TORSDOF 6
