REMARK  Name = ZINC14163781
REMARK  6 active torsions:
REMARK  status: ('A' for Active; 'I' for Inactive)
REMARK    1  A    between atoms: C_1  and  C_2
REMARK    2  A    between atoms: C_3  and  C_25
REMARK    3  A    between atoms: C_7  and  C_19
REMARK    4  A    between atoms: C_13  and  C_18
REMARK    5  A    between atoms: C_28  and  O_31
REMARK    6  A    between atoms: O_31  and  C_32
REMARK                            x       y       z     vdW  Elec       q    Type
REMARK                         _______ _______ _______ _____ _____    ______ ____
ROOT
ATOM      1  C   UNL     1      -4.109   1.397  -4.747  0.00  0.00    +0.068 C 
ATOM      2  C   UNL     1      -3.985   1.552  -3.253  0.00  0.00    +0.070 A 
ATOM      3  C   UNL     1      -4.834   2.322  -2.430  0.00  0.00    +0.044 A 
ATOM      4  C   UNL     1      -4.374   2.190  -1.144  0.00  0.00    +0.130 A 
ATOM      5  N   UNL     1      -3.283   1.379  -1.177  0.00  0.00    -0.238 N 
ATOM      6  N   UNL     1      -3.070   0.996  -2.499  0.00  0.00    -0.173 NA
ATOM      7  C   UNL     1      -2.524   1.026   0.020  0.00  0.00    +0.175 C 
ATOM      8  C   UNL     1      -3.306   1.393   1.261  0.00  0.00    +0.041 C 
ATOM      9  C   UNL     1      -4.390   2.198   1.220  0.00  0.00    +0.018 C 
ATOM     10  N   UNL     1      -4.849   2.732   0.042  0.00  0.00    -0.302 N 
ATOM     11  C   UNL     1      -5.154   2.541   2.478  0.00  0.00    +0.055 C 
ATOM     12  C   UNL     1      -4.201   2.548   3.675  0.00  0.00    -0.001 C 
ATOM     13  C   UNL     1      -3.548   1.165   3.778  0.00  0.00    +0.083 C 
ATOM     14  C   UNL     1      -2.853   0.857   2.481  0.00  0.00    +0.163 C 
ATOM     15  O   UNL     1      -1.879   0.130   2.485  0.00  0.00    -0.292 OA
ATOM     16  C   UNL     1      -4.985   2.844   4.955  0.00  0.00    +0.008 C 
ATOM     17  H   UNL     1      -5.485   3.464   0.038  0.00  0.00    +0.153 HD
ENDROOT
BRANCH   7  18
ATOM     18  C   UNL     1      -1.213   1.769   0.017  0.00  0.00    -0.000 A 
ATOM     19  C   UNL     1      -0.013   1.076   0.008  0.00  0.00    +0.009 A 
ATOM     20  C   UNL     1       1.169   1.802   0.001  0.00  0.00    +0.020 A 
ATOM     21  C   UNL     1       1.111   3.183   0.008  0.00  0.00    +0.111 A 
ATOM     22  N   UNL     1      -0.050   3.809   0.022  0.00  0.00    -0.263 NA
ATOM     23  C   UNL     1      -1.193   3.151   0.030  0.00  0.00    +0.116 A 
ENDBRANCH   7  18
BRANCH   3  24
ATOM     24  C   UNL     1      -6.003   3.122  -2.871  0.00  0.00    -0.013 A 
ATOM     25  C   UNL     1      -7.286   2.768  -2.459  0.00  0.00    +0.012 A 
ATOM     26  C   UNL     1      -8.370   3.518  -2.866  0.00  0.00    +0.046 A 
ATOM     27  C   UNL     1      -8.185   4.615  -3.695  0.00  0.00    +0.120 A 
ATOM     28  C   UNL     1      -6.909   4.966  -4.112  0.00  0.00    +0.046 A 
ATOM     29  C   UNL     1      -5.820   4.224  -3.704  0.00  0.00    +0.012 A 
BRANCH  27  30
ATOM     30  O   UNL     1      -9.256   5.348  -4.100  0.00  0.00    -0.495 OA
ATOM     31  C   UNL     1     -10.541   4.931  -3.633  0.00  0.00    +0.277 C 
ENDBRANCH  27  30
ENDBRANCH   3  24
TORSDOF 3
