REMARK  Name = ZINC40797335
REMARK  9 active torsions:
REMARK  status: ('A' for Active; 'I' for Inactive)
REMARK    1  A    between atoms: C_1  and  C_2
REMARK    2  A    between atoms: C_2  and  N_3
REMARK    3  A    between atoms: C_11  and  C_14
REMARK    4  A    between atoms: C_11  and  C_15
REMARK    5  A    between atoms: N_17  and  C_18
REMARK    6  A    between atoms: C_26  and  C_27
REMARK    7  A    between atoms: C_27  and  C_29
REMARK    8  A    between atoms: C_32  and  O_35
REMARK    9  A    between atoms: O_35  and  C_36
REMARK                            x       y       z     vdW  Elec       q    Type
REMARK                         _______ _______ _______ _____ _____    ______ ____
ROOT
ATOM      1  C   UNL     1       2.629   1.255   5.869  0.00  0.00    +0.091 A 
ATOM      2  C   UNL     1       3.918   1.500   6.526  0.00  0.00    +0.042 A 
ATOM      3  C   UNL     1       5.111   0.780   6.619  0.00  0.00    +0.013 A 
ATOM      4  C   UNL     1       6.160   1.296   7.327  0.00  0.00    +0.001 A 
ATOM      5  C   UNL     1       6.046   2.530   7.952  0.00  0.00    +0.004 A 
ATOM      6  C   UNL     1       4.877   3.255   7.872  0.00  0.00    +0.047 A 
ATOM      7  C   UNL     1       3.796   2.751   7.157  0.00  0.00    +0.138 A 
ATOM      8  O   UNL     1       2.558   3.224   6.911  0.00  0.00    -0.450 OA
ATOM      9  C   UNL     1       1.851   2.361   6.147  0.00  0.00    +0.197 A 
ENDROOT
BRANCH   1  12
ATOM     10  C   UNL     1       3.215  -0.580   4.488  0.00  0.00    +0.270 C 
ATOM     11  O   UNL     1       4.374  -0.222   4.521  0.00  0.00    -0.271 OA
ATOM     12  N   UNL     1       2.269   0.144   5.117  0.00  0.00    -0.278 N 
ATOM     13  H   UNL     1       1.335  -0.110   5.045  0.00  0.00    +0.155 HD
BRANCH  10  22
ATOM     14  N   UNL     1       4.270  -3.622   4.665  0.00  0.00    -0.265 N 
ATOM     15  C   UNL     1       3.337  -3.746   5.704  0.00  0.00    +0.078 A 
ATOM     16  C   UNL     1       3.653  -4.452   6.854  0.00  0.00    +0.027 A 
ATOM     17  C   UNL     1       2.726  -4.553   7.875  0.00  0.00    +0.002 A 
ATOM     18  C   UNL     1       1.487  -3.953   7.752  0.00  0.00    +0.004 A 
ATOM     19  C   UNL     1       1.164  -3.251   6.605  0.00  0.00    +0.047 A 
ATOM     20  C   UNL     1       2.084  -3.150   5.576  0.00  0.00    +0.144 A 
ATOM     21  O   UNL     1       1.767  -2.489   4.430  0.00  0.00    -0.465 OA
ATOM     22  C   UNL     1       2.834  -1.833   3.743  0.00  0.00    +0.258 C 
ATOM     23  C   UNL     1       4.030  -2.747   3.666  0.00  0.00    +0.273 C 
ATOM     24  O   UNL     1       4.771  -2.700   2.707  0.00  0.00    -0.270 OA
ATOM     25  C   UNL     1       2.380  -1.465   2.329  0.00  0.00    +0.076 C 
BRANCH  14  27
ATOM     26  C   UNL     1       6.599  -3.675   5.410  0.00  0.00    +0.025 C 
ATOM     27  C   UNL     1       5.493  -4.428   4.668  0.00  0.00    +0.110 C 
ENDBRANCH  14  27
ENDBRANCH  10  22
ENDBRANCH   1  12
BRANCH   9  28
ATOM     28  C   UNL     1       0.519   2.560   5.705  0.00  0.00    +0.230 C 
ATOM     29  O   UNL     1      -0.061   1.674   5.103  0.00  0.00    -0.283 OA
BRANCH  28  30
ATOM     30  C   UNL     1      -0.165   3.841   5.973  0.00  0.00    +0.026 A 
ATOM     31  C   UNL     1       0.451   4.811   6.769  0.00  0.00    +0.015 A 
ATOM     32  C   UNL     1      -0.190   6.004   7.017  0.00  0.00    +0.046 A 
ATOM     33  C   UNL     1      -1.448   6.245   6.478  0.00  0.00    +0.120 A 
ATOM     34  C   UNL     1      -2.064   5.283   5.686  0.00  0.00    +0.046 A 
ATOM     35  C   UNL     1      -1.427   4.089   5.428  0.00  0.00    +0.015 A 
BRANCH  33  36
ATOM     36  O   UNL     1      -2.077   7.422   6.725  0.00  0.00    -0.495 OA
ATOM     37  C   UNL     1      -3.368   7.603   6.139  0.00  0.00    +0.277 C 
ENDBRANCH  33  36
ENDBRANCH  28  30
ENDBRANCH   9  28
TORSDOF 6
