REMARK  Name = ZINC09329086
REMARK  13 active torsions:
REMARK  status: ('A' for Active; 'I' for Inactive)
REMARK    1  A    between atoms: C_1  and  C_2
REMARK    2  A    between atoms: C_2  and  C_33
REMARK    3  A    between atoms: C_6  and  C_18
REMARK    4  A    between atoms: C_8  and  C_16
REMARK    5  A    between atoms: C_9  and  S_11
REMARK    6  A    between atoms: S_11  and  C_12
REMARK    7  A    between atoms: C_12  and  C_13
REMARK    8  A    between atoms: C_20  and  O_28
REMARK    9  A    between atoms: C_21  and  O_26
REMARK   10  A    between atoms: C_22  and  O_24
REMARK   11  A    between atoms: O_24  and  C_25
REMARK   12  A    between atoms: O_26  and  C_27
REMARK   13  A    between atoms: O_28  and  C_29
REMARK                            x       y       z     vdW  Elec       q    Type
REMARK                         _______ _______ _______ _____ _____    ______ ____
ROOT
ATOM      1  C   UNL     1      -0.019   1.526   0.010  0.00  0.00    +0.011 C 
ATOM      2  C   UNL     1       0.002  -0.004   0.002  0.00  0.00    -0.023 C 
ATOM      3  C   UNL     1       0.741  -0.502  -1.242  0.00  0.00    +0.058 C 
ATOM      4  C   UNL     1       2.167  -0.011  -1.215  0.00  0.00    +0.016 C 
ATOM      5  C   UNL     1       2.812   0.187  -0.045  0.00  0.00    +0.024 C 
ATOM      6  C   UNL     1       4.237   0.677  -0.018  0.00  0.00    +0.097 C 
ATOM      7  C   UNL     1       4.902   0.483  -1.349  0.00  0.00    +0.069 C 
ATOM      8  C   UNL     1       4.170   0.271  -2.476  0.00  0.00    +0.080 C 
ATOM      9  N   UNL     1       2.796   0.225  -2.407  0.00  0.00    -0.311 N 
ATOM     10  C   UNL     1       2.172  -0.053   1.184  0.00  0.00    +0.162 C 
ATOM     11  O   UNL     1       2.787   0.118   2.219  0.00  0.00    -0.292 OA
ATOM     12  C   UNL     1       0.743  -0.516   1.242  0.00  0.00    +0.086 C 
ATOM     13  C   UNL     1      -1.432  -0.538   0.002  0.00  0.00    +0.011 C 
ATOM     14  H   UNL     1       2.270   0.361  -3.210  0.00  0.00    +0.152 HD
ENDROOT
BRANCH   6  15
ATOM     15  C   UNL     1       4.249   2.144   0.329  0.00  0.00    -0.028 A 
ATOM     16  C   UNL     1       3.588   3.049  -0.480  0.00  0.00    +0.054 A 
ATOM     17  C   UNL     1       3.597   4.399  -0.165  0.00  0.00    +0.165 A 
ATOM     18  C   UNL     1       4.271   4.842   0.967  0.00  0.00    +0.204 A 
ATOM     19  C   UNL     1       4.934   3.929   1.778  0.00  0.00    +0.165 A 
ATOM     20  C   UNL     1       4.916   2.579   1.458  0.00  0.00    +0.054 A 
BRANCH  19  21
ATOM     21  O   UNL     1       5.595   4.357   2.887  0.00  0.00    -0.491 OA
ATOM     22  C   UNL     1       6.254   3.363   3.674  0.00  0.00    +0.277 C 
ENDBRANCH  19  21
BRANCH  18  23
ATOM     23  O   UNL     1       4.282   6.166   1.280  0.00  0.00    -0.488 OA
ATOM     24  C   UNL     1       3.229   6.644   2.120  0.00  0.00    +0.277 C 
ENDBRANCH  18  23
BRANCH  17  25
ATOM     25  O   UNL     1       2.947   5.289  -0.962  0.00  0.00    -0.491 OA
ATOM     26  C   UNL     1       2.276   4.763  -2.109  0.00  0.00    +0.277 C 
ENDBRANCH  17  25
ENDBRANCH   6  15
BRANCH   7  27
ATOM     27  C   UNL     1       6.331   0.520  -1.435  0.00  0.00    +0.098 C 
ATOM     28  N   UNL     1       7.465   0.550  -1.503  0.00  0.00    -0.191 NA
ENDBRANCH   7  27
BRANCH   8  29
ATOM     29  S   UNL     1       4.980   0.057  -4.025  0.00  0.00    -0.100 S 
BRANCH  29  30
ATOM     30  C   UNL     1       3.621  -0.189  -5.201  0.00  0.00    +0.171 C 
BRANCH  30  31
ATOM     31  C   UNL     1       4.184  -0.387  -6.585  0.00  0.00    +0.221 C 
ATOM     32  O   UNL     1       5.384  -0.365  -6.761  0.00  0.00    -0.275 OA
ATOM     33  N   UNL     1       3.354  -0.590  -7.628  0.00  0.00    -0.329 N 
ATOM     34  H   UNL     1       2.395  -0.608  -7.487  0.00  0.00    +0.145 HD
ATOM     35  H   UNL     1       3.717  -0.717  -8.518  0.00  0.00    +0.145 HD
ENDBRANCH  30  31
ENDBRANCH  29  30
ENDBRANCH   8  29
TORSDOF 8
