REMARK  Name = ZINC45314108
REMARK  8 active torsions:
REMARK  status: ('A' for Active; 'I' for Inactive)
REMARK    1  A    between atoms: C_1  and  C_2
REMARK    2  A    between atoms: C_2  and  C_4
REMARK    3  A    between atoms: C_2  and  N_11
REMARK    4  A    between atoms: C_12  and  C_14
REMARK    5  A    between atoms: C_14  and  N_15
REMARK    6  A    between atoms: C_19  and  C_21
REMARK    7  A    between atoms: C_24  and  O_27
REMARK    8  A    between atoms: O_27  and  C_28
REMARK                            x       y       z     vdW  Elec       q    Type
REMARK                         _______ _______ _______ _____ _____    ______ ____
ROOT
ATOM      1  C   UNL     1       2.783  -1.099   2.395  0.00  0.00    +0.019 C 
ENDROOT
BRANCH   1   2
ATOM      2  N   UNL     1       4.226  -1.127   2.125  0.00  0.00    +0.390 N 
ATOM      3  C   UNL     1       4.724   0.252   1.935  0.00  0.00    -0.077 C 
ATOM      4  C   UNL     1       5.269   0.671   3.322  0.00  0.00    -0.020 C 
ATOM      5  C   UNL     1       5.895  -0.656   3.828  0.00  0.00    -0.013 C 
ATOM      6  C   UNL     1       4.933  -1.727   3.272  0.00  0.00    -0.037 C 
ATOM      7  H   UNL     1       4.407  -1.670   1.294  0.00  0.00    -0.080 HD
BRANCH   6   8
ATOM      8  C   UNL     1       5.716  -2.933   2.818  0.00  0.00    -0.061 A 
ATOM      9  C   UNL     1       6.393  -2.902   1.613  0.00  0.00    +0.005 A 
ATOM     10  C   UNL     1       7.110  -4.006   1.195  0.00  0.00    +0.046 A 
ATOM     11  C   UNL     1       7.152  -5.146   1.986  0.00  0.00    +0.120 A 
ATOM     12  C   UNL     1       6.471  -5.173   3.195  0.00  0.00    +0.046 A 
ATOM     13  C   UNL     1       5.760  -4.065   3.611  0.00  0.00    +0.005 A 
BRANCH  11  14
ATOM     14  O   UNL     1       7.856  -6.233   1.576  0.00  0.00    -0.495 OA
ATOM     15  C   UNL     1       7.854  -7.371   2.441  0.00  0.00    +0.277 C 
ENDBRANCH  11  14
ENDBRANCH   6   8
ENDBRANCH   1   2
BRANCH   1  17
ATOM     16  N   UNL     1       0.711  -0.489   1.189  0.00  0.00    -0.310 N 
ATOM     17  C   UNL     1       2.054  -0.600   1.174  0.00  0.00    +0.197 C 
ATOM     18  O   UNL     1       2.676  -0.297   0.177  0.00  0.00    -0.278 OA
ATOM     19  H   UNL     1       0.213  -0.731   1.986  0.00  0.00    +0.149 HD
BRANCH  16  21
ATOM     20  C   UNL     1      -0.019   1.526   0.010  0.00  0.00    +0.033 C 
ATOM     21  C   UNL     1       0.002  -0.004   0.002  0.00  0.00    +0.100 C 
BRANCH  21  22
ATOM     22  C   UNL     1      -1.412  -0.526   0.013  0.00  0.00    -0.027 A 
ATOM     23  C   UNL     1      -2.123  -0.571   1.198  0.00  0.00    +0.006 A 
ATOM     24  C   UNL     1      -3.420  -1.049   1.208  0.00  0.00    +0.015 A 
ATOM     25  C   UNL     1      -4.006  -1.482   0.032  0.00  0.00    +0.018 A 
ATOM     26  C   UNL     1      -3.294  -1.437  -1.153  0.00  0.00    +0.015 A 
ATOM     27  C   UNL     1      -1.999  -0.954  -1.163  0.00  0.00    +0.006 A 
ATOM     28 BR   UNL     1      -5.780  -2.136   0.046  0.00  0.00    -0.050 Br
ENDBRANCH  21  22
ENDBRANCH  16  21
ENDBRANCH   1  17
TORSDOF 6
