REMARK  Name = ZINC18085899
REMARK  7 active torsions:
REMARK  status: ('A' for Active; 'I' for Inactive)
REMARK    1  A    between atoms: C_4  and  C_7
REMARK    2  A    between atoms: C_7  and  C_9
REMARK    3  A    between atoms: C_7  and  N_18
REMARK    4  A    between atoms: C_9  and  C_11
REMARK    5  A    between atoms: C_9  and  O_17
REMARK    6  A    between atoms: C_19  and  C_20
REMARK    7  A    between atoms: C_25  and  O_26
REMARK                            x       y       z     vdW  Elec       q    Type
REMARK                         _______ _______ _______ _____ _____    ______ ____
ROOT
ATOM      1  C   UNL     1       3.705  -0.700  -0.030  0.00  0.00    +0.142 C 
ENDROOT
BRANCH   1   5
ATOM      2  C   UNL     1      -0.012   1.404   0.046  0.00  0.00    +0.000 A 
ATOM      3  C   UNL     1       1.179   2.106   0.032  0.00  0.00    +0.000 A 
ATOM      4  C   UNL     1       2.382   1.425   0.007  0.00  0.00    +0.006 A 
ATOM      5  C   UNL     1       2.393   0.042  -0.003  0.00  0.00    -0.022 A 
ATOM      6  C   UNL     1       1.202  -0.659   0.013  0.00  0.00    +0.006 A 
ATOM      7  C   UNL     1      -0.000   0.022   0.036  0.00  0.00    +0.000 A 
ENDBRANCH   1   5
BRANCH   1   8
ATOM      8  N   UNL     1       3.624  -1.867   0.851  0.00  0.00    -0.380 N 
ATOM      9  C   UNL     1       4.436  -1.980   1.852  0.00  0.00    +0.090 C 
ATOM     10  H   UNL     1       2.961  -2.556   0.685  0.00  0.00    +0.160 HD
BRANCH   9  11
ATOM     11  C   UNL     1       4.284  -3.095   2.804  0.00  0.00    +0.032 A 
ATOM     12  C   UNL     1       5.083  -3.157   3.947  0.00  0.00    +0.013 A 
ATOM     13  C   UNL     1       4.936  -4.203   4.833  0.00  0.00    +0.001 A 
ATOM     14  C   UNL     1       3.997  -5.194   4.594  0.00  0.00    +0.004 A 
ATOM     15  C   UNL     1       3.201  -5.145   3.467  0.00  0.00    +0.046 A 
ATOM     16  C   UNL     1       3.332  -4.097   2.569  0.00  0.00    +0.125 A 
BRANCH  16  17
ATOM     17  O   UNL     1       2.545  -4.044   1.464  0.00  0.00    -0.506 OA
ATOM     18  H   UNL     1       2.918  -4.495   0.694  0.00  0.00    +0.292 HD
ENDBRANCH  16  17
ENDBRANCH   9  11
ENDBRANCH   1   8
BRANCH   1  19
ATOM     19  C   UNL     1       4.000  -1.160  -1.459  0.00  0.00    +0.171 C 
BRANCH  19  20
ATOM     20  C   UNL     1       5.247  -2.006  -1.467  0.00  0.00    -0.017 A 
ATOM     21  C   UNL     1       5.165  -3.359  -1.196  0.00  0.00    +0.006 A 
ATOM     22  C   UNL     1       6.309  -4.136  -1.203  0.00  0.00    +0.000 A 
ATOM     23  C   UNL     1       7.534  -3.559  -1.482  0.00  0.00    +0.000 A 
ATOM     24  C   UNL     1       7.615  -2.206  -1.754  0.00  0.00    +0.000 A 
ATOM     25  C   UNL     1       6.471  -1.431  -1.751  0.00  0.00    +0.006 A 
ENDBRANCH  19  20
BRANCH  19  26
ATOM     26  O   UNL     1       2.900  -1.928  -1.950  0.00  0.00    -0.385 OA
ATOM     27  H   UNL     1       2.710  -2.720  -1.429  0.00  0.00    +0.210 HD
ENDBRANCH  19  26
ENDBRANCH   1  19
TORSDOF 7
