REMARK  Name = ZINC26491814
REMARK  13 active torsions:
REMARK  status: ('A' for Active; 'I' for Inactive)
REMARK    1  A    between atoms: C_1  and  C_2
REMARK    2  A    between atoms: C_2  and  C_4
REMARK    3  A    between atoms: C_2  and  S_19
REMARK    4  A    between atoms: N_6  and  C_7
REMARK    5  A    between atoms: C_8  and  C_16
REMARK    6  A    between atoms: C_12  and  C_13
REMARK    7  A    between atoms: C_13  and  C_14
REMARK    8  A    between atoms: C_13  and  C_15
REMARK    9  A    between atoms: C_16  and  C_17
REMARK   10  A    between atoms: C_16  and  C_18
REMARK   11  A    between atoms: S_19  and  C_20
REMARK   12  A    between atoms: C_23  and  C_27
REMARK   13  A    between atoms: C_24  and  N_26
REMARK                            x       y       z     vdW  Elec       q    Type
REMARK                         _______ _______ _______ _____ _____    ______ ____
ROOT
ATOM      1  C   UNL     1      -1.662   0.124  -0.258  0.00  0.00    +0.230 C 
ATOM      2  O   UNL     1      -2.465   0.532   0.554  0.00  0.00    -0.274 OA
ATOM      3  N   UNL     1      -2.038  -0.779  -1.185  0.00  0.00    -0.284 N 
ATOM      4  H   UNL     1      -1.409  -1.069  -1.864  0.00  0.00    +0.155 HD
ENDROOT
BRANCH   3   5
ATOM      5  C   UNL     1      -3.337  -1.299  -1.167  0.00  0.00    +0.040 A 
ATOM      6  C   UNL     1      -3.846  -1.861  -0.003  0.00  0.00    -0.023 A 
ATOM      7  C   UNL     1      -5.128  -2.374   0.011  0.00  0.00    +0.006 A 
ATOM      8  C   UNL     1      -5.905  -2.328  -1.132  0.00  0.00    +0.001 A 
ATOM      9  C   UNL     1      -5.402  -1.770  -2.292  0.00  0.00    +0.006 A 
ATOM     10  C   UNL     1      -4.122  -1.250  -2.311  0.00  0.00    -0.023 A 
BRANCH  10  11
ATOM     11  C   UNL     1      -3.577  -0.635  -3.574  0.00  0.00    +0.015 C 
ATOM     12  C   UNL     1      -3.572  -1.681  -4.690  0.00  0.00    +0.012 C 
ATOM     13  C   UNL     1      -4.456   0.547  -3.987  0.00  0.00    +0.012 C 
ENDBRANCH  10  11
BRANCH   6  14
ATOM     14  C   UNL     1      -2.999  -1.912   1.242  0.00  0.00    +0.015 C 
ATOM     15  C   UNL     1      -3.782  -1.318   2.415  0.00  0.00    +0.012 C 
ATOM     16  C   UNL     1      -2.638  -3.366   1.554  0.00  0.00    +0.012 C 
ENDBRANCH   6  14
ENDBRANCH   3   5
BRANCH   1  18
ATOM     17  C   UNL     1      -0.095   1.792  -1.214  0.00  0.00    +0.029 C 
ATOM     18  C   UNL     1      -0.242   0.629  -0.231  0.00  0.00    +0.137 C 
BRANCH  18  19
ATOM     19  S   UNL     1       0.167   1.195   1.443  0.00  0.00    -0.074 S 
BRANCH  19  20
ATOM     20  C   UNL     1       1.877   1.608   1.347  0.00  0.00    +0.191 A 
ATOM     21  N   UNL     1       2.512   1.458   0.191  0.00  0.00    -0.229 NA
ATOM     22  C   UNL     1       3.793   1.754   0.072  0.00  0.00    +0.136 A 
ATOM     23  C   UNL     1       4.487   2.234   1.188  0.00  0.00    +0.109 A 
ATOM     24  C   UNL     1       3.778   2.380   2.401  0.00  0.00    +0.138 A 
ATOM     25  N   UNL     1       2.489   2.064   2.431  0.00  0.00    -0.206 NA
BRANCH  24  26
ATOM     26  N   UNL     1       4.413   2.849   3.533  0.00  0.00    -0.342 N 
ATOM     27  H   UNL     1       5.354   3.081   3.501  0.00  0.00    +0.144 HD
ATOM     28  H   UNL     1       3.918   2.946   4.362  0.00  0.00    +0.144 HD
ENDBRANCH  24  26
BRANCH  23  29
ATOM     29  C   UNL     1       5.877   2.567   1.104  0.00  0.00    +0.104 C 
ATOM     30  N   UNL     1       6.980   2.831   1.036  0.00  0.00    -0.191 NA
ENDBRANCH  23  29
ENDBRANCH  19  20
ENDBRANCH  18  19
ENDBRANCH   1  18
TORSDOF 8
