REMARK  Name = ZINC40318956
REMARK  11 active torsions:
REMARK  status: ('A' for Active; 'I' for Inactive)
REMARK    1  A    between atoms: C_4  and  O_9
REMARK    2  A    between atoms: C_5  and  C_7
REMARK    3  A    between atoms: O_9  and  C_10
REMARK    4  A    between atoms: C_10  and  C_11
REMARK    5  A    between atoms: C_11  and  C_13
REMARK    6  A    between atoms: C_11  and  O_36
REMARK    7  A    between atoms: C_13  and  N_14
REMARK    8  A    between atoms: N_14  and  C_15
REMARK    9  A    between atoms: N_14  and  C_28
REMARK   10  A    between atoms: C_15  and  C_16
REMARK   11  A    between atoms: C_19  and  C_21
REMARK                            x       y       z     vdW  Elec       q    Type
REMARK                         _______ _______ _______ _____ _____    ______ ____
ROOT
ATOM      1  N   UNL     1       8.432  -0.446  -0.546  0.00  0.00    +0.389 N 
ATOM      2  H   UNL     1       8.733  -0.698  -1.475  0.00  0.00    -0.081 HD
ENDROOT
BRANCH   1   3
ATOM      3  C   UNL     1       7.937  -1.641   0.150  0.00  0.00    -0.045 C 
ATOM      4  C   UNL     1       8.985  -2.763   0.066  0.00  0.00    +0.009 C 
ATOM      5  C   UNL     1       8.357  -4.107   0.505  0.00  0.00    +0.164 C 
ATOM      6  S   UNL     1       6.582  -3.883   0.076  0.00  0.00    -0.033 S 
ATOM      7  O   UNL     1       5.809  -3.932   1.268  0.00  0.00    -0.174 OA
ATOM      8  O   UNL     1       6.256  -4.744  -1.005  0.00  0.00    -0.174 OA
ATOM      9  C   UNL     1       6.633  -2.145  -0.534  0.00  0.00    +0.151 C 
ENDBRANCH   1   3
BRANCH   1  10
ATOM     10  C   UNL     1       7.356   0.550  -0.634  0.00  0.00    -0.043 C 
BRANCH  10  11
ATOM     11  C   UNL     1       6.973   0.760  -2.101  0.00  0.00    +0.135 C 
BRANCH  11  12
ATOM     12  O   UNL     1       8.073   1.346  -2.800  0.00  0.00    -0.390 OA
ATOM     13  H   UNL     1       8.348   2.205  -2.452  0.00  0.00    +0.210 HD
ENDBRANCH  11  12
BRANCH  11  14
ATOM     14  C   UNL     1       5.761   1.690  -2.184  0.00  0.00    +0.258 C 
BRANCH  14  15
ATOM     15  O   UNL     1       5.332   1.793  -3.543  0.00  0.00    -0.489 OA
BRANCH  15  19
ATOM     16  C   UNL     1       2.064   4.210  -4.300  0.00  0.00    +0.001 A 
ATOM     17  C   UNL     1       2.540   4.059  -3.007  0.00  0.00    +0.004 A 
ATOM     18  C   UNL     1       3.631   3.252  -2.752  0.00  0.00    +0.046 A 
ATOM     19  C   UNL     1       4.261   2.585  -3.792  0.00  0.00    +0.131 A 
ATOM     20  C   UNL     1       3.783   2.735  -5.104  0.00  0.00    +0.056 A 
ATOM     21  C   UNL     1       2.676   3.556  -5.347  0.00  0.00    +0.015 A 
BRANCH  20  22
ATOM     22  C   UNL     1       4.441   2.034  -6.214  0.00  0.00    +0.262 C 
ATOM     23  O   UNL     1       4.025   2.167  -7.346  0.00  0.00    -0.296 OA
ENDBRANCH  20  22
ENDBRANCH  15  19
ENDBRANCH  14  15
ENDBRANCH  11  14
ENDBRANCH  10  11
ENDBRANCH   1  10
BRANCH   1  24
ATOM     24  C   UNL     1       9.564   0.120   0.199  0.00  0.00    -0.003 C 
BRANCH  24  25
ATOM     25  C   UNL     1      10.722  -0.843   0.162  0.00  0.00    +0.089 A 
ATOM     26  C   UNL     1      11.405  -1.209  -0.940  0.00  0.00    +0.043 A 
ATOM     27  C   UNL     1      12.399  -2.119  -0.527  0.00  0.00    +0.050 A 
ATOM     28  C   UNL     1      12.266  -2.259   0.819  0.00  0.00    +0.135 A 
ATOM     29  O   UNL     1      11.249  -1.475   1.224  0.00  0.00    -0.462 OA
BRANCH  28  30
ATOM     30  C   UNL     1      13.098  -3.119   1.687  0.00  0.00    +0.017 A 
ATOM     31  C   UNL     1      14.133  -3.877   1.137  0.00  0.00    +0.014 A 
ATOM     32  C   UNL     1      14.906  -4.678   1.952  0.00  0.00    +0.039 A 
ATOM     33  C   UNL     1      14.655  -4.731   3.314  0.00  0.00    +0.123 A 
ATOM     34  C   UNL     1      13.629  -3.981   3.865  0.00  0.00    +0.039 A 
ATOM     35  C   UNL     1      12.854  -3.172   3.060  0.00  0.00    +0.014 A 
ATOM     36  F   UNL     1      15.415  -5.518   4.108  0.00  0.00    -0.205 F 
ENDBRANCH  28  30
ENDBRANCH  24  25
ENDBRANCH   1  24
TORSDOF 11
