REMARK  Name = ZINC14866564
REMARK  10 active torsions:
REMARK  status: ('A' for Active; 'I' for Inactive)
REMARK    1  A    between atoms: C_1  and  C_2
REMARK    2  A    between atoms: C_2  and  C_3
REMARK    3  A    between atoms: C_3  and  C_4
REMARK    4  A    between atoms: C_4  and  N_5
REMARK    5  A    between atoms: C_7  and  C_11
REMARK    6  A    between atoms: C_8  and  C_10
REMARK    7  A    between atoms: C_12  and  C_13
REMARK    8  A    between atoms: N_15  and  C_16
REMARK    9  A    between atoms: C_19  and  S_22
REMARK   10  A    between atoms: S_22  and  N_25
REMARK                            x       y       z     vdW  Elec       q    Type
REMARK                         _______ _______ _______ _____ _____    ______ ____
ROOT
ATOM      1  C   UNL     1      -0.475  -6.136  -9.297  0.00  0.00    +0.034 A 
ATOM      2  C   UNL     1       0.435  -5.638 -10.220  0.00  0.00    +0.025 A 
ATOM      3  C   UNL     1       0.369  -6.041 -11.539  0.00  0.00    +0.031 A 
ATOM      4  C   UNL     1      -0.601  -6.940 -11.941  0.00  0.00    +0.113 A 
ATOM      5  C   UNL     1      -1.509  -7.438 -11.025  0.00  0.00    +0.031 A 
ATOM      6  C   UNL     1      -1.445  -7.043  -9.703  0.00  0.00    +0.025 A 
ENDROOT
BRANCH   1   9
ATOM      7  C   UNL     1      -0.708  -6.602  -6.976  0.00  0.00    +0.241 C 
ATOM      8  O   UNL     1      -1.112  -7.717  -7.252  0.00  0.00    -0.270 OA
ATOM      9  N   UNL     1      -0.411  -5.730  -7.960  0.00  0.00    -0.282 N 
ATOM     10  H   UNL     1      -0.153  -4.821  -7.741  0.00  0.00    +0.155 HD
BRANCH   7  12
ATOM     11  C   UNL     1      -0.846  -7.096  -4.634  0.00  0.00    +0.018 C 
ATOM     12  C   UNL     1      -0.549  -6.221  -5.621  0.00  0.00    +0.068 C 
BRANCH  11  15
ATOM     13  N   UNL     1       0.176  -5.922  -1.360  0.00  0.00    -0.252 N 
ATOM     14  C   UNL     1       0.442  -6.122  -2.663  0.00  0.00    +0.134 A 
ATOM     15  C   UNL     1      -0.682  -6.701  -3.229  0.00  0.00    +0.034 A 
ATOM     16  C   UNL     1      -1.641  -6.841  -2.199  0.00  0.00    +0.069 A 
ATOM     17  N   UNL     1      -1.119  -6.381  -1.095  0.00  0.00    -0.175 NA
ATOM     18  C   UNL     1      -3.022  -7.425  -2.348  0.00  0.00    +0.068 C 
ATOM     19 CL   UNL     1       1.920  -5.726  -3.484  0.00  0.00    -0.062 Cl
BRANCH  13  20
ATOM     20  C   UNL     1       1.090  -5.328  -0.381  0.00  0.00    +0.145 C 
BRANCH  20  21
ATOM     21  C   UNL     1       1.934  -6.431   0.262  0.00  0.00    +0.023 C 
BRANCH  21  23
ATOM     22  C   UNL     1       3.733  -6.913   1.927  0.00  0.00    +0.004 C 
ATOM     23  C   UNL     1       2.889  -5.811   1.284  0.00  0.00    -0.002 C 
ENDBRANCH  21  23
ENDBRANCH  20  21
ENDBRANCH  13  20
ENDBRANCH  11  15
ENDBRANCH   7  12
ENDBRANCH   1   9
BRANCH   4  24
ATOM     24  S   UNL     1      -0.682  -7.451 -13.626  0.00  0.00    +0.100 S 
ATOM     25  O   UNL     1      -2.018  -7.877 -13.857  0.00  0.00    -0.146 OA
ATOM     26  O   UNL     1      -0.066  -6.425 -14.392  0.00  0.00    -0.146 OA
BRANCH  24  27
ATOM     27  N   UNL     1       0.275  -8.794 -13.776  0.00  0.00    -0.118 NA
ATOM     28  C   UNL     1       0.395  -9.377 -14.924  0.00  0.00    +0.117 C 
ATOM     29  N   UNL     1      -0.271  -8.890 -16.059  0.00  0.00    -0.331 N 
ATOM     30  C   UNL     1       0.537  -8.322 -17.099  0.00  0.00    +0.102 C 
ATOM     31  C   UNL     1       1.048  -9.308 -18.163  0.00  0.00    +0.019 C 
ATOM     32  C   UNL     1       1.511 -10.629 -17.499  0.00  0.00    +0.002 C 
ATOM     33  C   UNL     1       2.253 -10.409 -16.211  0.00  0.00    +0.008 C 
ATOM     34  C   UNL     1       1.225 -10.552 -15.084  0.00  0.00    +0.073 C 
ATOM     35  H   UNL     1      -1.237  -8.935 -16.137  0.00  0.00    +0.147 HD
ENDBRANCH  24  27
ENDBRANCH   4  24
TORSDOF 8
