REMARK  Name = ZINC20881978
REMARK  6 active torsions:
REMARK  status: ('A' for Active; 'I' for Inactive)
REMARK    1  A    between atoms: C_1  and  C_2
REMARK    2  A    between atoms: C_2  and  C_3
REMARK    3  A    between atoms: C_6  and  C_9
REMARK    4  A    between atoms: C_14  and  C_24
REMARK    5  A    between atoms: C_27  and  O_31
REMARK    6  A    between atoms: O_31  and  C_32
REMARK                            x       y       z     vdW  Elec       q    Type
REMARK                         _______ _______ _______ _____ _____    ______ ____
ROOT
ATOM      1  C   UNL     1       6.123  -3.065   1.578  0.00  0.00    +0.032 C 
ATOM      2  C   UNL     1       5.627  -1.654   1.266  0.00  0.00    +0.059 C 
ATOM      3  C   UNL     1       4.156  -1.694   0.885  0.00  0.00    +0.017 C 
ATOM      4  C   UNL     1       3.336  -2.602   1.437  0.00  0.00    +0.036 C 
ATOM      5  C   UNL     1       1.855  -2.737   1.171  0.00  0.00    +0.136 C 
ATOM      6  N   UNL     1       1.377  -1.962   0.045  0.00  0.00    -0.331 N 
ATOM      7  C   UNL     1       1.421  -0.570   0.059  0.00  0.00    +0.049 A 
ATOM      8  C   UNL     1       0.262   0.189   0.090  0.00  0.00    +0.025 A 
ATOM      9  C   UNL     1       0.353   1.568   0.166  0.00  0.00    +0.002 A 
ATOM     10  C   UNL     1       1.589   2.186   0.226  0.00  0.00    +0.002 A 
ATOM     11  C   UNL     1       2.749   1.431   0.191  0.00  0.00    +0.025 A 
ATOM     12  C   UNL     1       2.659   0.054   0.089  0.00  0.00    +0.052 A 
ATOM     13  N   UNL     1       3.783  -0.758  -0.024  0.00  0.00    -0.316 N 
ATOM     14  C   UNL     1       3.839  -3.552   2.357  0.00  0.00    +0.163 C 
ATOM     15  O   UNL     1       3.070  -4.352   2.853  0.00  0.00    -0.292 OA
ATOM     16  C   UNL     1       5.286  -3.606   2.744  0.00  0.00    +0.088 C 
ATOM     17  H   UNL     1       0.971  -2.473  -0.840  0.00  0.00    +0.147 HD
ATOM     18  H   UNL     1       4.387  -0.600  -0.930  0.00  0.00    +0.152 HD
ENDROOT
BRANCH   5  19
ATOM     19  C   UNL     1       1.109  -2.297   2.405  0.00  0.00    -0.021 A 
ATOM     20  C   UNL     1       1.181  -0.981   2.823  0.00  0.00    +0.009 A 
ATOM     21  C   UNL     1       0.494  -0.574   3.950  0.00  0.00    +0.047 A 
ATOM     22  C   UNL     1      -0.260  -1.490   4.670  0.00  0.00    +0.134 A 
ATOM     23  C   UNL     1      -0.326  -2.811   4.252  0.00  0.00    +0.060 A 
ATOM     24  C   UNL     1       0.358  -3.212   3.120  0.00  0.00    +0.024 A 
ATOM     25 BR   UNL     1      -1.353  -4.063   5.229  0.00  0.00    -0.047 Br
BRANCH  22  26
ATOM     26  O   UNL     1      -0.931  -1.093   5.783  0.00  0.00    -0.494 OA
ATOM     27  C   UNL     1      -0.817   0.282   6.154  0.00  0.00    +0.277 C 
ENDBRANCH  22  26
ENDBRANCH   5  19
BRANCH   1  31
ATOM     28  C   UNL     1      10.246  -2.938   2.688  0.00  0.00    -0.048 A 
ATOM     29  C   UNL     1       9.848  -3.677   1.590  0.00  0.00    +0.004 A 
ATOM     30  C   UNL     1       8.514  -3.718   1.230  0.00  0.00    +0.004 A 
ATOM     31  C   UNL     1       7.577  -3.020   1.970  0.00  0.00    -0.043 A 
ATOM     32  C   UNL     1       7.976  -2.277   3.065  0.00  0.00    +0.004 A 
ATOM     33  C   UNL     1       9.310  -2.239   3.427  0.00  0.00    +0.004 A 
BRANCH  28  35
ATOM     34  C   UNL     1      12.386  -1.727   2.367  0.00  0.00    +0.009 C 
ATOM     35  C   UNL     1      11.700  -2.894   3.080  0.00  0.00    +0.032 C 
ENDBRANCH  28  35
ENDBRANCH   1  31
TORSDOF 4
