REMARK  Name = ZINC01339781
REMARK  7 active torsions:
REMARK  status: ('A' for Active; 'I' for Inactive)
REMARK    1  A    between atoms: C_1  and  O_2
REMARK    2  A    between atoms: O_2  and  C_3
REMARK    3  A    between atoms: C_8  and  N_9
REMARK    4  A    between atoms: N_12  and  C_13
REMARK    5  A    between atoms: N_12  and  C_20
REMARK    6  A    between atoms: C_13  and  C_14
REMARK    7  A    between atoms: C_20  and  C_21
REMARK                            x       y       z     vdW  Elec       q    Type
REMARK                         _______ _______ _______ _____ _____    ______ ____
ROOT
ATOM      1  N   UNL     1      -1.191   1.870   0.018  0.00  0.00    -0.266 N 
ATOM      2  C   UNL     1      -0.015   1.211   0.016  0.00  0.00    +0.307 C 
ATOM      3  O   UNL     1       0.001  -0.005   0.005  0.00  0.00    -0.252 OA
ATOM      4  N   UNL     1       1.144   1.900   0.020  0.00  0.00    -0.274 N 
ATOM      5  H   UNL     1      -1.205   2.837   0.091  0.00  0.00    +0.156 HD
ENDROOT
BRANCH   1  11
ATOM      6  C   UNL     1      -3.470   1.702  -0.781  0.00  0.00    +0.141 A 
ATOM      7  C   UNL     1      -4.656   0.993  -0.881  0.00  0.00    +0.047 A 
ATOM      8  C   UNL     1      -4.769  -0.252  -0.291  0.00  0.00    +0.004 A 
ATOM      9  C   UNL     1      -3.700  -0.794   0.398  0.00  0.00    +0.002 A 
ATOM     10  C   UNL     1      -2.512  -0.095   0.498  0.00  0.00    +0.027 A 
ATOM     11  C   UNL     1      -2.393   1.157  -0.086  0.00  0.00    +0.077 A 
BRANCH   6  13
ATOM     12  C   UNL     1      -4.502   3.423  -2.058  0.00  0.00    +0.277 C 
ATOM     13  O   UNL     1      -3.357   2.927  -1.361  0.00  0.00    -0.493 OA
ENDBRANCH   6  13
ENDBRANCH   1  11
BRANCH   4  14
ATOM     14  C   UNL     1       1.124   3.365   0.033  0.00  0.00    +0.145 C 
BRANCH  14  15
ATOM     15  C   UNL     1       1.120   3.855   1.458  0.00  0.00    -0.030 A 
ATOM     16  C   UNL     1      -0.079   4.069   2.112  0.00  0.00    +0.005 A 
ATOM     17  C   UNL     1      -0.083   4.514   3.421  0.00  0.00    +0.000 A 
ATOM     18  C   UNL     1       1.113   4.753   4.072  0.00  0.00    +0.000 A 
ATOM     19  C   UNL     1       2.312   4.545   3.417  0.00  0.00    +0.000 A 
ATOM     20  C   UNL     1       2.315   4.095   2.110  0.00  0.00    +0.005 A 
ENDBRANCH  14  15
ENDBRANCH   4  14
BRANCH   4  21
ATOM     21  C   UNL     1       2.422   1.185   0.011  0.00  0.00    +0.183 C 
BRANCH  21  22
ATOM     22  C   UNL     1       2.858   0.952  -1.413  0.00  0.00    +0.129 A 
ATOM     23  N   UNL     1       4.027   0.305  -1.655  0.00  0.00    -0.309 N 
ATOM     24  H   UNL     1       4.566   0.003  -0.907  0.00  0.00    +0.170 HD
ATOM     25  C   UNL     1       4.451   0.072  -2.911  0.00  0.00    +0.260 A 
ATOM     26  O   UNL     1       5.501  -0.514  -3.112  0.00  0.00    -0.267 OA
ATOM     27  C   UNL     1       3.650   0.528  -4.008  0.00  0.00    +0.075 A 
ATOM     28  C   UNL     1       3.910   0.392  -5.441  0.00  0.00    -0.023 A 
ATOM     29  C   UNL     1       2.991   0.912  -6.282  0.00  0.00    -0.004 A 
ATOM     30  S   UNL     1       1.744   1.604  -5.229  0.00  0.00    -0.073 S 
ATOM     31  C   UNL     1       2.462   1.191  -3.659  0.00  0.00    +0.116 A 
ATOM     32  N   UNL     1       2.106   1.380  -2.392  0.00  0.00    -0.225 NA
ATOM     33  C   UNL     1       3.024   0.904  -7.779  0.00  0.00    +0.043 C 
ATOM     34  C   UNL     1       4.446   0.540  -8.231  0.00  0.00    +0.005 C 
ATOM     35  C   UNL     1       4.913  -0.686  -7.441  0.00  0.00    +0.005 C 
ATOM     36  C   UNL     1       5.157  -0.302  -5.981  0.00  0.00    +0.037 C 
ENDBRANCH  21  22
ENDBRANCH   4  21
TORSDOF 6
