REMARK  Name = ZINC16391769
REMARK  6 active torsions:
REMARK  status: ('A' for Active; 'I' for Inactive)
REMARK    1  A    between atoms: C_1  and  C_2
REMARK    2  A    between atoms: C_10  and  C_11
REMARK    3  A    between atoms: N_13  and  C_14
REMARK    4  A    between atoms: C_15  and  C_25
REMARK    5  A    between atoms: C_20  and  C_24
REMARK    6  A    between atoms: N_27  and  C_28
REMARK                            x       y       z     vdW  Elec       q    Type
REMARK                         _______ _______ _______ _____ _____    ______ ____
ROOT
ATOM      1  C   UNL     1      -1.987   0.931   4.197  0.00  0.00    +0.085 A 
ATOM      2  C   UNL     1      -2.408   1.324   2.934  0.00  0.00    +0.069 A 
ATOM      3  C   UNL     1      -3.546   2.224   2.855  0.00  0.00    -0.023 A 
ATOM      4  C   UNL     1      -4.085   2.575   4.043  0.00  0.00    -0.004 A 
ATOM      5  S   UNL     1      -3.096   1.742   5.253  0.00  0.00    -0.077 S 
ATOM      6  C   UNL     1      -5.258   3.478   4.271  0.00  0.00    +0.046 C 
ATOM      7  C   UNL     1      -6.003   3.648   2.939  0.00  0.00    -0.009 C 
ATOM      8  C   UNL     1      -4.985   3.973   1.842  0.00  0.00    +0.008 C 
ATOM      9  C   UNL     1      -4.129   2.740   1.546  0.00  0.00    +0.037 C 
ATOM     10  C   UNL     1      -7.012   4.793   3.058  0.00  0.00    +0.008 C 
ENDROOT
BRANCH   1  13
ATOM     11  C   UNL     1      -0.675  -0.175   5.827  0.00  0.00    +0.284 C 
ATOM     12  O   UNL     1      -1.364   0.317   6.702  0.00  0.00    -0.266 OA
ATOM     13  N   UNL     1      -0.936   0.095   4.533  0.00  0.00    -0.273 N 
ATOM     14  H   UNL     1      -0.387  -0.297   3.836  0.00  0.00    +0.156 HD
BRANCH  11  24
ATOM     15  C   UNL     1       0.141  -0.945   8.728  0.00  0.00    +0.048 C 
ATOM     16  C   UNL     1       0.798  -1.399   7.449  0.00  0.00    +0.008 A 
ATOM     17  C   UNL     1       1.946  -2.295   7.321  0.00  0.00    +0.025 A 
ATOM     18  C   UNL     1       2.758  -2.975   8.233  0.00  0.00    +0.032 A 
ATOM     19  C   UNL     1       3.786  -3.752   7.777  0.00  0.00    +0.042 A 
ATOM     20  C   UNL     1       4.028  -3.869   6.414  0.00  0.00    +0.023 A 
ATOM     21  C   UNL     1       3.238  -3.207   5.499  0.00  0.00    +0.048 A 
ATOM     22  C   UNL     1       2.187  -2.411   5.939  0.00  0.00    +0.136 A 
ATOM     23  O   UNL     1       1.268  -1.661   5.301  0.00  0.00    -0.450 OA
ATOM     24  C   UNL     1       0.440  -1.062   6.183  0.00  0.00    +0.194 A 
ATOM     25 CL   UNL     1       4.796  -4.597   8.908  0.00  0.00    -0.084 Cl
ENDBRANCH  11  24
ENDBRANCH   1  13
BRANCH   2  26
ATOM     26  C   UNL     1      -1.726   0.853   1.725  0.00  0.00    +0.247 C 
ATOM     27  O   UNL     1      -2.091  -0.172   1.180  0.00  0.00    -0.270 OA
ATOM     28  N   UNL     1      -0.695   1.556   1.216  0.00  0.00    -0.307 N 
ATOM     29  H   UNL     1      -0.404   2.373   1.650  0.00  0.00    +0.149 HD
BRANCH  28  30
ATOM     30  C   UNL     1      -0.013   1.086   0.008  0.00  0.00    +0.096 C 
ATOM     31  C   UNL     1      -0.767   1.593  -1.232  0.00  0.00    +0.046 C 
ATOM     32  C   UNL     1       0.134   1.355  -2.478  0.00  0.00    +0.168 C 
ATOM     33  S   UNL     1       1.780   1.828  -1.798  0.00  0.00    -0.029 S 
ATOM     34  O   UNL     1       2.014   3.204  -2.068  0.00  0.00    -0.174 OA
ATOM     35  O   UNL     1       2.742   0.864  -2.202  0.00  0.00    -0.174 OA
ATOM     36  C   UNL     1       1.440   1.619  -0.003  0.00  0.00    +0.188 C 
ENDBRANCH  28  30
ENDBRANCH   2  26
TORSDOF 4
