REMARK  Name = ZINC64811224
REMARK  3 active torsions:
REMARK  status: ('A' for Active; 'I' for Inactive)
REMARK    1  A    between atoms: C_11  and  C_13
REMARK    2  A    between atoms: C_13  and  C_14
REMARK    3  A    between atoms: C_14  and  C_15
REMARK                            x       y       z     vdW  Elec       q    Type
REMARK                         _______ _______ _______ _____ _____    ______ ____
ROOT
ATOM      1  C   UNL     1       7.447  -2.195  -0.087  0.00  0.00    +0.219 C 
ATOM      2  O   UNL     1       7.522  -3.405  -0.095  0.00  0.00    -0.275 OA
ATOM      3  N   UNL     1       8.571  -1.451  -0.094  0.00  0.00    -0.268 N 
ATOM      4  C   UNL     1       9.817  -2.072  -0.111  0.00  0.00    +0.163 A 
ATOM      5  C   UNL     1      10.986  -1.290  -0.113  0.00  0.00    +0.170 A 
ATOM      6  N   UNL     1      12.169  -1.858  -0.129  0.00  0.00    -0.230 NA
ATOM      7  C   UNL     1      12.266  -3.194  -0.142  0.00  0.00    +0.091 A 
ATOM      8  C   UNL     1      13.520  -3.827  -0.158  0.00  0.00    +0.030 A 
ATOM      9  C   UNL     1      13.590  -5.187  -0.172  0.00  0.00    +0.002 A 
ATOM     10  C   UNL     1      12.433  -5.963  -0.170  0.00  0.00    +0.002 A 
ATOM     11  C   UNL     1      11.202  -5.384  -0.155  0.00  0.00    +0.030 A 
ATOM     12  C   UNL     1      11.090  -3.983  -0.140  0.00  0.00    +0.091 A 
ATOM     13  N   UNL     1       9.891  -3.388  -0.119  0.00  0.00    -0.227 NA
ATOM     14 CL   UNL     1      10.864   0.442  -0.095  0.00  0.00    -0.058 Cl
ATOM     15  H   UNL     1       8.512  -0.483  -0.088  0.00  0.00    +0.156 HD
ENDROOT
BRANCH   1  16
ATOM     16  C   UNL     1       6.099  -1.523  -0.069  0.00  0.00    +0.104 C 
BRANCH  16  17
ATOM     17  C   UNL     1       4.999  -2.586  -0.063  0.00  0.00    +0.083 C 
BRANCH  17  28
ATOM     18  C   UNL     1      -0.017   1.373   0.010  0.00  0.00    +0.001 A 
ATOM     19  C   UNL     1       1.169   2.096   0.002  0.00  0.00    +0.002 A 
ATOM     20  C   UNL     1       2.387   1.453  -0.013  0.00  0.00    +0.028 A 
ATOM     21  C   UNL     1       2.432   0.058  -0.021  0.00  0.00    +0.078 A 
ATOM     22  C   UNL     1       1.224  -0.674  -0.013  0.00  0.00    +0.065 A 
ATOM     23  C   UNL     1       0.002  -0.004   0.002  0.00  0.00    +0.015 A 
ATOM     24  C   UNL     1       1.306  -2.142  -0.022  0.00  0.00    +0.259 A 
ATOM     25  O   UNL     1       0.302  -2.832  -0.017  0.00  0.00    -0.267 OA
ATOM     26  N   UNL     1       2.540  -2.697  -0.038  0.00  0.00    -0.310 N 
ATOM     27  H   UNL     1       2.633  -3.663  -0.045  0.00  0.00    +0.170 HD
ATOM     28  C   UNL     1       3.650  -1.914  -0.045  0.00  0.00    +0.111 A 
ATOM     29  N   UNL     1       3.609  -0.616  -0.037  0.00  0.00    -0.234 NA
ENDBRANCH  17  28
ENDBRANCH  16  17
ENDBRANCH   1  16
TORSDOF 3
