REMARK  Name = ZINC08265037
REMARK  2 active torsions:
REMARK  status: ('A' for Active; 'I' for Inactive)
REMARK    1  A    between atoms: C_6  and  C_7
REMARK    2  A    between atoms: C_13  and  C_15
REMARK                            x       y       z     vdW  Elec       q    Type
REMARK                         _______ _______ _______ _____ _____    ______ ____
ROOT
ATOM      1  C   UNL     1      -2.277   1.550   0.727  0.00  0.00    +0.107 C 
ATOM      2  C   UNL     1      -0.816   1.624   1.221  0.00  0.00    +0.029 C 
ATOM      3  C   UNL     1      -0.013   1.086   0.008  0.00  0.00    +0.021 C 
ATOM      4  C   UNL     1      -0.838   1.637  -1.182  0.00  0.00    +0.109 C 
ATOM      5  N   UNL     1      -2.242   1.544  -0.742  0.00  0.00    -0.290 N 
ATOM      6  C   UNL     1      -3.315   1.467  -1.554  0.00  0.00    +0.254 C 
ATOM      7  O   UNL     1      -4.434   1.394  -1.078  0.00  0.00    -0.269 OA
ENDROOT
BRANCH   1  13
ATOM      8  C   UNL     1      -2.914   3.963   0.568  0.00  0.00    +0.009 A 
ATOM      9  C   UNL     1      -3.616   5.071   1.011  0.00  0.00    +0.050 A 
ATOM     10  C   UNL     1      -4.452   4.958   2.109  0.00  0.00    +0.162 A 
ATOM     11  C   UNL     1      -4.584   3.740   2.760  0.00  0.00    +0.162 A 
ATOM     12  C   UNL     1      -3.885   2.633   2.311  0.00  0.00    +0.055 A 
ATOM     13  C   UNL     1      -3.046   2.750   1.216  0.00  0.00    -0.023 A 
ATOM     14  O   UNL     1      -5.410   3.640   3.842  0.00  0.00    -0.488 OA
ATOM     15  C   UNL     1      -6.808   3.767   3.575  0.00  0.00    +0.232 C 
ATOM     16  C   UNL     1      -7.218   5.231   3.537  0.00  0.00    +0.082 C 
ATOM     17  C   UNL     1      -6.567   5.986   2.389  0.00  0.00    +0.232 C 
ATOM     18  O   UNL     1      -5.149   6.042   2.558  0.00  0.00    -0.488 OA
ENDBRANCH   1  13
BRANCH   6  19
ATOM     19  C   UNL     1      -3.136   1.471  -3.008  0.00  0.00    +0.075 A 
ATOM     20  C   UNL     1      -4.096   1.401  -4.006  0.00  0.00    +0.022 A 
ATOM     21  C   UNL     1      -3.650   1.423  -5.304  0.00  0.00    +0.024 A 
ATOM     22  C   UNL     1      -2.314   1.512  -5.545  0.00  0.00    +0.056 A 
ATOM     23  S   UNL     1      -1.628   1.575  -3.955  0.00  0.00    -0.077 S 
ATOM     24 BR   UNL     1      -1.423   1.562  -7.212  0.00  0.00    -0.043 Br
ENDBRANCH   6  19
TORSDOF 2
