REMARK  Name = ZINC16213245
REMARK  6 active torsions:
REMARK  status: ('A' for Active; 'I' for Inactive)
REMARK    1  A    between atoms: C_1  and  C_2
REMARK    2  A    between atoms: C_2  and  C_3
REMARK    3  A    between atoms: C_6  and  N_9
REMARK    4  A    between atoms: C_19  and  S_20
REMARK    5  A    between atoms: S_20  and  C_21
REMARK    6  A    between atoms: C_21  and  C_22
REMARK                            x       y       z     vdW  Elec       q    Type
REMARK                         _______ _______ _______ _____ _____    ______ ____
ROOT
ATOM      1  N   UNL     1      -5.327   1.250   0.034  0.00  0.00    -0.255 N 
ATOM      2  C   UNL     1      -6.330   2.019  -0.452  0.00  0.00    +0.267 A 
ATOM      3  O   UNL     1      -7.347   1.521  -0.897  0.00  0.00    -0.267 OA
ATOM      4  C   UNL     1      -6.145   3.475  -0.421  0.00  0.00    +0.065 A 
ATOM      5  C   UNL     1      -7.119   4.352  -0.897  0.00  0.00    +0.015 A 
ATOM      6  C   UNL     1      -6.897   5.700  -0.845  0.00  0.00    +0.001 A 
ATOM      7  C   UNL     1      -5.712   6.204  -0.323  0.00  0.00    +0.002 A 
ATOM      8  C   UNL     1      -4.740   5.368   0.150  0.00  0.00    +0.028 A 
ATOM      9  C   UNL     1      -4.938   3.985   0.110  0.00  0.00    +0.079 A 
ATOM     10  N   UNL     1      -4.005   3.121   0.573  0.00  0.00    -0.223 NA
ATOM     11  C   UNL     1      -4.190   1.825   0.531  0.00  0.00    +0.177 A 
ENDROOT
BRANCH   1  15
ATOM     12  C   UNL     1      -5.709  -2.900   0.012  0.00  0.00    -0.047 A 
ATOM     13  C   UNL     1      -6.144  -2.173   1.105  0.00  0.00    +0.005 A 
ATOM     14  C   UNL     1      -6.019  -0.797   1.115  0.00  0.00    +0.026 A 
ATOM     15  C   UNL     1      -5.455  -0.145   0.027  0.00  0.00    +0.052 A 
ATOM     16  C   UNL     1      -5.023  -0.878  -1.071  0.00  0.00    +0.026 A 
ATOM     17  C   UNL     1      -5.146  -2.253  -1.073  0.00  0.00    +0.005 A 
BRANCH  12  19
ATOM     18  C   UNL     1      -7.198  -4.786  -0.600  0.00  0.00    +0.009 C 
ATOM     19  C   UNL     1      -5.846  -4.401   0.005  0.00  0.00    +0.032 C 
ENDBRANCH  12  19
ENDBRANCH   1  15
BRANCH  11  20
ATOM     20  S   UNL     1      -2.918   0.773   1.149  0.00  0.00    -0.079 S 
BRANCH  20  21
ATOM     21  C   UNL     1      -1.703   2.015   1.657  0.00  0.00    +0.151 C 
BRANCH  21  22
ATOM     22  C   UNL     1      -0.493   1.327   2.233  0.00  0.00    +0.121 A 
ATOM     23  N   UNL     1       0.539   2.095   2.669  0.00  0.00    -0.310 N 
ATOM     24  H   UNL     1       0.479   3.062   2.606  0.00  0.00    +0.170 HD
ATOM     25  C   UNL     1       1.651   1.526   3.190  0.00  0.00    +0.259 A 
ATOM     26  O   UNL     1       2.583   2.202   3.584  0.00  0.00    -0.267 OA
ATOM     27  C   UNL     1       1.689   0.057   3.261  0.00  0.00    +0.066 A 
ATOM     28  C   UNL     1       2.786  -0.627   3.780  0.00  0.00    +0.035 A 
ATOM     29  C   UNL     1       2.769  -2.005   3.823  0.00  0.00    +0.042 A 
ATOM     30  C   UNL     1       1.668  -2.712   3.355  0.00  0.00    +0.022 A 
ATOM     31  C   UNL     1       0.575  -2.054   2.838  0.00  0.00    +0.030 A 
ATOM     32  C   UNL     1       0.569  -0.659   2.784  0.00  0.00    +0.078 A 
ATOM     33  N   UNL     1      -0.487   0.029   2.283  0.00  0.00    -0.233 NA
ATOM     34 CL   UNL     1       4.133  -2.863   4.468  0.00  0.00    -0.084 Cl
ENDBRANCH  21  22
ENDBRANCH  20  21
ENDBRANCH  11  20
TORSDOF 5
