REMARK  Name = ZINC15020101
REMARK  7 active torsions:
REMARK  status: ('A' for Active; 'I' for Inactive)
REMARK    1  A    between atoms: C_1  and  N_2
REMARK    2  A    between atoms: C_4  and  C_11
REMARK    3  A    between atoms: C_12  and  C_18
REMARK    4  A    between atoms: C_29  and  C_32
REMARK    5  A    between atoms: C_32  and  N_62
REMARK    6  A    between atoms: C_33  and  N_62
REMARK    7  A    between atoms: C_34  and  N_62
REMARK                            x       y       z     vdW  Elec       q    Type
REMARK                         _______ _______ _______ _____ _____    ______ ____
ROOT
ATOM      1  C   UNL     1      -4.837   8.391   9.010  0.00  0.00    +0.059 C 
ATOM      2  C   UNL     1      -5.090   7.256   8.249  0.00  0.00    +0.057 C 
ATOM      3  C   UNL     1      -6.545   7.238   8.010  0.00  0.00    +0.252 C 
ATOM      4  O   UNL     1      -7.149   6.391   7.382  0.00  0.00    -0.270 OA
ATOM      5  N   UNL     1      -7.094   8.313   8.601  0.00  0.00    -0.248 N 
ATOM      6  C   UNL     1      -6.149   9.049   9.212  0.00  0.00    +0.252 C 
ATOM      7  O   UNL     1      -6.340  10.077   9.829  0.00  0.00    -0.270 OA
ATOM      8  H   UNL     1      -8.040   8.528   8.589  0.00  0.00    +0.158 HD
ENDROOT
BRANCH   2   9
ATOM      9  C   UNL     1      -4.103   6.265   7.779  0.00  0.00    -0.010 A 
ATOM     10  C   UNL     1      -3.415   5.492   8.722  0.00  0.00    +0.009 A 
ATOM     11  C   UNL     1      -2.487   4.556   8.352  0.00  0.00    +0.010 A 
ATOM     12  C   UNL     1      -2.251   4.402   6.980  0.00  0.00    +0.000 A 
ATOM     13  C   UNL     1      -1.361   3.530   6.236  0.00  0.00    +0.031 A 
ATOM     14  C   UNL     1      -1.544   3.804   4.931  0.00  0.00    +0.020 A 
ATOM     15  N   UNL     1      -2.490   4.794   4.783  0.00  0.00    -0.344 N 
ATOM     16  C   UNL     1      -2.940   5.180   6.013  0.00  0.00    +0.050 A 
ATOM     17  C   UNL     1      -3.880   6.126   6.404  0.00  0.00    +0.035 A 
ATOM     18  C   UNL     1      -2.919   5.328   3.482  0.00  0.00    +0.122 C 
ATOM     19  C   UNL     1      -1.881   4.951   2.422  0.00  0.00    +0.023 C 
ATOM     20  C   UNL     1      -1.603   3.446   2.490  0.00  0.00    -0.020 C 
ATOM     21  C   UNL     1      -0.831   3.135   3.778  0.00  0.00    +0.055 C 
BRANCH  20  22
ATOM     22  C   UNL     1      -0.768   3.025   1.279  0.00  0.00    -0.076 C 
BRANCH  22  25
ATOM     23  C   UNL     1      -1.840   0.899   0.840  0.00  0.00    -0.097 C 
ATOM     24  C   UNL     1       0.534   1.161   0.447  0.00  0.00    -0.097 C 
ATOM     25  N   UNL     1      -0.601   1.557   1.306  0.00  0.00    +0.376 N 
ATOM     26  H   UNL     1      -0.409   1.261   2.270  0.00  0.00    -0.083 HD
ENDBRANCH  22  25
ENDBRANCH  20  22
ENDBRANCH   2   9
BRANCH   1  30
ATOM     27  C   UNL     1      -0.240  10.355   9.155  0.00  0.00    +0.149 C 
ATOM     28  N   UNL     1      -1.485   9.719   9.593  0.00  0.00    -0.349 N 
ATOM     29  C   UNL     1      -2.539   9.439   8.784  0.00  0.00    +0.095 A 
ATOM     30  C   UNL     1      -3.533   8.847   9.511  0.00  0.00    +0.013 A 
ATOM     31  C   UNL     1      -3.042   8.761  10.898  0.00  0.00    +0.008 A 
ATOM     32  C   UNL     1      -1.752   9.317  10.886  0.00  0.00    +0.049 A 
ATOM     33  C   UNL     1      -1.022   9.373  12.069  0.00  0.00    +0.026 A 
ATOM     34  C   UNL     1      -1.565   8.880  13.236  0.00  0.00    +0.002 A 
ATOM     35  C   UNL     1      -2.837   8.326  13.245  0.00  0.00    +0.001 A 
ATOM     36  C   UNL     1      -3.575   8.261  12.083  0.00  0.00    +0.010 A 
ENDBRANCH   1  30
TORSDOF 4
