REMARK  Name = ZINC35397564
REMARK  6 active torsions:
REMARK  status: ('A' for Active; 'I' for Inactive)
REMARK    1  A    between atoms: C_1  and  C_2
REMARK    2  A    between atoms: C_6  and  S_8
REMARK    3  A    between atoms: S_8  and  N_11
REMARK    4  A    between atoms: N_11  and  C_12
REMARK    5  A    between atoms: C_14  and  C_30
REMARK    6  A    between atoms: C_21  and  N_24
REMARK                            x       y       z     vdW  Elec       q    Type
REMARK                         _______ _______ _______ _____ _____    ______ ____
ROOT
ATOM      1  C   UNL     1       2.002  -3.746   4.386  0.00  0.00    +0.091 A 
ATOM      2  C   UNL     1       2.097  -3.181   5.651  0.00  0.00    +0.046 A 
ATOM      3  C   UNL     1       2.354  -4.027   6.738  0.00  0.00    +0.103 A 
ATOM      4  C   UNL     1       2.504  -5.405   6.504  0.00  0.00    +0.113 A 
ATOM      5  N   UNL     1       2.405  -5.893   5.278  0.00  0.00    -0.347 N 
ATOM      6  C   UNL     1       2.158  -5.119   4.239  0.00  0.00    +0.110 A 
ATOM      7  N   UNL     1       2.759  -6.258   7.564  0.00  0.00    -0.316 N 
ATOM      8  C   UNL     1       4.134  -6.480   8.032  0.00  0.00    +0.105 C 
ATOM      9  C   UNL     1       4.412  -7.987   8.048  0.00  0.00    +0.004 C 
ATOM     10  C   UNL     1       3.341  -8.690   8.886  0.00  0.00    -0.066 C 
ATOM     11  C   UNL     1       1.966  -8.460   8.256  0.00  0.00    +0.004 C 
ATOM     12  C   UNL     1       1.659  -6.954   8.245  0.00  0.00    +0.105 C 
ATOM     13  H   UNL     1       2.512  -6.847   5.140  0.00  0.00    +0.167 HD
ENDROOT
BRANCH  10  14
ATOM     14  N   UNL     1       3.624 -10.131   8.931  0.00  0.00    +0.382 N 
ATOM     15  C   UNL     1       2.591 -10.806   9.726  0.00  0.00    -0.078 C 
ATOM     16  C   UNL     1       2.835 -12.316   9.710  0.00  0.00    -0.019 C 
ATOM     17  C   UNL     1       4.215 -12.612  10.305  0.00  0.00    -0.004 C 
ATOM     18  C   UNL     1       5.277 -11.844   9.512  0.00  0.00    -0.019 C 
ATOM     19  C   UNL     1       4.942 -10.351   9.537  0.00  0.00    -0.078 C 
ATOM     20  H   UNL     1       3.619 -10.503   7.993  0.00  0.00    -0.081 HD
ENDBRANCH  10  14
BRANCH   3  21
ATOM     21  C   UNL     1       2.465  -3.482   8.100  0.00  0.00    +0.390 C 
ATOM     22  O   UNL     1       2.439  -2.272   8.279  0.00  0.00    -0.240 OA
ATOM     23  O   UNL     1       2.584  -4.239   9.053  0.00  0.00    -0.240 OA
ENDBRANCH   3  21
BRANCH   1  24
ATOM     24  N   UNL     1       1.746  -2.940   3.269  0.00  0.00    -0.096 NA
BRANCH  24  25
ATOM     25  S   UNL     1       1.628  -3.622   1.765  0.00  0.00    +0.092 S 
ATOM     26  O   UNL     1       0.468  -4.443   1.782  0.00  0.00    -0.148 OA
ATOM     27  O   UNL     1       2.917  -4.130   1.447  0.00  0.00    -0.148 OA
BRANCH  25  33
ATOM     28  C   UNL     1      -1.671  -0.542  -0.870  0.00  0.00    +0.044 C 
ATOM     29  C   UNL     1      -0.251  -0.935  -0.557  0.00  0.00    -0.049 A 
ATOM     30  C   UNL     1       0.800  -0.273  -1.165  0.00  0.00    +0.003 A 
ATOM     31  C   UNL     1       2.103  -0.633  -0.878  0.00  0.00    +0.002 A 
ATOM     32  C   UNL     1       2.356  -1.656   0.017  0.00  0.00    +0.029 A 
ATOM     33  C   UNL     1       1.306  -2.318   0.625  0.00  0.00    +0.111 A 
ATOM     34  C   UNL     1       0.002  -1.955   0.341  0.00  0.00    +0.032 A 
ENDBRANCH  25  33
ENDBRANCH  24  25
ENDBRANCH   1  24
TORSDOF 5
