REMARK  Name = ZINC37447449
REMARK  6 active torsions:
REMARK  status: ('A' for Active; 'I' for Inactive)
REMARK    1  A    between atoms: C_1  and  O_2
REMARK    2  A    between atoms: O_2  and  C_3
REMARK    3  A    between atoms: C_5  and  O_32
REMARK    4  A    between atoms: C_8  and  N_9
REMARK    5  A    between atoms: C_10  and  C_12
REMARK    6  A    between atoms: O_32  and  C_33
REMARK                            x       y       z     vdW  Elec       q    Type
REMARK                         _______ _______ _______ _____ _____    ______ ____
ROOT
ATOM      1  C   UNL     1      -0.558  -4.766  -1.042  0.00  0.00    +0.111 C 
ATOM      2  C   UNL     1       0.189  -4.508  -2.380  0.00  0.00    +0.035 C 
ATOM      3  C   UNL     1      -0.163  -5.788  -3.174  0.00  0.00    +0.069 C 
ATOM      4  C   UNL     1       0.822  -5.968  -4.341  0.00  0.00    +0.089 C 
ATOM      5  S   UNL     1       1.676  -7.534  -3.874  0.00  0.00    -0.144 S 
ATOM      6  C   UNL     1       1.190  -7.543  -2.093  0.00  0.00    +0.155 C 
ATOM      7  N   UNL     1      -0.132  -6.877  -2.181  0.00  0.00    -0.272 NA
ATOM      8  C   UNL     1      -0.433  -6.287  -0.862  0.00  0.00    +0.138 C 
ATOM      9  C   UNL     1       0.635  -6.624   0.142  0.00  0.00    +0.004 A 
ATOM     10  C   UNL     1       1.990  -6.382   0.198  0.00  0.00    +0.008 A 
ATOM     11  C   UNL     1       2.727  -6.826   1.281  0.00  0.00    +0.000 A 
ATOM     12  C   UNL     1       2.101  -7.512   2.306  0.00  0.00    +0.002 A 
ATOM     13  C   UNL     1       0.745  -7.757   2.253  0.00  0.00    +0.023 A 
ATOM     14  C   UNL     1      -0.005  -7.314   1.166  0.00  0.00    +0.039 A 
ATOM     15  N   UNL     1      -1.368  -7.437   0.887  0.00  0.00    -0.283 N 
ATOM     16  C   UNL     1      -1.700  -6.862  -0.284  0.00  0.00    +0.243 C 
ATOM     17  O   UNL     1      -2.807  -6.816  -0.779  0.00  0.00    -0.273 OA
ATOM     18  H   UNL     1      -2.002  -7.884   1.469  0.00  0.00    +0.155 HD
ENDROOT
BRANCH   1  20
ATOM     19  N   UNL     1      -0.557  -3.814   1.241  0.00  0.00    -0.282 N 
ATOM     20  C   UNL     1       0.114  -4.038   0.093  0.00  0.00    +0.223 C 
ATOM     21  O   UNL     1       1.258  -3.653  -0.025  0.00  0.00    -0.275 OA
ATOM     22  H   UNL     1      -1.442  -4.191   1.367  0.00  0.00    +0.155 HD
BRANCH  19  28
ATOM     23  C   UNL     1      -0.374  -3.204   3.577  0.00  0.00    +0.145 A 
ATOM     24  C   UNL     1       0.207  -2.439   4.576  0.00  0.00    +0.094 A 
ATOM     25  C   UNL     1       1.181  -1.505   4.255  0.00  0.00    +0.142 A 
ATOM     26  C   UNL     1       1.574  -1.336   2.934  0.00  0.00    +0.084 A 
ATOM     27  C   UNL     1       0.996  -2.098   1.936  0.00  0.00    +0.050 A 
ATOM     28  C   UNL     1       0.026  -3.037   2.253  0.00  0.00    +0.077 A 
ATOM     29 CL   UNL     1       2.793  -0.165   2.536  0.00  0.00    -0.080 Cl
BRANCH  23  31
ATOM     30  C   UNL     1      -1.688  -4.237   5.268  0.00  0.00    +0.277 C 
ATOM     31  O   UNL     1      -1.328  -4.120   3.890  0.00  0.00    -0.493 OA
ENDBRANCH  23  31
BRANCH  25  32
ATOM     32  O   UNL     1       1.750  -0.754   5.235  0.00  0.00    -0.494 OA
ATOM     33  C   UNL     1       1.297  -0.980   6.572  0.00  0.00    +0.277 C 
ENDBRANCH  25  32
ENDBRANCH  19  28
ENDBRANCH   1  20
TORSDOF 4
