REMARK  Name = ZINC10149482
REMARK  11 active torsions:
REMARK  status: ('A' for Active; 'I' for Inactive)
REMARK    1  A    between atoms: C_1  and  C_2
REMARK    2  A    between atoms: C_2  and  C_3
REMARK    3  A    between atoms: C_4  and  C_27
REMARK    4  A    between atoms: C_6  and  N_11
REMARK    5  A    between atoms: C_7  and  C_8
REMARK    6  A    between atoms: C_12  and  C_14
REMARK    7  A    between atoms: C_14  and  C_16
REMARK    8  A    between atoms: C_14  and  O_17
REMARK    9  A    between atoms: O_17  and  C_18
REMARK   10  A    between atoms: C_19  and  C_26
REMARK   11  A    between atoms: C_23  and  C_24
REMARK                            x       y       z     vdW  Elec       q    Type
REMARK                         _______ _______ _______ _____ _____    ______ ____
ROOT
ATOM      1  N   UNL     1      -6.031   4.042  -1.179  0.00  0.00    -0.276 N 
ATOM      2  C   UNL     1      -5.104   3.999  -0.202  0.00  0.00    +0.258 C 
ATOM      3  O   UNL     1      -5.449   3.943   0.960  0.00  0.00    -0.271 OA
ATOM      4  H   UNL     1      -5.755   4.087  -2.108  0.00  0.00    +0.155 HD
ENDROOT
BRANCH   1   8
ATOM      5  C   UNL     1      -9.779   4.025  -1.103  0.00  0.00    -0.024 A 
ATOM      6  C   UNL     1      -9.827   3.961   0.240  0.00  0.00    -0.008 A 
ATOM      7  S   UNL     1      -8.110   3.938   0.711  0.00  0.00    -0.078 S 
ATOM      8  C   UNL     1      -7.380   4.022  -0.857  0.00  0.00    +0.084 A 
ATOM      9  C   UNL     1      -8.473   4.059  -1.715  0.00  0.00    +0.068 A 
ATOM     10  C   UNL     1     -11.041   3.913   1.131  0.00  0.00    +0.052 C 
BRANCH   9  11
ATOM     11  C   UNL     1      -8.306   4.129  -3.170  0.00  0.00    +0.244 C 
ATOM     12  O   UNL     1      -8.234   3.106  -3.824  0.00  0.00    -0.270 OA
ATOM     13  N   UNL     1      -8.234   5.328  -3.783  0.00  0.00    -0.325 N 
ATOM     14  H   UNL     1      -8.292   6.143  -3.261  0.00  0.00    +0.145 HD
ATOM     15  H   UNL     1      -8.124   5.374  -4.745  0.00  0.00    +0.145 HD
ENDBRANCH   9  11
BRANCH   5  17
ATOM     16  C   UNL     1     -11.457   2.631  -2.283  0.00  0.00    +0.009 C 
ATOM     17  C   UNL     1     -11.037   4.060  -1.933  0.00  0.00    +0.033 C 
ENDBRANCH   5  17
ENDBRANCH   1   8
BRANCH   2  18
ATOM     18  C   UNL     1      -3.638   4.021  -0.552  0.00  0.00    +0.256 C 
ATOM     19  C   UNL     1      -3.289   5.361  -1.200  0.00  0.00    +0.062 C 
BRANCH  18  20
ATOM     20  O   UNL     1      -2.862   3.849   0.636  0.00  0.00    -0.479 OA
BRANCH  20  21
ATOM     21  C   UNL     1      -1.679   3.193   0.511  0.00  0.00    +0.127 A 
ATOM     22  C   UNL     1      -0.503   3.909   0.340  0.00  0.00    -0.007 A 
ATOM     23  C   UNL     1       0.699   3.240   0.207  0.00  0.00    +0.022 A 
ATOM     24  C   UNL     1       0.731   1.858   0.256  0.00  0.00    +0.019 A 
ATOM     25  C   UNL     1      -0.440   1.142   0.431  0.00  0.00    +0.022 A 
ATOM     26  C   UNL     1      -1.644   1.807   0.559  0.00  0.00    -0.007 A 
ATOM     27  C   UNL     1      -2.920   1.028   0.751  0.00  0.00    +0.047 C 
ATOM     28 BR   UNL     1       2.378   0.945   0.082  0.00  0.00    -0.050 Br
ATOM     29  C   UNL     1      -0.536   5.415   0.293  0.00  0.00    +0.047 C 
ENDBRANCH  20  21
ENDBRANCH  18  20
ENDBRANCH   2  18
TORSDOF 6
