REMARK  Name = ZINC43333975
REMARK  5 active torsions:
REMARK  status: ('A' for Active; 'I' for Inactive)
REMARK    1  A    between atoms: C_4  and  C_7
REMARK    2  A    between atoms: C_7  and  C_8
REMARK    3  A    between atoms: C_13  and  N_14
REMARK    4  A    between atoms: C_20  and  C_23
REMARK    5  A    between atoms: C_23  and  C_25
REMARK                            x       y       z     vdW  Elec       q    Type
REMARK                         _______ _______ _______ _____ _____    ______ ____
ROOT
ATOM      1  N   UNL     1       2.809  -2.958   1.452  0.00  0.00    -0.269 N 
ATOM      2  C   UNL     1       2.448  -4.094   2.081  0.00  0.00    +0.306 C 
ATOM      3  O   UNL     1       2.820  -4.303   3.220  0.00  0.00    -0.252 OA
ATOM      4  N   UNL     1       1.676  -4.999   1.448  0.00  0.00    -0.285 N 
ATOM      5  C   UNL     1       1.322  -4.822   0.033  0.00  0.00    +0.110 C 
ATOM      6  C   UNL     1       1.707  -6.091  -0.734  0.00  0.00    +0.030 C 
ATOM      7  C   UNL     1       1.050  -7.303  -0.070  0.00  0.00    +0.063 C 
ATOM      8  C   UNL     1       1.557  -7.435   1.368  0.00  0.00    +0.030 C 
ATOM      9  C   UNL     1       1.176  -6.184   2.158  0.00  0.00    +0.110 C 
ATOM     10  H   UNL     1       2.458  -2.760   0.570  0.00  0.00    +0.156 HD
ENDROOT
BRANCH   1  16
ATOM     11  C   UNL     1       4.464  -1.206   1.305  0.00  0.00    -0.022 A 
ATOM     12  C   UNL     1       5.328  -0.321   1.920  0.00  0.00    +0.006 A 
ATOM     13  C   UNL     1       5.426  -0.293   3.299  0.00  0.00    +0.000 A 
ATOM     14  C   UNL     1       4.660  -1.152   4.066  0.00  0.00    +0.002 A 
ATOM     15  C   UNL     1       3.795  -2.039   3.457  0.00  0.00    +0.023 A 
ATOM     16  C   UNL     1       3.690  -2.064   2.072  0.00  0.00    +0.038 A 
BRANCH  11  17
ATOM     17  C   UNL     1       4.359  -1.234  -0.198  0.00  0.00    +0.072 C 
BRANCH  17  21
ATOM     18  C   UNL     1       1.110   1.243  -1.447  0.00  0.00    +0.000 A 
ATOM     19  C   UNL     1       2.377   1.779  -1.314  0.00  0.00    +0.000 A 
ATOM     20  C   UNL     1       3.428   0.978  -0.910  0.00  0.00    +0.004 A 
ATOM     21  C   UNL     1       3.212  -0.360  -0.638  0.00  0.00    -0.043 A 
ATOM     22  C   UNL     1       1.945  -0.897  -0.770  0.00  0.00    +0.004 A 
ATOM     23  C   UNL     1       0.894  -0.096  -1.175  0.00  0.00    +0.000 A 
ENDBRANCH  17  21
ENDBRANCH  11  17
ENDBRANCH   1  16
BRANCH   7  24
ATOM     24  C   UNL     1       1.399  -8.549  -0.842  0.00  0.00    +0.166 C 
ATOM     25  O   UNL     1       2.454  -8.619  -1.436  0.00  0.00    -0.292 OA
BRANCH  24  26
ATOM     26  C   UNL     1       0.460  -9.681  -0.874  0.00  0.00    +0.018 A 
ATOM     27  C   UNL     1      -0.760  -9.602  -0.194  0.00  0.00    +0.011 A 
ATOM     28  C   UNL     1      -1.635 -10.668  -0.230  0.00  0.00    +0.001 A 
ATOM     29  C   UNL     1      -1.309 -11.813  -0.936  0.00  0.00    +0.000 A 
ATOM     30  C   UNL     1      -0.104 -11.899  -1.610  0.00  0.00    +0.001 A 
ATOM     31  C   UNL     1       0.780 -10.840  -1.589  0.00  0.00    +0.011 A 
ENDBRANCH  24  26
ENDBRANCH   7  24
TORSDOF 5
