REMARK  Name = ZINC39887661
REMARK  7 active torsions:
REMARK  status: ('A' for Active; 'I' for Inactive)
REMARK    1  A    between atoms: C_1  and  C_2
REMARK    2  A    between atoms: C_2  and  O_3
REMARK    3  A    between atoms: O_3  and  C_4
REMARK    4  A    between atoms: C_7  and  N_10
REMARK    5  A    between atoms: C_11  and  C_21
REMARK    6  A    between atoms: C_16  and  C_19
REMARK    7  A    between atoms: C_27  and  C_30
REMARK                            x       y       z     vdW  Elec       q    Type
REMARK                         _______ _______ _______ _____ _____    ______ ____
ROOT
ATOM      1  N   UNL     1       0.989  -6.170  -1.621  0.00  0.00    -0.270 N 
ATOM      2  C   UNL     1       1.609  -6.684  -2.847  0.00  0.00    +0.197 C 
ATOM      3  N   UNL     1       2.536  -7.768  -2.515  0.00  0.00    -0.288 N 
ATOM      4  C   UNL     1       2.311  -8.561  -1.449  0.00  0.00    +0.258 C 
ATOM      5  O   UNL     1       3.064  -9.487  -1.204  0.00  0.00    -0.269 OA
ATOM      6  C   UNL     1       1.155  -8.304  -0.587  0.00  0.00    +0.142 C 
ATOM      7  C   UNL     1       0.509  -7.064  -0.698  0.00  0.00    +0.103 C 
ATOM      8  S   UNL     1      -0.877  -6.670   0.316  0.00  0.00    -0.033 SA
ATOM      9  H   UNL     1       3.320  -7.917  -3.068  0.00  0.00    +0.151 HD
ENDROOT
BRANCH   2  10
ATOM     10  C   UNL     1       0.538  -7.207  -3.769  0.00  0.00    -0.008 A 
ATOM     11  C   UNL     1      -0.730  -6.624  -3.738  0.00  0.00    +0.009 A 
ATOM     12  C   UNL     1      -1.734  -7.051  -4.544  0.00  0.00    +0.032 A 
ATOM     13  C   UNL     1      -1.499  -8.115  -5.445  0.00  0.00    +0.114 A 
ATOM     14  C   UNL     1      -0.161  -8.728  -5.476  0.00  0.00    +0.049 A 
ATOM     15  C   UNL     1       0.834  -8.229  -4.614  0.00  0.00    +0.021 A 
ATOM     16  C   UNL     1      -0.208  -9.735  -6.437  0.00  0.00    +0.175 A 
ATOM     17  O   UNL     1      -1.446  -9.750  -6.953  0.00  0.00    -0.353 OA
ATOM     18  N   UNL     1      -2.233  -8.750  -6.336  0.00  0.00    -0.078 NA
BRANCH  16  19
ATOM     19  C   UNL     1       0.903 -10.624  -6.819  0.00  0.00    +0.021 A 
ATOM     20  C   UNL     1       1.193 -10.846  -8.169  0.00  0.00    +0.013 A 
ATOM     21  C   UNL     1       2.234 -11.679  -8.519  0.00  0.00    +0.021 A 
ATOM     22  C   UNL     1       2.993 -12.295  -7.537  0.00  0.00    +0.041 A 
ATOM     23  C   UNL     1       2.711 -12.080  -6.198  0.00  0.00    +0.021 A 
ATOM     24  C   UNL     1       1.676 -11.245  -5.834  0.00  0.00    +0.013 A 
ATOM     25 CL   UNL     1       4.302 -13.343  -7.988  0.00  0.00    -0.084 Cl
ENDBRANCH  16  19
ENDBRANCH   2  10
BRANCH   1  29
ATOM     26  C   UNL     1       0.705  -2.065  -0.951  0.00  0.00    +0.121 A 
ATOM     27  C   UNL     1       1.949  -2.679  -0.976  0.00  0.00    +0.047 A 
ATOM     28  C   UNL     1       2.044  -4.039  -1.198  0.00  0.00    +0.027 A 
ATOM     29  C   UNL     1       0.894  -4.792  -1.396  0.00  0.00    +0.037 A 
ATOM     30  C   UNL     1      -0.351  -4.176  -1.369  0.00  0.00    +0.027 A 
ATOM     31  C   UNL     1      -0.445  -2.818  -1.142  0.00  0.00    +0.047 A 
BRANCH  26  32
ATOM     32  O   UNL     1       0.613  -0.726  -0.732  0.00  0.00    -0.492 OA
BRANCH  32  34
ATOM     33  C   UNL     1       1.534   1.468  -0.313  0.00  0.00    +0.048 C 
ATOM     34  C   UNL     1       1.837  -0.014  -0.543  0.00  0.00    +0.225 C 
ENDBRANCH  32  34
ENDBRANCH  26  32
ENDBRANCH   1  29
BRANCH   6  35
ATOM     35  C   UNL     1       0.701  -9.289   0.348  0.00  0.00    +0.107 C 
ATOM     36  N   UNL     1       0.341 -10.071   1.089  0.00  0.00    -0.191 NA
ENDBRANCH   6  35
TORSDOF 6
