REMARK  Name = ZINC60344224
REMARK  7 active torsions:
REMARK  status: ('A' for Active; 'I' for Inactive)
REMARK    1  A    between atoms: C_9  and  C_12
REMARK    2  A    between atoms: C_10  and  O_11
REMARK    3  A    between atoms: C_18  and  C_20
REMARK    4  A    between atoms: N_22  and  C_23
REMARK    5  A    between atoms: C_23  and  C_24
REMARK    6  A    between atoms: C_24  and  C_25
REMARK    7  A    between atoms: C_25  and  N_26
REMARK                            x       y       z     vdW  Elec       q    Type
REMARK                         _______ _______ _______ _____ _____    ______ ____
ROOT
ATOM      1  C   UNL     1       4.969  -2.729  -0.058  0.00  0.00    +0.251 C 
ATOM      2  O   UNL     1       6.011  -2.112  -0.159  0.00  0.00    -0.270 OA
ATOM      3  N   UNL     1       4.989  -4.074   0.037  0.00  0.00    -0.286 N 
ATOM      4  C   UNL     1       3.804  -4.952   0.051  0.00  0.00    +0.109 C 
ATOM      5  C   UNL     1       4.323  -6.324  -0.447  0.00  0.00    +0.021 C 
ATOM      6  C   UNL     1       5.731  -6.378   0.201  0.00  0.00    +0.033 C 
ATOM      7  C   UNL     1       6.195  -4.908   0.139  0.00  0.00    +0.162 C 
ENDROOT
BRANCH   1  16
ATOM      8  C   UNL     1      -0.166   1.110  -0.732  0.00  0.00    +0.001 A 
ATOM      9  C   UNL     1       0.854   1.571  -1.560  0.00  0.00    +0.001 A 
ATOM     10  C   UNL     1       2.057   0.934  -1.610  0.00  0.00    +0.012 A 
ATOM     11  C   UNL     1       2.275  -0.203  -0.816  0.00  0.00    +0.024 A 
ATOM     12  C   UNL     1       1.238  -0.673   0.027  0.00  0.00    -0.014 A 
ATOM     13  C   UNL     1       0.011   0.010   0.051  0.00  0.00    +0.008 A 
ATOM     14  C   UNL     1       1.450  -1.812   0.827  0.00  0.00    +0.009 A 
ATOM     15  C   UNL     1       2.641  -2.459   0.791  0.00  0.00    +0.017 A 
ATOM     16  C   UNL     1       3.684  -2.009  -0.039  0.00  0.00    +0.079 A 
ATOM     17  C   UNL     1       3.509  -0.885  -0.844  0.00  0.00    +0.137 A 
BRANCH  17  18
ATOM     18  O   UNL     1       4.512  -0.452  -1.643  0.00  0.00    -0.505 OA
ATOM     19  H   UNL     1       5.103   0.188  -1.222  0.00  0.00    +0.292 HD
ENDBRANCH  17  18
ENDBRANCH   1  16
BRANCH   7  20
ATOM     20  C   UNL     1       7.069  -4.694  -1.069  0.00  0.00    +0.234 C 
ATOM     21  O   UNL     1       6.725  -3.920  -1.938  0.00  0.00    -0.274 OA
ATOM     22  N   UNL     1       8.234  -5.362  -1.186  0.00  0.00    -0.314 N 
ATOM     23  H   UNL     1       8.509  -5.981  -0.491  0.00  0.00    +0.149 HD
BRANCH  22  24
ATOM     24  C   UNL     1       9.084  -5.154  -2.361  0.00  0.00    +0.102 C 
BRANCH  24  25
ATOM     25  C   UNL     1      10.336  -6.026  -2.245  0.00  0.00    +0.000 C 
BRANCH  25  26
ATOM     26  C   UNL     1      11.224  -5.809  -3.472  0.00  0.00    -0.077 C 
BRANCH  26  27
ATOM     27  N   UNL     1      12.426  -6.646  -3.361  0.00  0.00    +0.383 N 
ATOM     28  C   UNL     1      13.331  -6.359  -4.485  0.00  0.00    -0.074 C 
ATOM     29  C   UNL     1      14.689  -6.999  -4.193  0.00  0.00    +0.017 C 
ATOM     30  C   UNL     1      14.500  -8.446  -3.818  0.00  0.00    -0.048 A 
ATOM     31  C   UNL     1      15.600  -9.290  -3.851  0.00  0.00    +0.004 A 
ATOM     32  C   UNL     1      15.466 -10.622  -3.511  0.00  0.00    +0.000 A 
ATOM     33  C   UNL     1      14.230 -11.115  -3.136  0.00  0.00    +0.000 A 
ATOM     34  C   UNL     1      13.135 -10.276  -3.104  0.00  0.00    +0.002 A 
ATOM     35  C   UNL     1      13.267  -8.938  -3.446  0.00  0.00    -0.061 A 
ATOM     36  C   UNL     1      12.044  -8.060  -3.405  0.00  0.00    -0.043 C 
ATOM     37  H   UNL     1      12.894  -6.450  -2.490  0.00  0.00    -0.081 HD
ENDBRANCH  26  27
ENDBRANCH  25  26
ENDBRANCH  24  25
ENDBRANCH  22  24
ENDBRANCH   7  20
TORSDOF 7
