REMARK  Name = ZINC18956696
REMARK  4 active torsions:
REMARK  status: ('A' for Active; 'I' for Inactive)
REMARK    1  A    between atoms: C_1  and  C_2
REMARK    2  A    between atoms: C_2  and  C_4
REMARK    3  A    between atoms: C_2  and  S_15
REMARK    4  A    between atoms: S_15  and  C_16
REMARK                            x       y       z     vdW  Elec       q    Type
REMARK                         _______ _______ _______ _____ _____    ______ ____
ROOT
ATOM      1  C   UNL     1       0.025  -4.754   1.413  0.00  0.00    +0.029 C 
ATOM      2  C   UNL     1      -0.104  -4.234  -0.020  0.00  0.00    +0.137 C 
ENDROOT
BRANCH   2   3
ATOM      3  C   UNL     1      -0.072  -2.727  -0.012  0.00  0.00    +0.231 C 
ATOM      4  O   UNL     1      -1.110  -2.099   0.001  0.00  0.00    -0.274 OA
ATOM      5  N   UNL     1       1.108  -2.078  -0.020  0.00  0.00    -0.268 N 
ATOM      6  C   UNL     1       1.137  -0.683  -0.013  0.00  0.00    +0.143 A 
ATOM      7  C   UNL     1       2.360  -0.019  -0.021  0.00  0.00    +0.082 A 
ATOM      8  C   UNL     1       2.375   1.365  -0.014  0.00  0.00    +0.045 A 
ATOM      9  C   UNL     1       1.161   2.040   0.002  0.00  0.00    +0.061 A 
ATOM     10  C   UNL     1      -0.016   1.315   0.009  0.00  0.00    +0.133 A 
ATOM     11  N   UNL     1       0.002  -0.004   0.002  0.00  0.00    -0.237 NA
ATOM     12 CL   UNL     1       1.122   3.776   0.011  0.00  0.00    -0.082 Cl
ATOM     13 CL   UNL     1       3.848  -0.915  -0.040  0.00  0.00    -0.080 Cl
ATOM     14  H   UNL     1       1.938  -2.580  -0.030  0.00  0.00    +0.156 HD
ENDBRANCH   2   3
BRANCH   2  15
ATOM     15  S   UNL     1      -1.670  -4.801  -0.729  0.00  0.00    -0.075 S 
BRANCH  15  16
ATOM     16  C   UNL     1      -1.381  -6.539  -0.756  0.00  0.00    +0.168 A 
ATOM     17  N   UNL     1      -2.269  -7.476  -1.206  0.00  0.00    -0.333 N 
ATOM     18  H   UNL     1      -3.184  -7.299  -1.569  0.00  0.00    +0.168 HD
ATOM     19  C   UNL     1      -1.666  -8.715  -1.064  0.00  0.00    +0.068 A 
ATOM     20  C   UNL     1      -2.063 -10.014  -1.343  0.00  0.00    +0.047 A 
ATOM     21  C   UNL     1      -1.210 -11.065  -1.073  0.00  0.00    +0.043 A 
ATOM     22  C   UNL     1       0.043 -10.830  -0.524  0.00  0.00    +0.022 A 
ATOM     23  C   UNL     1       0.452  -9.546  -0.240  0.00  0.00    +0.031 A 
ATOM     24  C   UNL     1      -0.400  -8.472  -0.508  0.00  0.00    +0.090 A 
ATOM     25  N   UNL     1      -0.285  -7.127  -0.344  0.00  0.00    -0.222 NA
ATOM     26 CL   UNL     1      -1.707 -12.691  -1.423  0.00  0.00    -0.083 Cl
ENDBRANCH  15  16
ENDBRANCH   2  15
TORSDOF 3
