REMARK  Name = ZINC26862306
REMARK  5 active torsions:
REMARK  status: ('A' for Active; 'I' for Inactive)
REMARK    1  A    between atoms: C_4  and  C_7
REMARK    2  A    between atoms: C_7  and  C_8
REMARK    3  A    between atoms: N_10  and  N_11
REMARK    4  A    between atoms: C_12  and  C_14
REMARK    5  A    between atoms: C_15  and  C_16
REMARK                            x       y       z     vdW  Elec       q    Type
REMARK                         _______ _______ _______ _____ _____    ______ ____
ROOT
ATOM      1  N   UNL     1       0.062  -2.314   2.977  0.00  0.00    -0.231 N 
ATOM      2  C   UNL     1       0.082  -3.640   3.216  0.00  0.00    +0.253 C 
ATOM      3  O   UNL     1       0.084  -4.427   2.286  0.00  0.00    -0.269 OA
ATOM      4  H   UNL     1       0.060  -1.604   3.817  0.00  0.00    +0.173 HD
ENDROOT
BRANCH   1   7
ATOM      5  C   UNL     1       0.022  -0.514   1.420  0.00  0.00    +0.233 C 
ATOM      6  O   UNL     1       0.021   0.269   2.346  0.00  0.00    -0.274 OA
ATOM      7  N   UNL     1       0.043  -1.840   1.659  0.00  0.00    -0.234 N 
ATOM      8  H   UNL     1       0.044  -2.550   0.819  0.00  0.00    +0.173 HD
BRANCH   5   9
ATOM      9  C   UNL     1       0.002  -0.004   0.002  0.00  0.00    +0.132 C 
BRANCH   9  13
ATOM     10  C   UNL     1      -0.056   4.267   0.025  0.00  0.00    +0.000 A 
ATOM     11  C   UNL     1       1.151   3.592   0.010  0.00  0.00    +0.000 A 
ATOM     12  C   UNL     1       1.169   2.210   0.003  0.00  0.00    +0.004 A 
ATOM     13  C   UNL     1      -0.018   1.503   0.010  0.00  0.00    -0.039 A 
ATOM     14  C   UNL     1      -1.225   2.178   0.020  0.00  0.00    +0.004 A 
ATOM     15  C   UNL     1      -1.244   3.560   0.032  0.00  0.00    +0.000 A 
ENDBRANCH   9  13
ENDBRANCH   5   9
ENDBRANCH   1   7
BRANCH   2  16
ATOM     16  C   UNL     1       0.101  -4.117   4.542  0.00  0.00    +0.071 C 
ATOM     17  C   UNL     1       0.122  -5.458   4.783  0.00  0.00    +0.034 C 
BRANCH  17  18
ATOM     18  C   UNL     1       0.141  -5.934   6.108  0.00  0.00    +0.085 A 
ATOM     19  C   UNL     1       1.001  -5.533   7.117  0.00  0.00    +0.156 A 
ATOM     20  N   UNL     1       0.692  -6.216   8.214  0.00  0.00    -0.209 NA
ATOM     21  C   UNL     1      -0.303  -7.029   7.960  0.00  0.00    +0.179 A 
ATOM     22  N   UNL     1      -0.706  -6.913   6.659  0.00  0.00    -0.292 N 
ATOM     23  C   UNL     1      -1.748  -7.712   6.252  0.00  0.00    +0.101 A 
ATOM     24  C   UNL     1      -2.331  -8.559   7.101  0.00  0.00    +0.067 A 
ATOM     25  S   UNL     1      -1.403  -8.271   8.600  0.00  0.00    -0.058 S 
ATOM     26 CL   UNL     1       2.259  -4.345   6.974  0.00  0.00    -0.060 Cl
ENDBRANCH  17  18
ENDBRANCH   2  16
TORSDOF 5
