REMARK  Name = ZINC58369723
REMARK  7 active torsions:
REMARK  status: ('A' for Active; 'I' for Inactive)
REMARK    1  A    between atoms: C_1  and  N_2
REMARK    2  A    between atoms: N_2  and  C_3
REMARK    3  A    between atoms: N_2  and  C_4
REMARK    4  A    between atoms: C_4  and  C_6
REMARK    5  A    between atoms: C_4  and  C_12
REMARK    6  A    between atoms: N_14  and  N_15
REMARK    7  A    between atoms: N_15  and  C_16
REMARK                            x       y       z     vdW  Elec       q    Type
REMARK                         _______ _______ _______ _____ _____    ______ ____
ROOT
ATOM      1  C   UNL     1      -2.134  -0.375  -1.322  0.00  0.00    +0.251 C 
ATOM      2  O   UNL     1      -1.694   0.471  -2.072  0.00  0.00    -0.272 OA
ATOM      3  N   UNL     1      -3.170  -1.145  -1.708  0.00  0.00    -0.235 N 
ATOM      4  H   UNL     1      -3.522  -1.821  -1.108  0.00  0.00    +0.173 HD
ENDROOT
BRANCH   3   5
ATOM      5  N   UNL     1      -3.740  -0.969  -2.976  0.00  0.00    -0.262 N 
ATOM      6  H   UNL     1      -3.444  -0.240  -3.544  0.00  0.00    +0.170 HD
BRANCH   5   7
ATOM      7  C   UNL     1      -4.736  -1.843  -3.423  0.00  0.00    +0.081 A 
ATOM      8  C   UNL     1      -5.773  -1.370  -4.217  0.00  0.00    +0.066 A 
ATOM      9  C   UNL     1      -6.756  -2.237  -4.657  0.00  0.00    +0.042 A 
ATOM     10  C   UNL     1      -6.708  -3.574  -4.307  0.00  0.00    +0.044 A 
ATOM     11  C   UNL     1      -5.677  -4.049  -3.516  0.00  0.00    +0.042 A 
ATOM     12  C   UNL     1      -4.688  -3.188  -3.078  0.00  0.00    +0.066 A 
ATOM     13 CL   UNL     1      -3.390  -3.786  -2.091  0.00  0.00    -0.081 Cl
ATOM     14 CL   UNL     1      -7.945  -4.660  -4.861  0.00  0.00    -0.083 Cl
ATOM     15 CL   UNL     1      -5.834   0.308  -4.657  0.00  0.00    -0.081 Cl
ENDBRANCH   5   7
ENDBRANCH   3   5
BRANCH   1  16
ATOM     16  C   UNL     1      -1.521  -0.564   0.042  0.00  0.00    +0.175 C 
BRANCH  16  17
ATOM     17  C   UNL     1      -2.372   0.128   1.075  0.00  0.00    -0.021 A 
ATOM     18  C   UNL     1      -2.359   1.508   1.170  0.00  0.00    +0.005 A 
ATOM     19  C   UNL     1      -3.139   2.143   2.118  0.00  0.00    +0.000 A 
ATOM     20  C   UNL     1      -3.933   1.399   2.971  0.00  0.00    +0.000 A 
ATOM     21  C   UNL     1      -3.946   0.020   2.876  0.00  0.00    +0.000 A 
ATOM     22  C   UNL     1      -3.170  -0.615   1.925  0.00  0.00    +0.005 A 
ENDBRANCH  16  17
BRANCH  16  24
ATOM     23  C   UNL     1       0.405  -0.026   1.407  0.00  0.00    +0.105 C 
ATOM     24  N   UNL     1      -0.169   0.011   0.055  0.00  0.00    -0.294 NA
ATOM     25  C   UNL     1       0.704  -0.675  -0.906  0.00  0.00    +0.105 C 
ENDBRANCH  16  24
ENDBRANCH   1  16
TORSDOF 5
