REMARK  Name = ZINC08032799
REMARK  5 active torsions:
REMARK  status: ('A' for Active; 'I' for Inactive)
REMARK    1  A    between atoms: C_4  and  C_7
REMARK    2  A    between atoms: C_7  and  N_8
REMARK    3  A    between atoms: C_10  and  C_13
REMARK    4  A    between atoms: N_15  and  N_16
REMARK    5  A    between atoms: C_17  and  C_19
REMARK                            x       y       z     vdW  Elec       q    Type
REMARK                         _______ _______ _______ _____ _____    ______ ____
ROOT
ATOM      1  C   UNL     1       3.845   6.247  -4.205  0.00  0.00    +0.263 C 
ATOM      2  O   UNL     1       3.871   7.414  -3.863  0.00  0.00    -0.269 OA
ATOM      3  N   UNL     1       4.159   5.909  -5.472  0.00  0.00    -0.230 N 
ATOM      4  H   UNL     1       4.139   4.978  -5.744  0.00  0.00    +0.173 HD
ENDROOT
BRANCH   1   7
ATOM      5  N   UNL     1       2.858   4.194  -1.384  0.00  0.00    -0.266 N 
ATOM      6  C   UNL     1       3.127   5.398  -1.912  0.00  0.00    +0.121 A 
ATOM      7  C   UNL     1       3.471   5.203  -3.235  0.00  0.00    +0.076 A 
ATOM      8  C   UNL     1       3.397   3.814  -3.484  0.00  0.00    +0.147 A 
ATOM      9  N   UNL     1       3.037   3.224  -2.377  0.00  0.00    -0.179 NA
BRANCH   5  10
ATOM     10  C   UNL     1       2.451   3.937  -0.001  0.00  0.00    +0.178 C 
BRANCH  10  14
ATOM     11  C   UNL     1      -1.219   1.751   0.017  0.00  0.00    +0.000 A 
ATOM     12  C   UNL     1      -0.013   1.076   0.008  0.00  0.00    +0.000 A 
ATOM     13  C   UNL     1       1.175   1.783   0.000  0.00  0.00    +0.005 A 
ATOM     14  C   UNL     1       1.156   3.165   0.008  0.00  0.00    -0.026 A 
ATOM     15  C   UNL     1      -0.050   3.840   0.023  0.00  0.00    +0.005 A 
ATOM     16  C   UNL     1      -1.238   3.133   0.030  0.00  0.00    +0.000 A 
ENDBRANCH  10  14
ENDBRANCH   5  10
ENDBRANCH   1   7
BRANCH   3  17
ATOM     17  N   UNL     1       4.515   6.902  -6.394  0.00  0.00    -0.230 N 
ATOM     18  C   UNL     1       4.829   6.563  -7.660  0.00  0.00    +0.267 C 
ATOM     19  O   UNL     1       4.803   5.396  -8.003  0.00  0.00    -0.268 OA
ATOM     20  H   UNL     1       4.536   7.832  -6.121  0.00  0.00    +0.173 HD
BRANCH  18  21
ATOM     21  C   UNL     1       5.202   7.602  -8.625  0.00  0.00    +0.076 A 
ATOM     22  C   UNL     1       5.555   7.471  -9.957  0.00  0.00    +0.024 A 
ATOM     23  C   UNL     1       5.862   8.624 -10.669  0.00  0.00    -0.036 A 
ATOM     24  C   UNL     1       5.817   9.789  -9.983  0.00  0.00    -0.006 A 
ATOM     25  S   UNL     1       5.311   9.369  -8.393  0.00  0.00    -0.088 S 
ATOM     26  C   UNL     1       6.157  11.163 -10.514  0.00  0.00    +0.043 C 
ATOM     27  C   UNL     1       5.070  11.537 -11.537  0.00  0.00    +0.005 C 
ATOM     28  C   UNL     1       5.332  10.848 -12.855  0.00  0.00    +0.001 C 
ATOM     29  C   UNL     1       5.090   9.361 -12.895  0.00  0.00    +0.005 C 
ATOM     30  C   UNL     1       6.186   8.581 -12.167  0.00  0.00    +0.036 C 
ENDBRANCH  18  21
ENDBRANCH   3  17
TORSDOF 5
