REMARK  Name = ZINC58022268
REMARK  5 active torsions:
REMARK  status: ('A' for Active; 'I' for Inactive)
REMARK    1  A    between atoms: C_1  and  C_2
REMARK    2  A    between atoms: N_14  and  C_17
REMARK    3  A    between atoms: C_17  and  C_19
REMARK    4  A    between atoms: C_17  and  C_20
REMARK    5  A    between atoms: C_20  and  N_21
REMARK                            x       y       z     vdW  Elec       q    Type
REMARK                         _______ _______ _______ _____ _____    ______ ____
ROOT
ATOM      1  C   UNL     1      -0.019   1.526   0.010  0.00  0.00    +0.008 C 
ATOM      2  C   UNL     1       0.002  -0.004   0.002  0.00  0.00    -0.009 C 
ATOM      3  C   UNL     1       0.724  -0.501  -1.254  0.00  0.00    +0.010 C 
ATOM      4  C   UNL     1       0.542  -2.013  -1.403  0.00  0.00    +0.056 C 
ATOM      5  C   UNL     1       0.952  -2.684  -0.099  0.00  0.00    +0.054 A 
ATOM      6  C   UNL     1       1.031  -1.968   1.051  0.00  0.00    +0.014 A 
ATOM      7  S   UNL     1       1.537  -3.188   2.231  0.00  0.00    -0.057 S 
ATOM      8  C   UNL     1       1.606  -4.500   1.176  0.00  0.00    +0.161 A 
ATOM      9  N   UNL     1       1.256  -3.974   0.022  0.00  0.00    -0.229 NA
ATOM     10  N   UNL     1       1.948  -5.814   1.456  0.00  0.00    -0.307 N 
ATOM     11  C   UNL     1       2.310  -6.225   2.821  0.00  0.00    +0.122 C 
ATOM     12  C   UNL     1       1.472  -7.451   3.198  0.00  0.00    +0.103 C 
ATOM     13  N   UNL     1       1.638  -8.489   2.172  0.00  0.00    -0.298 NA
ATOM     14  C   UNL     1       1.134  -8.036   0.869  0.00  0.00    +0.103 C 
ATOM     15  C   UNL     1       1.952  -6.835   0.397  0.00  0.00    +0.122 C 
ATOM     16  C   UNL     1       0.751  -0.516   1.243  0.00  0.00    +0.047 C 
ENDROOT
BRANCH  13  17
ATOM     17  C   UNL     1       0.990  -9.742   2.580  0.00  0.00    +0.036 C 
ATOM     18  C   UNL     1      -0.529  -9.564   2.550  0.00  0.00    +0.022 C 
BRANCH  17  19
ATOM     19  C   UNL     1       1.391 -10.861   1.617  0.00  0.00    -0.068 C 
BRANCH  19  20
ATOM     20  N   UNL     1       2.856 -10.953   1.555  0.00  0.00    +0.379 N 
ATOM     21  H   UNL     1       3.120 -11.691   0.920  0.00  0.00    -0.090 HD
ATOM     22  H   UNL     1       3.234 -10.076   1.228  0.00  0.00    -0.090 HD
ATOM     23  H   UNL     1       3.219 -11.154   2.474  0.00  0.00    -0.090 HD
ENDBRANCH  19  20
ENDBRANCH  17  19
ENDBRANCH  13  17
TORSDOF 3
