REMARK  Name = ZINC64737616
REMARK  12 active torsions:
REMARK  status: ('A' for Active; 'I' for Inactive)
REMARK    1  A    between atoms: C_1  and  C_2
REMARK    2  A    between atoms: C_5  and  N_9
REMARK    3  A    between atoms: C_6  and  C_8
REMARK    4  A    between atoms: C_13  and  S_15
REMARK    5  A    between atoms: S_15  and  C_16
REMARK    6  A    between atoms: C_16  and  C_17
REMARK    7  A    between atoms: N_19  and  C_20
REMARK    8  A    between atoms: C_20  and  C_22
REMARK    9  A    between atoms: C_20  and  C_32
REMARK   10  A    between atoms: C_22  and  C_23
REMARK   11  A    between atoms: C_32  and  O_34
REMARK   12  A    between atoms: O_34  and  C_35
REMARK                            x       y       z     vdW  Elec       q    Type
REMARK                         _______ _______ _______ _____ _____    ______ ____
ROOT
ATOM      1  C   UNL     1      -0.531  -8.084  -7.158  0.00  0.00    +0.224 C 
ATOM      2  O   UNL     1      -0.597  -9.262  -6.875  0.00  0.00    -0.275 OA
ATOM      3  N   UNL     1      -0.564  -7.699  -8.449  0.00  0.00    -0.301 N 
ATOM      4  H   UNL     1      -0.511  -6.757  -8.675  0.00  0.00    +0.150 HD
ENDROOT
BRANCH   1   5
ATOM      5  C   UNL     1      -0.412  -7.053  -6.066  0.00  0.00    +0.172 C 
BRANCH   5   6
ATOM      6  S   UNL     1      -0.394  -7.880  -4.452  0.00  0.00    -0.088 S 
BRANCH   6  11
ATOM      7  N   UNL     1       0.058  -4.168  -0.021  0.00  0.00    -0.292 N 
ATOM      8  C   UNL     1      -0.044  -4.858  -1.224  0.00  0.00    +0.187 A 
ATOM      9  N   UNL     1      -0.069  -4.389  -2.456  0.00  0.00    -0.125 NA
ATOM     10  N   UNL     1      -0.176  -5.259  -3.517  0.00  0.00    -0.133 NA
ATOM     11  C   UNL     1      -0.252  -6.557  -3.296  0.00  0.00    +0.160 A 
ATOM     12  S   UNL     1      -0.167  -6.616  -1.513  0.00  0.00    -0.024 S 
ATOM     13  H   UNL     1      -0.021  -4.645   0.820  0.00  0.00    +0.154 HD
BRANCH   7  18
ATOM     14  C   UNL     1       0.936   1.435  -0.032  0.00  0.00    +0.044 C 
ATOM     15  C   UNL     1       0.703  -0.054  -0.029  0.00  0.00    -0.050 A 
ATOM     16  C   UNL     1       0.799  -0.770  -1.208  0.00  0.00    +0.005 A 
ATOM     17  C   UNL     1       0.586  -2.134  -1.209  0.00  0.00    +0.024 A 
ATOM     18  C   UNL     1       0.275  -2.788  -0.024  0.00  0.00    +0.036 A 
ATOM     19  C   UNL     1       0.179  -2.066   1.159  0.00  0.00    -0.029 A 
ATOM     20  C   UNL     1       0.399  -0.702   1.154  0.00  0.00    +0.008 A 
ATOM     21  C   UNL     1      -0.159  -2.770   2.448  0.00  0.00    +0.045 C 
ENDBRANCH   7  18
ENDBRANCH   6  11
ENDBRANCH   5   6
ENDBRANCH   1   5
BRANCH   3  22
ATOM     22  C   UNL     1      -0.679  -8.701  -9.510  0.00  0.00    +0.186 C 
BRANCH  22  23
ATOM     23  C   UNL     1       0.690  -9.230  -9.854  0.00  0.00    +0.328 C 
ATOM     24  O   UNL     1       1.662  -8.812  -9.271  0.00  0.00    -0.249 OA
BRANCH  23  25
ATOM     25  O   UNL     1       0.829 -10.165 -10.806  0.00  0.00    -0.467 OA
ATOM     26  C   UNL     1       2.155 -10.621 -11.080  0.00  0.00    +0.280 C 
ENDBRANCH  23  25
ENDBRANCH  22  23
BRANCH  22  27
ATOM     27  C   UNL     1      -1.304  -8.061 -10.751  0.00  0.00    +0.067 C 
BRANCH  27  28
ATOM     28  C   UNL     1      -2.719  -7.643 -10.442  0.00  0.00    -0.039 C 
ATOM     29  C   UNL     1      -3.137  -6.418 -10.049  0.00  0.00    -0.001 A 
ATOM     30  C   UNL     1      -2.428  -5.157  -9.800  0.00  0.00    +0.010 A 
ATOM     31  C   UNL     1      -3.134  -4.074  -9.406  0.00  0.00    +0.001 A 
ATOM     32  C   UNL     1      -4.524  -4.124  -9.229  0.00  0.00    +0.002 A 
ATOM     33  C   UNL     1      -5.245  -5.246  -9.438  0.00  0.00    +0.026 A 
ATOM     34  C   UNL     1      -4.605  -6.445  -9.855  0.00  0.00    +0.043 A 
ATOM     35  N   UNL     1      -5.075  -7.640 -10.118  0.00  0.00    -0.380 N 
ATOM     36  C   UNL     1      -3.959  -8.505 -10.515  0.00  0.00    +0.144 C 
ATOM     37  H   UNL     1      -6.006  -7.906 -10.063  0.00  0.00    +0.160 HD
ENDBRANCH  27  28
ENDBRANCH  22  27
ENDBRANCH   3  22
TORSDOF 9
