REMARK  Name = ZINC46347532
REMARK  8 active torsions:
REMARK  status: ('A' for Active; 'I' for Inactive)
REMARK    1  A    between atoms: C_1  and  N_2
REMARK    2  A    between atoms: N_2  and  C_3
REMARK    3  A    between atoms: N_2  and  C_4
REMARK    4  A    between atoms: C_4  and  C_6
REMARK    5  A    between atoms: C_4  and  C_23
REMARK    6  A    between atoms: C_6  and  N_7
REMARK    7  A    between atoms: N_10  and  N_11
REMARK    8  A    between atoms: N_11  and  C_12
REMARK                            x       y       z     vdW  Elec       q    Type
REMARK                         _______ _______ _______ _____ _____    ______ ____
ROOT
ATOM      1  N   UNL     1      -1.778   1.535  -1.139  0.00  0.00    -0.299 N 
ATOM      2  C   UNL     1      -2.344   2.275  -2.112  0.00  0.00    +0.316 C 
ATOM      3  O   UNL     1      -3.089   1.753  -2.918  0.00  0.00    -0.251 OA
ATOM      4  N   UNL     1      -2.084   3.595  -2.193  0.00  0.00    -0.220 N 
ATOM      5  H   UNL     1      -1.183   1.952  -0.496  0.00  0.00    +0.150 HD
ATOM      6  H   UNL     1      -2.491   4.128  -2.893  0.00  0.00    +0.174 HD
ENDROOT
BRANCH   4   7
ATOM      7  N   UNL     1      -1.225   4.198  -1.264  0.00  0.00    -0.258 N 
ATOM      8  H   UNL     1      -0.754   3.653  -0.614  0.00  0.00    +0.170 HD
BRANCH   7   9
ATOM      9  C   UNL     1      -1.046   5.588  -1.274  0.00  0.00    +0.121 A 
ATOM     10  C   UNL     1      -2.110   6.424  -1.587  0.00  0.00    +0.186 A 
ATOM     11  C   UNL     1      -1.931   7.797  -1.596  0.00  0.00    +0.198 A 
ATOM     12  C   UNL     1      -0.691   8.338  -1.293  0.00  0.00    +0.199 A 
ATOM     13  C   UNL     1       0.372   7.505  -0.982  0.00  0.00    +0.198 A 
ATOM     14  C   UNL     1       0.195   6.131  -0.966  0.00  0.00    +0.186 A 
ATOM     15  F   UNL     1       1.231   5.320  -0.657  0.00  0.00    -0.200 F 
ATOM     16  F   UNL     1       1.580   8.034  -0.687  0.00  0.00    -0.199 F 
ATOM     17  F   UNL     1      -0.519   9.678  -1.303  0.00  0.00    -0.199 F 
ATOM     18  F   UNL     1      -2.966   8.611  -1.900  0.00  0.00    -0.199 F 
ATOM     19  F   UNL     1      -3.319   5.898  -1.882  0.00  0.00    -0.200 F 
ENDBRANCH   7   9
ENDBRANCH   4   7
BRANCH   1  20
ATOM     20  C   UNL     1      -2.061   0.100  -1.052  0.00  0.00    +0.095 C 
BRANCH  20  21
ATOM     21  C   UNL     1      -1.213  -0.520   0.061  0.00  0.00    -0.020 C 
BRANCH  21  22
ATOM     22  C   UNL     1      -1.623   0.064   1.389  0.00  0.00    -0.052 A 
ATOM     23  C   UNL     1      -0.880   1.074   1.969  0.00  0.00    +0.009 A 
ATOM     24  C   UNL     1      -1.275   1.577   3.164  0.00  0.00    +0.045 A 
ATOM     25  S   UNL     1      -2.739   0.613   3.504  0.00  0.00    -0.105 S 
ATOM     26  C   UNL     1      -2.728  -0.391   2.028  0.00  0.00    +0.047 A 
ENDBRANCH  21  22
BRANCH  21  28
ATOM     27  C   UNL     1      -1.026  -2.543  -1.216  0.00  0.00    -0.096 C 
ATOM     28  N   UNL     1      -1.420  -1.974   0.081  0.00  0.00    +0.382 N 
ATOM     29  C   UNL     1      -0.602  -2.571   1.145  0.00  0.00    -0.096 C 
ATOM     30  H   UNL     1      -2.394  -2.174   0.254  0.00  0.00    -0.082 HD
ENDBRANCH  21  28
ENDBRANCH  20  21
ENDBRANCH   1  20
TORSDOF 6
