REMARK  Name = ZINC12782841
REMARK  8 active torsions:
REMARK  status: ('A' for Active; 'I' for Inactive)
REMARK    1  A    between atoms: C_1  and  C_2
REMARK    2  A    between atoms: C_3  and  C_36
REMARK    3  A    between atoms: C_11  and  C_13
REMARK    4  A    between atoms: C_13  and  S_14
REMARK    5  A    between atoms: S_14  and  C_15
REMARK    6  A    between atoms: C_15  and  C_17
REMARK    7  A    between atoms: C_15  and  C_18
REMARK    8  A    between atoms: N_24  and  C_35
REMARK                            x       y       z     vdW  Elec       q    Type
REMARK                         _______ _______ _______ _____ _____    ______ ____
ROOT
ATOM      1  C   UNL     1      -5.401   0.941  -0.091  0.00  0.00    +0.234 C 
ATOM      2  O   UNL     1      -5.342  -0.217   0.267  0.00  0.00    -0.274 OA
ATOM      3  N   UNL     1      -6.549   1.431  -0.599  0.00  0.00    -0.252 N 
ATOM      4  C   UNL     1      -7.744   0.583  -0.736  0.00  0.00    +0.117 C 
ATOM      5  C   UNL     1      -8.684   0.826   0.430  0.00  0.00    +0.038 C 
ATOM      6  C   UNL     1      -9.223   2.251   0.476  0.00  0.00    +0.108 C 
ATOM      7  N   UNL     1      -8.172   3.208   0.818  0.00  0.00    -0.315 N 
ATOM      8  C   UNL     1      -7.496   3.643  -0.326  0.00  0.00    +0.162 A 
ATOM      9  C   UNL     1      -6.643   2.757  -1.018  0.00  0.00    +0.169 A 
ATOM     10  N   UNL     1      -5.947   3.172  -2.055  0.00  0.00    -0.227 NA
ATOM     11  C   UNL     1      -6.071   4.441  -2.471  0.00  0.00    +0.091 A 
ATOM     12  C   UNL     1      -5.341   4.910  -3.575  0.00  0.00    +0.030 A 
ATOM     13  C   UNL     1      -5.495   6.199  -3.988  0.00  0.00    +0.002 A 
ATOM     14  C   UNL     1      -6.366   7.063  -3.329  0.00  0.00    +0.002 A 
ATOM     15  C   UNL     1      -7.086   6.642  -2.253  0.00  0.00    +0.030 A 
ATOM     16  C   UNL     1      -6.952   5.321  -1.797  0.00  0.00    +0.091 A 
ATOM     17  N   UNL     1      -7.644   4.886  -0.733  0.00  0.00    -0.227 NA
ATOM     18  C   UNL     1      -8.719   4.345   1.569  0.00  0.00    +0.131 C 
ENDROOT
BRANCH   1  19
ATOM     19  C   UNL     1      -4.191   1.830   0.032  0.00  0.00    +0.130 C 
ATOM     20  C   UNL     1      -4.265   2.614   1.344  0.00  0.00    +0.029 C 
BRANCH  19  21
ATOM     21  S   UNL     1      -2.689   0.813   0.019  0.00  0.00    -0.141 S 
BRANCH  21  22
ATOM     22  C   UNL     1      -1.338   2.024   0.019  0.00  0.00    +0.144 C 
BRANCH  22  33
ATOM     23  C   UNL     1       4.944  -0.317  -0.048  0.00  0.00    +0.045 C 
ATOM     24  C   UNL     1       3.551  -0.893  -0.037  0.00  0.00    -0.026 A 
ATOM     25  C   UNL     1       3.366  -2.222  -0.042  0.00  0.00    -0.008 A 
ATOM     26  S   UNL     1       1.591  -2.392  -0.026  0.00  0.00    -0.073 S 
ATOM     27  C   UNL     1       1.151  -0.673  -0.013  0.00  0.00    +0.116 A 
ATOM     28  C   UNL     1       2.395  -0.017  -0.021  0.00  0.00    +0.075 A 
ATOM     29  C   UNL     1       2.339   1.415  -0.012  0.00  0.00    +0.260 A 
ATOM     30  O   UNL     1       3.364   2.075  -0.018  0.00  0.00    -0.267 OA
ATOM     31  N   UNL     1       1.137   2.020   0.002  0.00  0.00    -0.310 N 
ATOM     32  H   UNL     1       1.092   2.989   0.008  0.00  0.00    +0.170 HD
ATOM     33  C   UNL     1      -0.016   1.302   0.009  0.00  0.00    +0.121 A 
ATOM     34  N   UNL     1       0.002  -0.004   0.002  0.00  0.00    -0.226 NA
ATOM     35  C   UNL     1       4.409  -3.311  -0.058  0.00  0.00    +0.052 C 
ENDBRANCH  22  33
ENDBRANCH  21  22
ENDBRANCH  19  21
ENDBRANCH   1  19
TORSDOF 4
