REMARK  Name = ZINC39467420
REMARK  4 active torsions:
REMARK  status: ('A' for Active; 'I' for Inactive)
REMARK    1  A    between atoms: C_4  and  O_33
REMARK    2  A    between atoms: C_5  and  C_7
REMARK    3  A    between atoms: P_23  and  C_26
REMARK    4  A    between atoms: C_31  and  O_32
REMARK                            x       y       z     vdW  Elec       q    Type
REMARK                         _______ _______ _______ _____ _____    ______ ____
ROOT
ATOM      1  C   UNL     1       1.245  -2.165  -0.023  0.00  0.00    -0.004 C 
ATOM      2  C   UNL     1       0.949  -2.842  -1.149  0.00  0.00    -0.015 C 
ATOM      3  C   UNL     1       0.999  -4.345  -1.120  0.00  0.00    +0.005 C 
ATOM      4  C   UNL     1       1.196  -4.928  -2.514  0.00  0.00    -0.046 C 
ATOM      5  N   UNL     1       1.197  -6.400  -2.444  0.00  0.00    +0.398 N 
ATOM      6  C   UNL     1       2.275  -6.893  -1.587  0.00  0.00    -0.020 C 
ATOM      7  C   UNL     1       2.168  -6.308  -0.171  0.00  0.00    -0.003 C 
ATOM      8  C   UNL     1       2.184  -4.785  -0.251  0.00  0.00    +0.017 C 
ATOM      9  C   UNL     1       2.050  -4.162   1.111  0.00  0.00    -0.007 C 
ATOM     10  C   UNL     1       1.601  -2.913   1.204  0.00  0.00    +0.022 C 
ATOM     11 BR   UNL     1       1.414  -2.099   2.901  0.00  0.00    -0.050 Br
ATOM     12  C   UNL     1       2.216  -8.419  -1.434  0.00  0.00    +0.157 C 
ATOM     13  O   UNL     1       2.389  -9.034  -2.724  0.00  0.00    -0.316 OA
ATOM     14  P   UNL     1       1.460  -8.498  -3.948  0.00  0.00    +0.291 P 
ATOM     15  O   UNL     1       0.115  -9.112  -3.879  0.00  0.00    -0.269 OA
ATOM     16  N   UNL     1       1.368  -6.848  -3.737  0.00  0.00    -0.288 NA
ATOM     17  H   UNL     1       1.414  -6.228  -4.482  0.00  0.00    +0.111 HD
ATOM     18  H   UNL     1       0.309  -6.721  -2.090  0.00  0.00    -0.055 HD
ENDROOT
BRANCH   1  23
ATOM     19  C   UNL     1      -0.017   1.376   0.010  0.00  0.00    +0.001 A 
ATOM     20  C   UNL     1       1.169   2.089   0.002  0.00  0.00    +0.004 A 
ATOM     21  C   UNL     1       2.382   1.426  -0.013  0.00  0.00    +0.046 A 
ATOM     22  C   UNL     1       2.415   0.041  -0.022  0.00  0.00    +0.125 A 
ATOM     23  C   UNL     1       1.219  -0.683  -0.014  0.00  0.00    +0.024 A 
ATOM     24  C   UNL     1       0.002  -0.004   0.002  0.00  0.00    +0.012 A 
BRANCH  22  25
ATOM     25  O   UNL     1       3.607  -0.612  -0.038  0.00  0.00    -0.506 OA
ATOM     26  H   UNL     1       3.961  -0.806   0.841  0.00  0.00    +0.292 HD
ENDBRANCH  22  25
ENDBRANCH   1  23
BRANCH  14  27
ATOM     27  C   UNL     1       2.241  -8.877  -5.541  0.00  0.00    +0.091 A 
ATOM     28  C   UNL     1       3.112  -7.972  -6.117  0.00  0.00    +0.018 A 
ATOM     29  C   UNL     1       3.707  -8.260  -7.331  0.00  0.00    +0.001 A 
ATOM     30  C   UNL     1       3.433  -9.454  -7.972  0.00  0.00    +0.004 A 
ATOM     31  C   UNL     1       2.563 -10.362  -7.401  0.00  0.00    +0.046 A 
ATOM     32  C   UNL     1       1.969 -10.078  -6.180  0.00  0.00    +0.131 A 
BRANCH  32  33
ATOM     33  O   UNL     1       1.117 -10.973  -5.613  0.00  0.00    -0.506 OA
ATOM     34  H   UNL     1       0.193 -10.853  -5.870  0.00  0.00    +0.292 HD
ENDBRANCH  32  33
ENDBRANCH  14  27
TORSDOF 4
