REMARK  Name = ZINC11592020
REMARK  11 active torsions:
REMARK  status: ('A' for Active; 'I' for Inactive)
REMARK    1  A    between atoms: C_1  and  C_2
REMARK    2  A    between atoms: C_2  and  O_3
REMARK    3  A    between atoms: O_3  and  C_4
REMARK    4  A    between atoms: C_4  and  C_6
REMARK    5  A    between atoms: C_7  and  C_14
REMARK    6  A    between atoms: C_8  and  C_12
REMARK    7  A    between atoms: C_9  and  N_11
REMARK    8  A    between atoms: C_14  and  S_15
REMARK    9  A    between atoms: S_15  and  C_16
REMARK   10  A    between atoms: C_19  and  C_22
REMARK   11  A    between atoms: N_20  and  N_21
REMARK                            x       y       z     vdW  Elec       q    Type
REMARK                         _______ _______ _______ _____ _____    ______ ____
ROOT
ATOM      1  C   UNL     1       3.906  11.338  -1.405  0.00  0.00    +0.103 A 
ATOM      2  C   UNL     1       3.730  10.700  -0.194  0.00  0.00    +0.003 A 
ATOM      3  C   UNL     1       4.503  11.129   0.871  0.00  0.00    +0.084 A 
ATOM      4  C   UNL     1       5.412  12.168   0.642  0.00  0.00    +0.082 A 
ATOM      5  S   UNL     1       5.172  12.538  -1.033  0.00  0.00    -0.066 S 
ENDROOT
BRANCH   4   6
ATOM      6  N   UNL     1       6.282  12.756   1.533  0.00  0.00    -0.352 N 
ATOM      7  H   UNL     1       6.861  13.477   1.241  0.00  0.00    +0.143 HD
ATOM      8  H   UNL     1       6.316  12.448   2.452  0.00  0.00    +0.143 HD
ENDBRANCH   4   6
BRANCH   1   9
ATOM      9  C   UNL     1       3.246  11.100  -2.637  0.00  0.00    +0.346 C 
ATOM     10  O   UNL     1       2.397  10.232  -2.715  0.00  0.00    -0.244 OA
BRANCH   9  11
ATOM     11  O   UNL     1       3.559  11.836  -3.724  0.00  0.00    -0.461 OA
BRANCH  11  13
ATOM     12  C   UNL     1       3.341  12.472  -6.046  0.00  0.00    +0.048 C 
ATOM     13  C   UNL     1       2.854  11.542  -4.932  0.00  0.00    +0.229 C 
ENDBRANCH  11  13
ENDBRANCH   9  11
ENDBRANCH   1   9
BRANCH   3  14
ATOM     14  C   UNL     1       4.380  10.526   2.164  0.00  0.00    +0.102 C 
ATOM     15  N   UNL     1       4.282  10.047   3.190  0.00  0.00    -0.191 NA
ENDBRANCH   3  14
BRANCH   2  16
ATOM     16  C   UNL     1       2.729   9.584  -0.036  0.00  0.00    +0.115 C 
BRANCH  16  17
ATOM     17  S   UNL     1       3.530   8.001  -0.397  0.00  0.00    -0.080 S 
BRANCH  17  18
ATOM     18  C   UNL     1       2.172   6.907  -0.142  0.00  0.00    +0.209 A 
ATOM     19  N   UNL     1       0.953   7.246   0.210  0.00  0.00    -0.121 NA
ATOM     20  N   UNL     1       0.212   6.201   0.307  0.00  0.00    -0.126 NA
ATOM     21  C   UNL     1       0.914   5.126   0.021  0.00  0.00    +0.188 A 
ATOM     22  N   UNL     1       2.193   5.545  -0.271  0.00  0.00    -0.223 N 
BRANCH  21  23
ATOM     23  C   UNL     1       0.426   3.737   0.018  0.00  0.00    +0.058 A 
ATOM     24  C   UNL     1      -0.866   3.275   0.028  0.00  0.00    +0.019 A 
ATOM     25  C   UNL     1      -1.081   1.915   0.017  0.00  0.00    +0.008 A 
ATOM     26  C   UNL     1      -0.013   1.076   0.008  0.00  0.00    +0.046 A 
ATOM     27  S   UNL     1       1.361   2.216   0.001  0.00  0.00    -0.093 S 
ENDBRANCH  21  23
BRANCH  22  28
ATOM     28  N   UNL     1       3.259   4.765  -0.618  0.00  0.00    -0.295 N 
ATOM     29  H   UNL     1       3.307   4.643  -1.619  0.00  0.00    +0.163 HD
ATOM     30  H   UNL     1       4.120   5.149  -0.259  0.00  0.00    +0.163 HD
ENDBRANCH  22  28
ENDBRANCH  17  18
ENDBRANCH  16  17
ENDBRANCH   2  16
TORSDOF 10
