REMARK  Name = ZINC39665817
REMARK  10 active torsions:
REMARK  status: ('A' for Active; 'I' for Inactive)
REMARK    1  A    between atoms: C_1  and  C_2
REMARK    2  A    between atoms: C_2  and  C_4
REMARK    3  A    between atoms: C_2  and  O_32
REMARK    4  A    between atoms: C_4  and  N_5
REMARK    5  A    between atoms: C_6  and  C_8
REMARK    6  A    between atoms: C_19  and  C_21
REMARK    7  A    between atoms: C_24  and  C_26
REMARK    8  A    between atoms: O_32  and  C_33
REMARK    9  A    between atoms: C_36  and  O_39
REMARK   10  A    between atoms: O_39  and  C_40
REMARK                            x       y       z     vdW  Elec       q    Type
REMARK                         _______ _______ _______ _____ _____    ______ ____
ROOT
ATOM      1  C   UNL     1       1.218  -3.727   3.014  0.00  0.00    +0.100 C 
ATOM      2  C   UNL     1      -0.254  -4.176   3.143  0.00  0.00    +0.121 C 
ATOM      3  N   UNL     1      -0.237  -5.216   4.199  0.00  0.00    -0.294 N 
ATOM      4  C   UNL     1       0.726  -4.705   5.204  0.00  0.00    +0.115 C 
ATOM      5  C   UNL     1       1.858  -4.075   4.369  0.00  0.00    -0.004 C 
ATOM      6  C   UNL     1       2.992  -5.077   4.175  0.00  0.00    -0.010 C 
ATOM      7  C   UNL     1       3.649  -5.365   5.529  0.00  0.00    -0.082 C 
ATOM      8  N   UNL     1       4.165  -4.115   6.099  0.00  0.00    +0.379 N 
ATOM      9  C   UNL     1       3.057  -3.191   6.368  0.00  0.00    -0.082 C 
ATOM     10  C   UNL     1       2.375  -2.812   5.050  0.00  0.00    -0.010 C 
ATOM     11  C   UNL     1      -0.938  -6.367   4.237  0.00  0.00    +0.282 C 
ATOM     12  O   UNL     1      -0.814  -7.124   5.181  0.00  0.00    -0.267 OA
ATOM     13  H   UNL     1       4.651  -4.315   6.960  0.00  0.00    -0.086 HD
ATOM     14  H   UNL     1       4.806  -3.688   5.447  0.00  0.00    -0.086 HD
ENDROOT
BRANCH  11  15
ATOM     15  C   UNL     1      -1.850  -6.706   3.140  0.00  0.00    +0.190 A 
ATOM     16  C   UNL     1      -2.626  -7.840   3.056  0.00  0.00    +0.055 A 
ATOM     17  C   UNL     1      -3.335  -7.755   1.853  0.00  0.00    +0.050 A 
ATOM     18  C   UNL     1      -2.970  -6.584   1.254  0.00  0.00    +0.136 A 
ATOM     19  O   UNL     1      -2.079  -5.958   2.041  0.00  0.00    -0.450 OA
BRANCH  18  20
ATOM     20  C   UNL     1      -3.474  -6.086  -0.042  0.00  0.00    +0.017 A 
ATOM     21  C   UNL     1      -4.412  -6.829  -0.762  0.00  0.00    +0.011 A 
ATOM     22  C   UNL     1      -4.879  -6.358  -1.972  0.00  0.00    +0.001 A 
ATOM     23  C   UNL     1      -4.420  -5.152  -2.471  0.00  0.00    +0.000 A 
ATOM     24  C   UNL     1      -3.491  -4.410  -1.763  0.00  0.00    +0.001 A 
ATOM     25  C   UNL     1      -3.020  -4.867  -0.550  0.00  0.00    +0.011 A 
ENDBRANCH  18  20
ENDBRANCH  11  15
BRANCH   1  27
ATOM     26  N   UNL     1       2.331  -1.727   2.076  0.00  0.00    -0.312 N 
ATOM     27  C   UNL     1       1.294  -2.242   2.764  0.00  0.00    +0.218 C 
ATOM     28  O   UNL     1       0.421  -1.512   3.184  0.00  0.00    -0.275 OA
ATOM     29  H   UNL     1       3.029  -2.311   1.740  0.00  0.00    +0.149 HD
BRANCH  26  30
ATOM     30  C   UNL     1       2.404  -0.284   1.833  0.00  0.00    +0.148 C 
BRANCH  30  32
ATOM     31  C   UNL     1       3.747   1.543   0.782  0.00  0.00    +0.053 C 
ATOM     32  C   UNL     1       3.670   0.036   1.035  0.00  0.00    +0.187 C 
BRANCH  32  33
ATOM     33  O   UNL     1       4.818  -0.382   1.776  0.00  0.00    -0.488 OA
BRANCH  33  34
ATOM     34  C   UNL     1       5.941  -0.670   1.065  0.00  0.00    +0.121 A 
ATOM     35  C   UNL     1       5.972  -0.445  -0.303  0.00  0.00    +0.049 A 
ATOM     36  C   UNL     1       7.112  -0.738  -1.026  0.00  0.00    +0.049 A 
ATOM     37  C   UNL     1       8.226  -1.257  -0.383  0.00  0.00    +0.120 A 
ATOM     38  C   UNL     1       8.195  -1.481   0.985  0.00  0.00    +0.049 A 
ATOM     39  C   UNL     1       7.057  -1.184   1.709  0.00  0.00    +0.049 A 
BRANCH  37  40
ATOM     40  O   UNL     1       9.348  -1.546  -1.094  0.00  0.00    -0.495 OA
ATOM     41  C   UNL     1      10.458  -2.078  -0.368  0.00  0.00    +0.277 C 
ENDBRANCH  37  40
ENDBRANCH  33  34
ENDBRANCH  32  33
ENDBRANCH  30  32
ENDBRANCH  26  30
ENDBRANCH   1  27
TORSDOF 8
