REMARK  Name = ZINC15015711
REMARK  8 active torsions:
REMARK  status: ('A' for Active; 'I' for Inactive)
REMARK    1  A    between atoms: C_1  and  C_2
REMARK    2  A    between atoms: N_7  and  C_8
REMARK    3  A    between atoms: C_8  and  C_10
REMARK    4  A    between atoms: C_8  and  C_20
REMARK    5  A    between atoms: C_14  and  O_16
REMARK    6  A    between atoms: O_16  and  C_17
REMARK    7  A    between atoms: C_17  and  C_18
REMARK    8  A    between atoms: C_29  and  O_30
REMARK                            x       y       z     vdW  Elec       q    Type
REMARK                         _______ _______ _______ _____ _____    ______ ____
ROOT
ATOM      1  C   UNL     1      -0.065   5.346   0.009  0.00  0.00    +0.136 C 
ENDROOT
BRANCH   1   8
ATOM      2  C   UNL     1      -2.867   8.629  -4.323  0.00  0.00    +0.063 C 
ATOM      3  C   UNL     1      -1.844   8.353  -3.251  0.00  0.00    +0.014 A 
ATOM      4  C   UNL     1      -0.866   9.290  -2.985  0.00  0.00    +0.021 A 
ATOM      5  C   UNL     1       0.074   9.031  -1.997  0.00  0.00    +0.005 A 
ATOM      6  C   UNL     1      -0.005   7.833  -1.310  0.00  0.00    +0.041 A 
ATOM      7  C   UNL     1      -1.017   6.934  -1.630  0.00  0.00    +0.097 A 
ATOM      8  N   UNL     1      -1.107   5.726  -0.948  0.00  0.00    -0.320 N 
ATOM      9  H   UNL     1      -1.860   5.136  -1.105  0.00  0.00    +0.148 HD
ATOM     10  N   UNL     1      -1.948   7.164  -2.600  0.00  0.00    -0.347 N 
ATOM     11  H   UNL     1      -2.682   6.481  -2.825  0.00  0.00    +0.167 HD
ENDBRANCH   1   8
BRANCH   1  12
ATOM     12  C   UNL     1      -0.387   5.928   1.361  0.00  0.00    +0.021 A 
ATOM     13  C   UNL     1      -1.711   6.206   1.690  0.00  0.00    +0.010 A 
ATOM     14  C   UNL     1      -2.035   6.732   2.903  0.00  0.00    +0.010 A 
ATOM     15  C   UNL     1      -1.022   7.000   3.840  0.00  0.00    +0.004 A 
ATOM     16  C   UNL     1      -1.319   7.544   5.104  0.00  0.00    +0.011 A 
ATOM     17  C   UNL     1      -0.283   7.777   5.963  0.00  0.00    +0.020 A 
ATOM     18  C   UNL     1       1.022   7.479   5.577  0.00  0.00    +0.111 A 
ATOM     19  N   UNL     1       1.293   6.972   4.399  0.00  0.00    -0.251 NA
ATOM     20  C   UNL     1       0.327   6.719   3.512  0.00  0.00    +0.113 A 
ATOM     21  C   UNL     1       0.624   6.170   2.247  0.00  0.00    +0.148 A 
BRANCH  21  22
ATOM     22  O   UNL     1       1.909   5.887   1.911  0.00  0.00    -0.504 OA
ATOM     23  H   UNL     1       2.375   6.619   1.484  0.00  0.00    +0.292 HD
ENDBRANCH  21  22
ENDBRANCH   1  12
BRANCH   1  24
ATOM     24  C   UNL     1      -0.001   3.844   0.111  0.00  0.00    -0.019 A 
ATOM     25  C   UNL     1      -1.166   3.111   0.248  0.00  0.00    +0.006 A 
ATOM     26  C   UNL     1      -1.111   1.732   0.336  0.00  0.00    +0.004 A 
ATOM     27  C   UNL     1       0.108   1.084   0.298  0.00  0.00    +0.045 A 
ATOM     28  C   UNL     1       1.278   1.817   0.161  0.00  0.00    +0.121 A 
ATOM     29  C   UNL     1       1.220   3.200   0.067  0.00  0.00    +0.051 A 
BRANCH  28  30
ATOM     30  O   UNL     1       2.478   1.181   0.117  0.00  0.00    -0.488 OA
BRANCH  30  31
ATOM     31  C   UNL     1       2.462  -0.244   0.219  0.00  0.00    +0.256 C 
BRANCH  31  32
ATOM     32  C   UNL     1       3.873  -0.769   0.152  0.00  0.00    +0.006 C 
ATOM     33  C   UNL     1       4.270  -1.690   0.995  0.00  0.00    +0.007 C 
ENDBRANCH  31  32
ENDBRANCH  30  31
ENDBRANCH  28  30
ENDBRANCH   1  24
TORSDOF 7
