REMARK  Name = ZINC53758819
REMARK  5 active torsions:
REMARK  status: ('A' for Active; 'I' for Inactive)
REMARK    1  A    between atoms: C_1  and  C_2
REMARK    2  A    between atoms: N_10  and  N_14
REMARK    3  A    between atoms: C_15  and  C_17
REMARK    4  A    between atoms: C_17  and  C_18
REMARK    5  A    between atoms: C_18  and  C_19
REMARK                            x       y       z     vdW  Elec       q    Type
REMARK                         _______ _______ _______ _____ _____    ______ ____
ROOT
ATOM      1  C   UNL     1      -0.019   1.526   0.010  0.00  0.00    +0.007 C 
ATOM      2  C   UNL     1       0.002  -0.004   0.002  0.00  0.00    -0.014 C 
ATOM      3  C   UNL     1       0.716  -0.497  -1.258  0.00  0.00    +0.006 C 
ATOM      4  C   UNL     1       0.727  -2.028  -1.271  0.00  0.00    +0.035 C 
ATOM      5  C   UNL     1       1.442  -2.543  -0.027  0.00  0.00    +0.114 C 
ATOM      6  C   UNL     1       0.753  -2.041   1.238  0.00  0.00    +0.035 C 
ATOM      7  C   UNL     1       0.742  -0.510   1.242  0.00  0.00    +0.006 C 
ATOM      8  C   UNL     1       1.495  -4.053  -0.035  0.00  0.00    +0.263 C 
ATOM      9  O   UNL     1       0.556  -4.821  -0.030  0.00  0.00    -0.271 OA
ATOM     10  N   UNL     1       2.807  -4.367  -0.051  0.00  0.00    -0.137 N 
ATOM     11  C   UNL     1       3.576  -3.272  -0.053  0.00  0.00    +0.326 C 
ATOM     12  O   UNL     1       4.791  -3.300  -0.065  0.00  0.00    -0.251 OA
ATOM     13  N   UNL     1       2.853  -2.136  -0.039  0.00  0.00    -0.284 N 
ATOM     14  H   UNL     1       3.196  -1.229  -0.038  0.00  0.00    +0.151 HD
ENDROOT
BRANCH  10  15
ATOM     15  N   UNL     1       3.303  -5.678  -0.062  0.00  0.00    -0.224 N 
ATOM     16  C   UNL     1       3.812  -6.196  -1.197  0.00  0.00    +0.230 C 
ATOM     17  O   UNL     1       3.841  -5.528  -2.209  0.00  0.00    -0.274 OA
ATOM     18  H   UNL     1       3.280  -6.212   0.747  0.00  0.00    +0.174 HD
BRANCH  16  19
ATOM     19  C   UNL     1       4.345  -7.605  -1.210  0.00  0.00    +0.102 C 
BRANCH  19  20
ATOM     20  C   UNL     1       4.860  -7.944  -2.610  0.00  0.00    +0.047 C 
BRANCH  20  21
ATOM     21  C   UNL     1       5.393  -9.353  -2.622  0.00  0.00    -0.009 A 
ATOM     22  C   UNL     1       6.741  -9.584  -2.424  0.00  0.00    +0.044 A 
ATOM     23  C   UNL     1       7.231 -10.879  -2.435  0.00  0.00    +0.124 A 
ATOM     24  C   UNL     1       6.370 -11.943  -2.644  0.00  0.00    +0.041 A 
ATOM     25  C   UNL     1       5.022 -11.712  -2.842  0.00  0.00    +0.041 A 
ATOM     26  C   UNL     1       4.532 -10.417  -2.826  0.00  0.00    +0.127 A 
ATOM     27  F   UNL     1       3.213 -10.192  -3.015  0.00  0.00    -0.205 F 
ATOM     28  F   UNL     1       8.549 -11.104  -2.241  0.00  0.00    -0.205 F 
ENDBRANCH  20  21
ENDBRANCH  19  20
ENDBRANCH  16  19
ENDBRANCH  10  15
TORSDOF 4
