REMARK  Name = ZINC14156873
REMARK  8 active torsions:
REMARK  status: ('A' for Active; 'I' for Inactive)
REMARK    1  A    between atoms: C_1  and  C_2
REMARK    2  A    between atoms: C_5  and  N_9
REMARK    3  A    between atoms: N_9  and  C_10
REMARK    4  A    between atoms: C_10  and  N_12
REMARK    5  A    between atoms: N_14  and  C_15
REMARK    6  A    between atoms: C_15  and  C_16
REMARK    7  A    between atoms: C_26  and  C_31
REMARK    8  A    between atoms: C_28  and  C_30
REMARK                            x       y       z     vdW  Elec       q    Type
REMARK                         _______ _______ _______ _____ _____    ______ ____
ROOT
ATOM      1  N   UNL     1       1.591   5.265   1.790  0.00  0.00    -0.159 NA
ATOM      2  C   UNL     1       0.638   5.460   0.894  0.00  0.00    +0.196 C 
ATOM      3  N   UNL     1      -0.647   5.093   1.174  0.00  0.00    -0.353 N 
ATOM      4  N   UNL     1       0.940   6.029  -0.314  0.00  0.00    -0.297 N 
ATOM      5  C   UNL     1       1.396   5.237  -1.359  0.00  0.00    +0.231 A 
ATOM      6  N   UNL     1       1.434   3.922  -1.206  0.00  0.00    -0.217 NA
ATOM      7  C   UNL     1       1.857   3.139  -2.184  0.00  0.00    +0.044 A 
ATOM      8  C   UNL     1       2.274   3.711  -3.375  0.00  0.00    +0.046 A 
ATOM      9  C   UNL     1       2.227   5.090  -3.500  0.00  0.00    +0.044 A 
ATOM     10  N   UNL     1       1.788   5.815  -2.485  0.00  0.00    -0.217 NA
ATOM     11  C   UNL     1       2.670   5.756  -4.777  0.00  0.00    +0.066 C 
ATOM     12  C   UNL     1       1.890   1.643  -2.003  0.00  0.00    +0.066 C 
ATOM     13  H   UNL     1      -1.040   5.202   2.195  0.00  0.00    +0.163 HD
ATOM     14  H   UNL     1       0.822   7.113  -0.456  0.00  0.00    +0.171 HD
ENDROOT
BRANCH   1  15
ATOM     15  C   UNL     1       2.822   5.752   1.576  0.00  0.00    +0.162 C 
ATOM     16  S   UNL     1       3.067   7.444   1.476  0.00  0.00    -0.016 S 
BRANCH  15  17
ATOM     17  N   UNL     1       3.865   4.910   1.440  0.00  0.00    -0.294 N 
ATOM     18  H   UNL     1       3.709   3.824   1.513  0.00  0.00    +0.154 HD
BRANCH  17  23
ATOM     19  C   UNL     1       9.066   6.970   0.492  0.00  0.00    +0.044 C 
ATOM     20  C   UNL     1       7.685   6.423   0.743  0.00  0.00    -0.049 A 
ATOM     21  C   UNL     1       6.949   6.876   1.823  0.00  0.00    +0.005 A 
ATOM     22  C   UNL     1       5.683   6.377   2.057  0.00  0.00    +0.025 A 
ATOM     23  C   UNL     1       5.148   5.418   1.206  0.00  0.00    +0.051 A 
ATOM     24  C   UNL     1       5.891   4.960   0.125  0.00  0.00    +0.062 A 
ATOM     25  C   UNL     1       7.156   5.468  -0.106  0.00  0.00    +0.025 A 
ATOM     26 CL   UNL     1       5.231   3.757  -0.938  0.00  0.00    -0.082 Cl
ENDBRANCH  17  23
ENDBRANCH  15  17
ENDBRANCH   1  15
BRANCH   3  27
ATOM     27  C   UNL     1      -1.502   4.555   0.113  0.00  0.00    +0.151 C 
BRANCH  27  28
ATOM     28  C   UNL     1      -2.158   5.691  -0.629  0.00  0.00    -0.028 A 
ATOM     29  C   UNL     1      -1.494   6.309  -1.672  0.00  0.00    +0.008 A 
ATOM     30  C   UNL     1      -2.094   7.351  -2.353  0.00  0.00    +0.038 A 
ATOM     31  C   UNL     1      -3.361   7.776  -1.990  0.00  0.00    +0.123 A 
ATOM     32  C   UNL     1      -4.024   7.157  -0.945  0.00  0.00    +0.038 A 
ATOM     33  C   UNL     1      -3.422   6.115  -0.265  0.00  0.00    +0.008 A 
ATOM     34  F   UNL     1      -3.948   8.795  -2.655  0.00  0.00    -0.205 F 
ENDBRANCH  27  28
ENDBRANCH   3  27
TORSDOF 5
