REMARK  Name = ZINC11783197
REMARK  8 active torsions:
REMARK  status: ('A' for Active; 'I' for Inactive)
REMARK    1  A    between atoms: C_1  and  C_2
REMARK    2  A    between atoms: C_4  and  C_33
REMARK    3  A    between atoms: C_6  and  C_8
REMARK    4  A    between atoms: C_15  and  C_18
REMARK    5  A    between atoms: C_18  and  N_19
REMARK    6  A    between atoms: C_20  and  C_22
REMARK    7  A    between atoms: C_22  and  C_23
REMARK    8  A    between atoms: C_26  and  C_32
REMARK                            x       y       z     vdW  Elec       q    Type
REMARK                         _______ _______ _______ _____ _____    ______ ____
ROOT
ATOM      1  C   UNL     1       1.752   3.170  -0.341  0.00  0.00    +0.061 A 
ATOM      2  C   UNL     1       3.118   3.429  -0.267  0.00  0.00    +0.015 A 
ATOM      3  C   UNL     1       3.991   2.441   0.139  0.00  0.00    +0.001 A 
ATOM      4  C   UNL     1       3.508   1.186   0.472  0.00  0.00    +0.007 A 
ATOM      5  C   UNL     1       2.158   0.920   0.399  0.00  0.00    -0.001 A 
ATOM      6  C   UNL     1       1.260   1.900   0.000  0.00  0.00    +0.135 A 
ATOM      7  O   UNL     1      -0.017   1.433   0.010  0.00  0.00    -0.486 OA
ATOM      8  C   UNL     1       0.002  -0.004   0.002  0.00  0.00    +0.195 C 
ATOM      9  C   UNL     1       1.351  -0.332   0.685  0.00  0.00    +0.085 C 
ENDROOT
BRANCH   1  15
ATOM     10  C   UNL     1      -2.813   4.588  -1.301  0.00  0.00    +0.066 C 
ATOM     11  C   UNL     1      -1.339   4.897  -1.230  0.00  0.00    +0.042 A 
ATOM     12  C   UNL     1      -0.869   6.156  -1.570  0.00  0.00    +0.046 A 
ATOM     13  C   UNL     1       0.494   6.399  -1.491  0.00  0.00    +0.042 A 
ATOM     14  N   UNL     1       1.300   5.428  -1.097  0.00  0.00    -0.232 NA
ATOM     15  C   UNL     1       0.818   4.234  -0.778  0.00  0.00    +0.164 A 
ATOM     16  N   UNL     1      -0.480   3.968  -0.848  0.00  0.00    -0.232 NA
ATOM     17  C   UNL     1       1.050   7.753  -1.851  0.00  0.00    +0.066 C 
ENDBRANCH   1  15
BRANCH   8  18
ATOM     18  C   UNL     1      -1.167  -0.567   0.813  0.00  0.00    +0.149 C 
BRANCH  18  19
ATOM     19  N   UNL     1      -2.428  -0.237   0.145  0.00  0.00    -0.312 N 
ATOM     20  C   UNL     1      -3.599  -0.633   0.682  0.00  0.00    +0.215 C 
ATOM     21  O   UNL     1      -3.608  -1.263   1.719  0.00  0.00    -0.276 OA
ATOM     22  H   UNL     1      -2.421   0.267  -0.684  0.00  0.00    +0.149 HD
BRANCH  20  23
ATOM     23  C   UNL     1      -4.897  -0.294  -0.005  0.00  0.00    +0.118 C 
BRANCH  23  24
ATOM     24  C   UNL     1      -6.066  -0.857   0.806  0.00  0.00    +0.082 C 
ATOM     25  C   UNL     1      -7.377  -0.615   0.050  0.00  0.00    +0.044 C 
ATOM     26  C   UNL     1      -8.541  -1.081   0.931  0.00  0.00    +0.071 C 
ATOM     27  N   UNL     1      -8.469  -0.396   2.223  0.00  0.00    -0.324 N 
ATOM     28  C   UNL     1      -7.297   0.004   2.737  0.00  0.00    +0.131 C 
ATOM     29  S   UNL     1      -7.290   0.785   4.260  0.00  0.00    -0.019 S 
ATOM     30  N   UNL     1      -6.129  -0.184   2.104  0.00  0.00    -0.323 N 
ATOM     31  C   UNL     1      -8.445  -2.592   1.147  0.00  0.00    +0.028 C 
ATOM     32  H   UNL     1      -9.287  -0.228   2.717  0.00  0.00    +0.148 HD
ATOM     33  H   UNL     1      -5.309   0.132   2.516  0.00  0.00    +0.148 HD
ENDBRANCH  23  24
ENDBRANCH  20  23
ENDBRANCH  18  19
ENDBRANCH   8  18
TORSDOF 5
