REMARK  Name = ZINC16136948
REMARK  6 active torsions:
REMARK  status: ('A' for Active; 'I' for Inactive)
REMARK    1  A    between atoms: C_1  and  C_2
REMARK    2  A    between atoms: C_2  and  C_19
REMARK    3  A    between atoms: N_3  and  N_4
REMARK    4  A    between atoms: C_5  and  C_7
REMARK    5  A    between atoms: C_7  and  S_8
REMARK    6  A    between atoms: S_8  and  C_9
REMARK                            x       y       z     vdW  Elec       q    Type
REMARK                         _______ _______ _______ _____ _____    ______ ____
ROOT
ATOM      1  N   UNL     1      -0.011   0.966   0.007  0.00  0.00    -0.206 N 
ATOM      2  C   UNL     1      -1.187   1.624   0.017  0.00  0.00    +0.242 C 
ATOM      3  O   UNL     1      -1.204   2.837   0.023  0.00  0.00    -0.273 OA
ATOM      4  H   UNL     1       0.002  -0.004   0.002  0.00  0.00    +0.177 HD
ENDROOT
BRANCH   1   7
ATOM      5  C   UNL     1       2.345  -0.458  -0.023  0.00  0.00    +0.068 C 
ATOM      6  C   UNL     1       2.325   1.049  -0.015  0.00  0.00    +0.063 C 
ATOM      7  N   UNL     1       1.193   1.683  -0.000  0.00  0.00    -0.185 NA
BRANCH   6   8
ATOM      8  C   UNL     1       3.592   1.804  -0.022  0.00  0.00    -0.002 A 
ATOM      9  C   UNL     1       4.813   1.125  -0.032  0.00  0.00    +0.011 A 
ATOM     10  C   UNL     1       5.994   1.837  -0.046  0.00  0.00    +0.020 A 
ATOM     11  C   UNL     1       5.972   3.221  -0.038  0.00  0.00    +0.041 A 
ATOM     12  C   UNL     1       4.765   3.901  -0.022  0.00  0.00    +0.020 A 
ATOM     13  C   UNL     1       3.576   3.201  -0.015  0.00  0.00    +0.011 A 
ATOM     14 CL   UNL     1       7.463   4.110  -0.047  0.00  0.00    -0.084 Cl
ENDBRANCH   6   8
ENDBRANCH   1   7
BRANCH   2  15
ATOM     15  C   UNL     1      -2.482   0.853   0.018  0.00  0.00    +0.174 C 
BRANCH  15  16
ATOM     16  S   UNL     1      -3.874   2.010   0.031  0.00  0.00    -0.078 S 
BRANCH  16  17
ATOM     17  C   UNL     1      -5.218   0.872   0.032  0.00  0.00    +0.168 A 
ATOM     18  N   UNL     1      -6.540   1.218   0.040  0.00  0.00    -0.333 N 
ATOM     19  H   UNL     1      -6.910   2.147   0.046  0.00  0.00    +0.168 HD
ATOM     20  C   UNL     1      -7.272   0.042   0.037  0.00  0.00    +0.067 A 
ATOM     21  C   UNL     1      -8.629  -0.246   0.041  0.00  0.00    +0.028 A 
ATOM     22  C   UNL     1      -9.052  -1.559   0.036  0.00  0.00    +0.002 A 
ATOM     23  C   UNL     1      -8.130  -2.595   0.025  0.00  0.00    +0.002 A 
ATOM     24  C   UNL     1      -6.779  -2.328   0.021  0.00  0.00    +0.030 A 
ATOM     25  C   UNL     1      -6.334  -1.003   0.027  0.00  0.00    +0.090 A 
ATOM     26  N   UNL     1      -5.100  -0.434   0.018  0.00  0.00    -0.222 NA
ENDBRANCH  16  17
ENDBRANCH  15  16
ENDBRANCH   2  15
TORSDOF 5
