REMARK  Name = ZINC05372751
REMARK  12 active torsions:
REMARK  status: ('A' for Active; 'I' for Inactive)
REMARK    1  A    between atoms: C_1  and  C_2
REMARK    2  A    between atoms: C_2  and  O_3
REMARK    3  A    between atoms: O_3  and  C_4
REMARK    4  A    between atoms: C_4  and  C_41
REMARK    5  A    between atoms: C_8  and  O_40
REMARK    6  A    between atoms: C_10  and  O_39
REMARK    7  A    between atoms: C_12  and  C_18
REMARK    8  A    between atoms: C_18  and  O_19
REMARK    9  A    between atoms: O_19  and  C_20
REMARK   10  A    between atoms: C_20  and  C_21
REMARK   11  A    between atoms: C_20  and  C_27
REMARK   12  A    between atoms: C_20  and  C_33
REMARK                            x       y       z     vdW  Elec       q    Type
REMARK                         _______ _______ _______ _____ _____    ______ ____
ROOT
ATOM      1  O   UNL     1      -3.530  -2.033  -0.706  0.00  0.00    -0.357 OA
ENDROOT
BRANCH   1   2
ATOM      2  C   UNL     1      -2.542  -2.274  -1.709  0.00  0.00    +0.196 C 
BRANCH   2   8
ATOM      3  C   UNL     1      -0.856   3.152  -3.275  0.00  0.00    +0.285 C 
ATOM      4  O   UNL     1       0.154   2.189  -3.653  0.00  0.00    -0.316 OA
ATOM      5  C   UNL     1      -0.438   0.911  -3.455  0.00  0.00    +0.211 C 
ATOM      6  C   UNL     1       0.468  -0.205  -2.967  0.00  0.00    +0.179 C 
ATOM      7  C   UNL     1      -0.429  -1.430  -2.716  0.00  0.00    +0.177 C 
ATOM      8  C   UNL     1      -1.578  -1.088  -1.771  0.00  0.00    +0.178 C 
ATOM      9  O   UNL     1      -2.297   0.078  -2.211  0.00  0.00    -0.340 OA
ATOM     10  C   UNL     1      -1.445   1.202  -2.306  0.00  0.00    +0.288 C 
ATOM     11  O   UNL     1      -2.006   2.434  -2.758  0.00  0.00    -0.294 OA
ATOM     12  C   UNL     1      -0.302   4.083  -2.194  0.00  0.00    +0.110 C 
BRANCH   7  13
ATOM     13  O   UNL     1      -0.964  -1.882  -3.961  0.00  0.00    -0.386 OA
ATOM     14  H   UNL     1      -0.293  -2.119  -4.615  0.00  0.00    +0.210 HD
ENDBRANCH   7  13
BRANCH   6  15
ATOM     15  O   UNL     1       1.446  -0.511  -3.963  0.00  0.00    -0.386 OA
ATOM     16  H   UNL     1       2.031  -1.244  -3.727  0.00  0.00    +0.210 HD
ENDBRANCH   6  15
BRANCH   3  17
ATOM     17  O   UNL     1      -1.242   3.919  -4.417  0.00  0.00    -0.327 OA
BRANCH  17  19
ATOM     18  C   UNL     1      -2.170   4.060  -6.644  0.00  0.00    +0.034 C 
ATOM     19  C   UNL     1      -1.796   3.141  -5.480  0.00  0.00    +0.162 C 
ENDBRANCH  17  19
ENDBRANCH   3  17
ENDBRANCH   2   8
ENDBRANCH   1   2
BRANCH   1  20
ATOM     20  C   UNL     1      -4.556  -3.027  -0.649  0.00  0.00    +0.144 C 
BRANCH  20  21
ATOM     21  C   UNL     1      -3.938  -4.370  -0.360  0.00  0.00    -0.007 A 
ATOM     22  C   UNL     1      -3.950  -4.873   0.928  0.00  0.00    +0.007 A 
ATOM     23  C   UNL     1      -3.387  -6.108   1.193  0.00  0.00    +0.000 A 
ATOM     24  C   UNL     1      -2.804  -6.835   0.172  0.00  0.00    +0.000 A 
ATOM     25  C   UNL     1      -2.788  -6.330  -1.115  0.00  0.00    +0.000 A 
ATOM     26  C   UNL     1      -3.354  -5.097  -1.381  0.00  0.00    +0.007 A 
ENDBRANCH  20  21
BRANCH  20  27
ATOM     27  C   UNL     1      -5.534  -2.678   0.442  0.00  0.00    -0.007 A 
ATOM     28  C   UNL     1      -6.676  -3.437   0.616  0.00  0.00    +0.007 A 
ATOM     29  C   UNL     1      -7.571  -3.120   1.621  0.00  0.00    +0.000 A 
ATOM     30  C   UNL     1      -7.329  -2.037   2.445  0.00  0.00    +0.000 A 
ATOM     31  C   UNL     1      -6.190  -1.274   2.268  0.00  0.00    +0.000 A 
ATOM     32  C   UNL     1      -5.293  -1.594   1.266  0.00  0.00    +0.007 A 
ENDBRANCH  20  27
BRANCH  20  33
ATOM     33  C   UNL     1      -5.277  -3.080  -1.972  0.00  0.00    -0.007 A 
ATOM     34  C   UNL     1      -5.828  -4.269  -2.411  0.00  0.00    +0.007 A 
ATOM     35  C   UNL     1      -6.493  -4.317  -3.622  0.00  0.00    +0.000 A 
ATOM     36  C   UNL     1      -6.599  -3.178  -4.398  0.00  0.00    +0.000 A 
ATOM     37  C   UNL     1      -6.043  -1.990  -3.961  0.00  0.00    +0.000 A 
ATOM     38  C   UNL     1      -5.382  -1.941  -2.748  0.00  0.00    +0.007 A 
ENDBRANCH  20  33
ENDBRANCH   1  20
TORSDOF 10
