REMARK  Name = ZINC54652684
REMARK  5 active torsions:
REMARK  status: ('A' for Active; 'I' for Inactive)
REMARK    1  A    between atoms: C_1  and  C_2
REMARK    2  A    between atoms: C_5  and  N_8
REMARK    3  A    between atoms: C_26  and  C_36
REMARK    4  A    between atoms: C_39  and  O_42
REMARK    5  A    between atoms: O_42  and  C_43
REMARK                            x       y       z     vdW  Elec       q    Type
REMARK                         _______ _______ _______ _____ _____    ______ ____
ROOT
ATOM      1  N   UNL     1       0.371  -3.945   0.900  0.00  0.00    -0.210 N 
ATOM      2  C   UNL     1       0.133  -4.776   1.965  0.00  0.00    +0.230 C 
ATOM      3  O   UNL     1      -0.431  -4.497   3.001  0.00  0.00    -0.274 OA
ATOM      4  C   UNL     1       0.720  -6.109   1.577  0.00  0.00    +0.091 C 
ATOM      5  C   UNL     1      -0.004  -7.413   1.928  0.00  0.00    +0.007 C 
ATOM      6  C   UNL     1       0.630  -8.255   0.713  0.00  0.00    +0.010 C 
ATOM      7  C   UNL     1       0.021  -7.358  -0.445  0.00  0.00    +0.016 C 
ATOM      8  C   UNL     1       0.308  -5.971   0.061  0.00  0.00    +0.092 C 
ATOM      9  C   UNL     1       0.705  -4.631  -0.254  0.00  0.00    +0.230 C 
ATOM     10  O   UNL     1       1.208  -4.208  -1.273  0.00  0.00    -0.274 OA
ATOM     11  C   UNL     1      -1.488  -7.424  -0.065  0.00  0.00    +0.061 C 
ATOM     12  C   UNL     1      -1.425  -7.546   1.489  0.00  0.00    +0.019 C 
ATOM     13  C   UNL     1      -2.676  -7.173   2.188  0.00  0.00    +0.063 C 
ATOM     14  C   UNL     1      -3.780  -8.043   1.633  0.00  0.00    +0.032 A 
ATOM     15  C   UNL     1      -3.803  -8.808   0.519  0.00  0.00    +0.087 A 
ATOM     16  N   UNL     1      -4.965  -9.515   0.328  0.00  0.00    -0.311 N 
ATOM     17  H   UNL     1      -5.051 -10.107  -0.435  0.00  0.00    +0.170 HD
ATOM     18  C   UNL     1      -5.983  -9.388   1.200  0.00  0.00    +0.289 A 
ATOM     19  O   UNL     1      -7.073  -9.931   1.173  0.00  0.00    -0.260 OA
ATOM     20  S   UNL     1      -5.388  -8.297   2.334  0.00  0.00    -0.030 S 
ATOM     21  S   UNL     1      -2.396  -8.860  -0.666  0.00  0.00    -0.103 S 
ENDROOT
BRANCH   1  26
ATOM     22  C   UNL     1      -0.002   1.711   1.190  0.00  0.00    +0.044 C 
ATOM     23  C   UNL     1       0.097   0.209   1.113  0.00  0.00    -0.050 A 
ATOM     24  C   UNL     1       0.439  -0.399  -0.080  0.00  0.00    +0.005 A 
ATOM     25  C   UNL     1       0.531  -1.776  -0.154  0.00  0.00    +0.024 A 
ATOM     26  C   UNL     1       0.279  -2.548   0.972  0.00  0.00    +0.044 A 
ATOM     27  C   UNL     1      -0.064  -1.934   2.169  0.00  0.00    +0.024 A 
ATOM     28  C   UNL     1      -0.149  -0.557   2.238  0.00  0.00    +0.005 A 
ENDBRANCH   1  26
BRANCH  13  29
ATOM     29  C   UNL     1      -2.990  -5.721   1.936  0.00  0.00    -0.039 A 
ATOM     30  C   UNL     1      -3.403  -5.312   0.682  0.00  0.00    +0.008 A 
ATOM     31  C   UNL     1      -3.692  -3.981   0.448  0.00  0.00    +0.046 A 
ATOM     32  C   UNL     1      -3.567  -3.055   1.474  0.00  0.00    +0.120 A 
ATOM     33  C   UNL     1      -3.153  -3.469   2.732  0.00  0.00    +0.046 A 
ATOM     34  C   UNL     1      -2.871  -4.801   2.962  0.00  0.00    +0.008 A 
BRANCH  32  35
ATOM     35  O   UNL     1      -3.850  -1.746   1.246  0.00  0.00    -0.495 OA
ATOM     36  C   UNL     1      -3.700  -0.849   2.348  0.00  0.00    +0.277 C 
ENDBRANCH  32  35
ENDBRANCH  13  29
TORSDOF 3
