REMARK  Name = ZINC40387971
REMARK  6 active torsions:
REMARK  status: ('A' for Active; 'I' for Inactive)
REMARK    1  A    between atoms: C_1  and  C_2
REMARK    2  A    between atoms: C_2  and  C_3
REMARK    3  A    between atoms: C_3  and  C_4
REMARK    4  A    between atoms: C_4  and  N_5
REMARK    5  A    between atoms: C_17  and  C_25
REMARK    6  A    between atoms: C_18  and  C_19
REMARK                            x       y       z     vdW  Elec       q    Type
REMARK                         _______ _______ _______ _____ _____    ______ ____
ROOT
ATOM      1  N   UNL     1       1.425  -2.500  -2.470  0.00  0.00    -0.315 N 
ATOM      2  C   UNL     1       0.705  -2.720  -3.603  0.00  0.00    +0.091 A 
ATOM      3  C   UNL     1       1.274  -3.155  -4.747  0.00  0.00    +0.046 A 
ATOM      4  C   UNL     1       2.655  -3.397  -4.799  0.00  0.00    +0.083 A 
ATOM      5  C   UNL     1       3.428  -3.179  -3.645  0.00  0.00    +0.083 A 
ATOM      6  C   UNL     1       2.759  -2.702  -2.435  0.00  0.00    +0.262 A 
ATOM      7  O   UNL     1       3.393  -2.496  -1.415  0.00  0.00    -0.267 OA
ATOM      8  C   UNL     1       4.814  -3.421  -3.692  0.00  0.00    +0.128 A 
ATOM      9  N   UNL     1       5.360  -3.845  -4.807  0.00  0.00    -0.235 NA
ATOM     10  C   UNL     1       4.637  -4.058  -5.915  0.00  0.00    +0.164 A 
ATOM     11  N   UNL     1       3.283  -3.841  -5.937  0.00  0.00    -0.213 N 
ATOM     12  N   UNL     1       2.816  -4.149  -7.219  0.00  0.00    -0.169 NA
ATOM     13  C   UNL     1       3.822  -4.536  -7.962  0.00  0.00    +0.070 A 
ATOM     14  C   UNL     1       4.993  -4.499  -7.193  0.00  0.00    +0.049 A 
ATOM     15  C   UNL     1       3.735  -4.955  -9.407  0.00  0.00    +0.068 C 
ENDROOT
BRANCH  14  16
ATOM     16  C   UNL     1       6.355  -4.860  -7.650  0.00  0.00    -0.013 A 
ATOM     17  C   UNL     1       7.354  -3.888  -7.708  0.00  0.00    +0.009 A 
ATOM     18  C   UNL     1       8.621  -4.230  -8.134  0.00  0.00    +0.001 A 
ATOM     19  C   UNL     1       8.902  -5.533  -8.504  0.00  0.00    +0.000 A 
ATOM     20  C   UNL     1       7.915  -6.501  -8.450  0.00  0.00    +0.001 A 
ATOM     21  C   UNL     1       6.645  -6.173  -8.019  0.00  0.00    +0.009 A 
ENDBRANCH  14  16
BRANCH   1  22
ATOM     22  C   UNL     1       0.739  -2.027  -1.265  0.00  0.00    +0.125 C 
BRANCH  22  23
ATOM     23  C   UNL     1       0.718  -0.497  -1.257  0.00  0.00    +0.021 C 
BRANCH  23  25
ATOM     24  C   UNL     1      -0.019   1.526   0.010  0.00  0.00    +0.004 C 
ATOM     25  C   UNL     1       0.002  -0.004   0.002  0.00  0.00    -0.002 C 
ENDBRANCH  23  25
ENDBRANCH  22  23
ENDBRANCH   1  22
TORSDOF 4
