REMARK  Name = ZINC04644556
REMARK  6 active torsions:
REMARK  status: ('A' for Active; 'I' for Inactive)
REMARK    1  A    between atoms: C_1  and  C_2
REMARK    2  A    between atoms: C_4  and  C_26
REMARK    3  A    between atoms: C_6  and  C_8
REMARK    4  A    between atoms: C_8  and  C_9
REMARK    5  A    between atoms: N_14  and  C_17
REMARK    6  A    between atoms: C_20  and  N_23
REMARK                            x       y       z     vdW  Elec       q    Type
REMARK                         _______ _______ _______ _____ _____    ______ ____
ROOT
ATOM      1  C   UNL     1       1.648  -3.153   2.892  0.00  0.00    +0.089 C 
ATOM      2  C   UNL     1       1.404  -3.853   4.245  0.00  0.00    +0.110 C 
ATOM      3  C   UNL     1       2.018  -2.903   5.250  0.00  0.00    +0.227 C 
ATOM      4  O   UNL     1       2.046  -3.074   6.450  0.00  0.00    -0.275 OA
ATOM      5  N   UNL     1       2.526  -1.846   4.605  0.00  0.00    -0.210 N 
ATOM      6  C   UNL     1       2.376  -1.882   3.272  0.00  0.00    +0.230 C 
ATOM      7  O   UNL     1       2.760  -1.034   2.496  0.00  0.00    -0.275 OA
ENDROOT
BRANCH   5   8
ATOM      8  C   UNL     1       3.164  -0.788   5.268  0.00  0.00    +0.044 A 
ATOM      9  C   UNL     1       4.381  -0.998   5.902  0.00  0.00    +0.026 A 
ATOM     10  C   UNL     1       5.008   0.046   6.553  0.00  0.00    +0.034 A 
ATOM     11  C   UNL     1       4.425   1.300   6.574  0.00  0.00    +0.126 A 
ATOM     12  C   UNL     1       3.212   1.512   5.944  0.00  0.00    +0.034 A 
ATOM     13  C   UNL     1       2.584   0.473   5.286  0.00  0.00    +0.026 A 
BRANCH  11  14
ATOM     14  N   UNL     1       5.099   2.417   7.273  0.00  0.00    +0.056 N 
ATOM     15  O   UNL     1       6.159   2.233   7.825  0.00  0.00    -0.126 OA
ATOM     16  O   UNL     1       4.590   3.514   7.292  0.00  0.00    -0.126 OA
ENDBRANCH  11  14
ENDBRANCH   5   8
BRANCH   1  17
ATOM     17  C   UNL     1       0.319  -2.828   2.207  0.00  0.00    +0.048 C 
BRANCH  17  23
ATOM     18  C   UNL     1       1.103   1.224  -0.625  0.00  0.00    +0.044 C 
ATOM     19  C   UNL     1       0.961  -0.271  -0.496  0.00  0.00    -0.050 A 
ATOM     20  C   UNL     1       1.077  -1.075  -1.615  0.00  0.00    +0.006 A 
ATOM     21  C   UNL     1       0.948  -2.446  -1.496  0.00  0.00    -0.050 A 
ATOM     22  C   UNL     1       0.702  -3.014  -0.260  0.00  0.00    +0.007 A 
ATOM     23  C   UNL     1       0.587  -2.210   0.859  0.00  0.00    -0.046 A 
ATOM     24  C   UNL     1       0.721  -0.839   0.741  0.00  0.00    +0.007 A 
ATOM     25  C   UNL     1       1.073  -3.323  -2.716  0.00  0.00    +0.044 C 
ENDBRANCH  17  23
ENDBRANCH   1  17
TORSDOF 4
