REMARK  Name = ZINC60415201
REMARK  5 active torsions:
REMARK  status: ('A' for Active; 'I' for Inactive)
REMARK    1  A    between atoms: C_2  and  C_11
REMARK    2  A    between atoms: C_12  and  C_13
REMARK    3  A    between atoms: N_15  and  N_16
REMARK    4  A    between atoms: N_19  and  C_20
REMARK    5  A    between atoms: C_20  and  C_21
REMARK                            x       y       z     vdW  Elec       q    Type
REMARK                         _______ _______ _______ _____ _____    ______ ____
ROOT
ATOM      1  C   UNL     1       2.319   5.710   0.009  0.00  0.00    +0.253 C 
ATOM      2  O   UNL     1       1.259   6.308   0.022  0.00  0.00    -0.269 OA
ATOM      3  N   UNL     1       3.479   6.396   0.002  0.00  0.00    -0.230 N 
ATOM      4  H   UNL     1       4.324   5.920  -0.008  0.00  0.00    +0.173 HD
ENDROOT
BRANCH   3   5
ATOM      5  N   UNL     1       3.465   7.797   0.009  0.00  0.00    -0.218 N 
ATOM      6  C   UNL     1       4.625   8.483   0.002  0.00  0.00    +0.316 C 
ATOM      7  O   UNL     1       4.613   9.698   0.008  0.00  0.00    -0.251 OA
ATOM      8  N   UNL     1       5.799   7.821  -0.012  0.00  0.00    -0.290 N 
ATOM      9  H   UNL     1       2.620   8.273   0.019  0.00  0.00    +0.174 HD
ATOM     10  H   UNL     1       5.809   6.851  -0.017  0.00  0.00    +0.151 HD
BRANCH   8  11
ATOM     11  C   UNL     1       7.060   8.566  -0.021  0.00  0.00    +0.219 C 
BRANCH  11  12
ATOM     12  C   UNL     1       8.233   7.584  -0.036  0.00  0.00    +0.405 C 
ATOM     13  F   UNL     1       8.157   6.785  -1.182  0.00  0.00    -0.169 F 
ATOM     14  F   UNL     1       9.438   8.296  -0.044  0.00  0.00    -0.169 F 
ATOM     15  F   UNL     1       8.178   6.773   1.103  0.00  0.00    -0.169 F 
ENDBRANCH  11  12
ENDBRANCH   8  11
ENDBRANCH   3   5
BRANCH   1  17
ATOM     16  C   UNL     1       1.172   3.561   0.009  0.00  0.00    +0.013 C 
ATOM     17  C   UNL     1       2.334   4.248   0.002  0.00  0.00    +0.069 C 
BRANCH  16  19
ATOM     18  C   UNL     1      -0.017   1.377   0.010  0.00  0.00    +0.057 A 
ATOM     19  C   UNL     1       1.187   2.091   0.002  0.00  0.00    -0.020 A 
ATOM     20  C   UNL     1       2.405   1.402  -0.013  0.00  0.00    +0.031 A 
ATOM     21  C   UNL     1       2.415   0.023  -0.021  0.00  0.00    +0.087 A 
ATOM     22  C   UNL     1       1.220  -0.686  -0.013  0.00  0.00    +0.184 A 
ATOM     23  C   UNL     1       0.002  -0.004   0.002  0.00  0.00    +0.168 A 
ATOM     24  O   UNL     1      -1.010  -0.921   0.006  0.00  0.00    -0.453 OA
ATOM     25  C   UNL     1      -0.409  -2.158  -0.419  0.00  0.00    +0.466 C 
ATOM     26  O   UNL     1       0.968  -2.026  -0.018  0.00  0.00    -0.451 OA
ATOM     27 CL   UNL     1       3.927  -0.830  -0.040  0.00  0.00    -0.080 Cl
ENDBRANCH  16  19
ENDBRANCH   1  17
TORSDOF 5
