REMARK  Name = ZINC09596496
REMARK  6 active torsions:
REMARK  status: ('A' for Active; 'I' for Inactive)
REMARK    1  A    between atoms: C_4  and  C_7
REMARK    2  A    between atoms: C_7  and  C_27
REMARK    3  A    between atoms: N_10  and  C_14
REMARK    4  A    between atoms: C_14  and  N_59
REMARK    5  A    between atoms: N_17  and  C_20
REMARK    6  A    between atoms: C_23  and  O_26
REMARK                            x       y       z     vdW  Elec       q    Type
REMARK                         _______ _______ _______ _____ _____    ______ ____
ROOT
ATOM      1  C   UNL     1      -0.997   8.747  -3.334  0.00  0.00    +0.164 C 
ATOM      2  C   UNL     1       0.048   7.788  -3.868  0.00  0.00    +0.254 C 
ATOM      3  O   UNL     1       0.170   7.400  -5.010  0.00  0.00    -0.272 OA
ATOM      4  N   UNL     1       0.811   7.455  -2.809  0.00  0.00    -0.241 N 
ATOM      5  C   UNL     1       0.403   8.069  -1.693  0.00  0.00    +0.308 C 
ATOM      6  O   UNL     1       0.938   7.930  -0.611  0.00  0.00    -0.252 OA
ATOM      7  N   UNL     1      -0.665   8.859  -1.903  0.00  0.00    -0.278 N 
ATOM      8  H   UNL     1      -1.127   9.398  -1.241  0.00  0.00    +0.152 HD
ENDROOT
BRANCH   1  12
ATOM      9  C   UNL     1      -4.925   7.146  -3.844  0.00  0.00    +0.000 A 
ATOM     10  C   UNL     1      -4.038   7.152  -4.904  0.00  0.00    +0.000 A 
ATOM     11  C   UNL     1      -2.767   7.670  -4.739  0.00  0.00    +0.006 A 
ATOM     12  C   UNL     1      -2.383   8.183  -3.514  0.00  0.00    -0.011 A 
ATOM     13  C   UNL     1      -3.268   8.172  -2.452  0.00  0.00    +0.006 A 
ATOM     14  C   UNL     1      -4.541   7.658  -2.618  0.00  0.00    +0.000 A 
ENDBRANCH   1  12
BRANCH   1  15
ATOM     15  C   UNL     1      -0.881  10.088  -4.011  0.00  0.00    -0.011 A 
ATOM     16  C   UNL     1      -0.891  10.168  -5.391  0.00  0.00    +0.006 A 
ATOM     17  C   UNL     1      -0.789  11.399  -6.013  0.00  0.00    +0.000 A 
ATOM     18  C   UNL     1      -0.667  12.548  -5.255  0.00  0.00    +0.000 A 
ATOM     19  C   UNL     1      -0.651  12.467  -3.875  0.00  0.00    +0.000 A 
ATOM     20  C   UNL     1      -0.758  11.238  -3.253  0.00  0.00    +0.006 A 
ENDBRANCH   1  15
BRANCH   4  21
ATOM     21  C   UNL     1       1.952   6.537  -2.873  0.00  0.00    +0.043 C 
BRANCH  21  27
ATOM     22  C   UNL     1       2.584   4.334  -2.091  0.00  0.00    -0.057 C 
ATOM     23  C   UNL     1       2.087   2.898  -1.912  0.00  0.00    +0.086 C 
ATOM     24  N   UNL     1       0.937   2.891  -0.998  0.00  0.00    -0.333 N 
ATOM     25  C   UNL     1      -0.155   3.722  -1.522  0.00  0.00    +0.086 C 
ATOM     26  C   UNL     1       0.342   5.159  -1.701  0.00  0.00    -0.057 C 
ATOM     27  N   UNL     1       1.484   5.154  -2.640  0.00  0.00    +0.392 N 
ATOM     28  H   UNL     1       1.180   4.750  -3.534  0.00  0.00    -0.079 HD
BRANCH  24  29
ATOM     29  C   UNL     1       0.499   1.584  -0.753  0.00  0.00    +0.030 A 
ATOM     30  C   UNL     1      -0.582   1.360   0.090  0.00  0.00    +0.026 A 
ATOM     31  C   UNL     1      -1.013   0.070   0.331  0.00  0.00    +0.047 A 
ATOM     32  C   UNL     1      -0.368  -1.001  -0.269  0.00  0.00    +0.117 A 
ATOM     33  C   UNL     1       0.712  -0.778  -1.111  0.00  0.00    +0.047 A 
ATOM     34  C   UNL     1       1.146   0.511  -1.352  0.00  0.00    +0.026 A 
BRANCH  32  35
ATOM     35  O   UNL     1      -0.794  -2.270  -0.032  0.00  0.00    -0.507 OA
ATOM     36  H   UNL     1      -1.466  -2.582  -0.653  0.00  0.00    +0.292 HD
ENDBRANCH  32  35
ENDBRANCH  24  29
ENDBRANCH  21  27
ENDBRANCH   4  21
TORSDOF 6
