REMARK  Name = ZINC08394521
REMARK  9 active torsions:
REMARK  status: ('A' for Active; 'I' for Inactive)
REMARK    1  A    between atoms: C_1  and  C_2
REMARK    2  A    between atoms: C_5  and  C_8
REMARK    3  A    between atoms: N_10  and  C_11
REMARK    4  A    between atoms: C_11  and  C_13
REMARK    5  A    between atoms: C_11  and  C_16
REMARK    6  A    between atoms: C_13  and  C_14
REMARK    7  A    between atoms: C_13  and  C_15
REMARK    8  A    between atoms: N_18  and  C_19
REMARK    9  A    between atoms: C_22  and  N_26
REMARK                            x       y       z     vdW  Elec       q    Type
REMARK                         _______ _______ _______ _____ _____    ______ ____
ROOT
ATOM      1  C   UNL     1      -2.628   4.369   0.526  0.00  0.00    +0.162 C 
ENDROOT
BRANCH   1   4
ATOM      2  C   UNL     1      -1.603   2.198   0.103  0.00  0.00    +0.245 C 
ATOM      3  O   UNL     1      -2.658   1.675   0.405  0.00  0.00    -0.270 OA
ATOM      4  N   UNL     1      -1.485   3.541   0.131  0.00  0.00    -0.300 N 
ATOM      5  H   UNL     1      -0.644   3.959  -0.111  0.00  0.00    +0.150 HD
BRANCH   2  10
ATOM      6  C   UNL     1       2.878  -1.052  -1.466  0.00  0.00    +0.044 C 
ATOM      7  C   UNL     1       1.705  -0.201  -1.054  0.00  0.00    -0.050 A 
ATOM      8  C   UNL     1       0.508  -0.801  -0.704  0.00  0.00    +0.004 A 
ATOM      9  C   UNL     1      -0.570  -0.027  -0.326  0.00  0.00    +0.013 A 
ATOM     10  C   UNL     1      -0.451   1.363  -0.296  0.00  0.00    +0.037 A 
ATOM     11  C   UNL     1       0.760   1.962  -0.649  0.00  0.00    +0.013 A 
ATOM     12  C   UNL     1       1.830   1.176  -1.026  0.00  0.00    +0.004 A 
ENDBRANCH   2  10
ENDBRANCH   1   4
BRANCH   1  13
ATOM     13  C   UNL     1      -2.487   5.741  -0.082  0.00  0.00    +0.238 C 
ATOM     14  O   UNL     1      -1.385   6.215  -0.261  0.00  0.00    -0.273 OA
ATOM     15  N   UNL     1      -3.587   6.441  -0.424  0.00  0.00    -0.284 N 
ATOM     16  H   UNL     1      -4.460   6.020  -0.392  0.00  0.00    +0.155 HD
BRANCH  15  17
ATOM     17  C   UNL     1      -3.468   7.778  -0.827  0.00  0.00    +0.036 A 
ATOM     18  C   UNL     1      -2.278   8.233  -1.380  0.00  0.00    +0.045 A 
ATOM     19  C   UNL     1      -2.162   9.550  -1.782  0.00  0.00    +0.065 A 
ATOM     20  C   UNL     1      -3.232  10.422  -1.623  0.00  0.00    +0.062 A 
ATOM     21  C   UNL     1      -4.420   9.967  -1.065  0.00  0.00    +0.065 A 
ATOM     22  C   UNL     1      -4.537   8.649  -0.668  0.00  0.00    +0.045 A 
ATOM     23 CL   UNL     1      -5.758  11.056  -0.866  0.00  0.00    -0.082 Cl
ATOM     24 CL   UNL     1      -0.677  10.118  -2.479  0.00  0.00    -0.082 Cl
BRANCH  20  25
ATOM     25  N   UNL     1      -3.113  11.758  -2.025  0.00  0.00    -0.356 N 
ATOM     26  H   UNL     1      -3.861  12.367  -1.914  0.00  0.00    +0.142 HD
ATOM     27  H   UNL     1      -2.283  12.075  -2.414  0.00  0.00    +0.142 HD
ENDBRANCH  20  25
ENDBRANCH  15  17
ENDBRANCH   1  13
BRANCH   1  28
ATOM     28  C   UNL     1      -2.669   4.487   2.050  0.00  0.00    +0.012 C 
ATOM     29  C   UNL     1      -3.001   3.123   2.659  0.00  0.00    +0.009 C 
ATOM     30  C   UNL     1      -1.305   4.956   2.562  0.00  0.00    +0.009 C 
ENDBRANCH   1  28
TORSDOF 6
