REMARK  Name = ZINC03336185
REMARK  8 active torsions:
REMARK  status: ('A' for Active; 'I' for Inactive)
REMARK    1  A    between atoms: C_1  and  C_2
REMARK    2  A    between atoms: C_7  and  C_9
REMARK    3  A    between atoms: C_7  and  C_10
REMARK    4  A    between atoms: N_13  and  C_17
REMARK    5  A    between atoms: C_17  and  C_18
REMARK    6  A    between atoms: N_20  and  C_21
REMARK    7  A    between atoms: C_22  and  C_32
REMARK    8  A    between atoms: C_24  and  C_26
REMARK                            x       y       z     vdW  Elec       q    Type
REMARK                         _______ _______ _______ _____ _____    ______ ____
ROOT
ATOM      1  C   UNL     1      -4.972  -3.399  -2.310  0.00  0.00    +0.236 C 
ATOM      2  O   UNL     1      -4.651  -2.256  -2.558  0.00  0.00    -0.274 OA
ATOM      3  N   UNL     1      -6.127  -3.895  -2.795  0.00  0.00    -0.278 N 
ATOM      4  H   UNL     1      -6.383  -4.809  -2.596  0.00  0.00    +0.155 HD
ENDROOT
BRANCH   3   5
ATOM      5  C   UNL     1      -6.948  -3.100  -3.578  0.00  0.00    +0.084 A 
ATOM      6  C   UNL     1      -8.167  -3.434  -4.156  0.00  0.00    +0.066 A 
ATOM      7  C   UNL     1      -8.815  -2.453  -4.910  0.00  0.00    +0.031 A 
ATOM      8  C   UNL     1      -8.183  -1.252  -5.007  0.00  0.00    +0.022 A 
ATOM      9  S   UNL     1      -6.706  -1.505  -4.044  0.00  0.00    -0.073 S 
BRANCH   8  10
ATOM     10  C   UNL     1      -8.617  -0.036  -5.727  0.00  0.00    -0.011 A 
ATOM     11  C   UNL     1      -9.827  -0.029  -6.424  0.00  0.00    +0.009 A 
ATOM     12  C   UNL     1     -10.226   1.108  -7.095  0.00  0.00    +0.001 A 
ATOM     13  C   UNL     1      -9.431   2.240  -7.077  0.00  0.00    +0.000 A 
ATOM     14  C   UNL     1      -8.231   2.240  -6.389  0.00  0.00    +0.001 A 
ATOM     15  C   UNL     1      -7.822   1.111  -5.709  0.00  0.00    +0.009 A 
ENDBRANCH   8  10
BRANCH   6  16
ATOM     16  C   UNL     1      -8.752  -4.769  -3.981  0.00  0.00    +0.244 C 
ATOM     17  O   UNL     1      -8.168  -5.607  -3.319  0.00  0.00    -0.270 OA
ATOM     18  N   UNL     1      -9.936  -5.066  -4.552  0.00  0.00    -0.325 N 
ATOM     19  H   UNL     1     -10.401  -4.398  -5.079  0.00  0.00    +0.145 HD
ATOM     20  H   UNL     1     -10.322  -5.948  -4.436  0.00  0.00    +0.145 HD
ENDBRANCH   6  16
ENDBRANCH   3   5
BRANCH   1  21
ATOM     21  C   UNL     1      -4.079  -4.264  -1.458  0.00  0.00    +0.214 C 
BRANCH  21  33
ATOM     22  C   UNL     1      -0.159   1.471  -0.048  0.00  0.00    +0.007 C 
ATOM     23  C   UNL     1      -0.085  -0.057  -0.027  0.00  0.00    -0.011 C 
ATOM     24  C   UNL     1      -1.501  -0.636   0.015  0.00  0.00    +0.038 C 
ATOM     25  C   UNL     1      -1.428  -2.159   0.057  0.00  0.00    +0.113 C 
ATOM     26  C   UNL     1      -0.642  -2.627   1.276  0.00  0.00    +0.041 C 
ATOM     27  C   UNL     1       0.772  -2.041   1.230  0.00  0.00    -0.032 C 
ATOM     28  C   UNL     1       0.688  -0.513   1.212  0.00  0.00    +0.009 C 
ATOM     29  C   UNL     1       1.485  -2.527  -0.033  0.00  0.00    +0.011 C 
ATOM     30  C   UNL     1       1.553  -2.495   2.465  0.00  0.00    +0.011 C 
ATOM     31  C   UNL     1      -2.817  -2.754   0.064  0.00  0.00    +0.247 C 
ATOM     32  O   UNL     1      -3.679  -2.595   0.901  0.00  0.00    -0.273 OA
ATOM     33  N   UNL     1      -2.895  -3.499  -1.058  0.00  0.00    -0.215 N 
ATOM     34  C   UNL     1      -1.756  -3.453  -1.761  0.00  0.00    +0.310 C 
ATOM     35  O   UNL     1      -1.585  -4.042  -2.810  0.00  0.00    -0.252 OA
ATOM     36  N   UNL     1      -0.823  -2.679  -1.176  0.00  0.00    -0.285 N 
ATOM     37  H   UNL     1       0.073  -2.500  -1.504  0.00  0.00    +0.151 HD
ENDBRANCH  21  33
ENDBRANCH   1  21
TORSDOF 5
