REMARK  Name = ZINC36907702
REMARK  8 active torsions:
REMARK  status: ('A' for Active; 'I' for Inactive)
REMARK    1  A    between atoms: C_1  and  C_2
REMARK    2  A    between atoms: C_5  and  N_13
REMARK    3  A    between atoms: C_7  and  C_12
REMARK    4  A    between atoms: N_10  and  C_11
REMARK    5  A    between atoms: N_13  and  C_14
REMARK    6  A    between atoms: C_14  and  C_15
REMARK    7  A    between atoms: C_18  and  S_21
REMARK    8  A    between atoms: S_21  and  N_24
REMARK                            x       y       z     vdW  Elec       q    Type
REMARK                         _______ _______ _______ _____ _____    ______ ____
ROOT
ATOM      1  N   UNL     1       1.485  -2.507  -2.431  0.00  0.00    +0.384 N 
ATOM      2  H   UNL     1       2.405  -2.095  -2.432  0.00  0.00    -0.085 HD
ATOM      3  H   UNL     1       1.567  -3.512  -2.389  0.00  0.00    -0.085 HD
ENDROOT
BRANCH   1   7
ATOM      4  C   UNL     1      -0.019   1.526   0.010  0.00  0.00    -0.013 C 
ATOM      5  C   UNL     1       0.002  -0.004   0.002  0.00  0.00    -0.074 C 
ATOM      6  C   UNL     1       0.717  -0.497  -1.258  0.00  0.00    -0.031 C 
ATOM      7  C   UNL     1       0.735  -2.028  -1.262  0.00  0.00    -0.072 C 
ATOM      8  C   UNL     1       1.410  -2.524   0.020  0.00  0.00    -0.045 C 
ATOM      9  C   UNL     1       0.669  -1.956   1.232  0.00  0.00    -0.077 C 
ATOM     10  N   UNL     1       0.711  -0.490   1.192  0.00  0.00    +0.380 N 
ATOM     11  C   UNL     1       0.067   0.050   2.397  0.00  0.00    -0.096 C 
ATOM     12  C   UNL     1       1.365  -4.053   0.062  0.00  0.00    +0.004 C 
ATOM     13  H   UNL     1       1.671  -0.182   1.159  0.00  0.00    -0.082 HD
ENDBRANCH   1   7
BRANCH   1  14
ATOM     14  C   UNL     1       0.775  -2.125  -3.659  0.00  0.00    -0.046 C 
BRANCH  14  15
ATOM     15  C   UNL     1       1.544  -2.616  -4.858  0.00  0.00    -0.064 A 
ATOM     16  C   UNL     1       2.510  -1.814  -5.436  0.00  0.00    +0.003 A 
ATOM     17  C   UNL     1       3.216  -2.265  -6.535  0.00  0.00    +0.029 A 
ATOM     18  C   UNL     1       2.955  -3.519  -7.057  0.00  0.00    +0.105 A 
ATOM     19  C   UNL     1       1.989  -4.321  -6.479  0.00  0.00    +0.029 A 
ATOM     20  C   UNL     1       1.287  -3.872  -5.376  0.00  0.00    +0.003 A 
BRANCH  18  21
ATOM     21  S   UNL     1       3.853  -4.093  -8.460  0.00  0.00    +0.056 S 
ATOM     22  O   UNL     1       3.042  -5.077  -9.087  0.00  0.00    -0.153 OA
ATOM     23  O   UNL     1       4.317  -2.938  -9.146  0.00  0.00    -0.153 OA
BRANCH  21  24
ATOM     24  N   UNL     1       5.197  -4.878  -7.893  0.00  0.00    -0.204 NA
ATOM     25  H   UNL     1       5.581  -5.610  -8.400  0.00  0.00    +0.144 HD
ATOM     26  H   UNL     1       5.599  -4.606  -7.054  0.00  0.00    +0.144 HD
ENDBRANCH  21  24
ENDBRANCH  18  21
ENDBRANCH  14  15
ENDBRANCH   1  14
TORSDOF 5
