REMARK  Name = ZINC04833489
REMARK  8 active torsions:
REMARK  status: ('A' for Active; 'I' for Inactive)
REMARK    1  A    between atoms: C_1  and  C_2
REMARK    2  A    between atoms: C_2  and  C_26
REMARK    3  A    between atoms: C_7  and  N_11
REMARK    4  A    between atoms: C_8  and  C_9
REMARK    5  A    between atoms: N_11  and  C_12
REMARK    6  A    between atoms: C_12  and  N_14
REMARK    7  A    between atoms: C_15  and  C_17
REMARK    8  A    between atoms: N_24  and  C_25
REMARK                            x       y       z     vdW  Elec       q    Type
REMARK                         _______ _______ _______ _____ _____    ______ ____
ROOT
ATOM      1  C   UNL     1      -0.019   1.526   0.010  0.00  0.00    -0.010 C 
ATOM      2  C   UNL     1       0.002  -0.004   0.002  0.00  0.00    -0.067 C 
ATOM      3  C   UNL     1       0.704  -0.495  -1.269  0.00  0.00    +0.025 C 
ATOM      4  C   UNL     1       0.882  -2.003  -1.151  0.00  0.00    -0.021 A 
ATOM      5  C   UNL     1       0.768  -2.609   0.054  0.00  0.00    -0.021 A 
ATOM      6  S   UNL     1       1.042  -4.322  -0.281  0.00  0.00    -0.079 S 
ATOM      7  C   UNL     1       1.298  -4.252  -1.940  0.00  0.00    +0.089 A 
ATOM      8  C   UNL     1       1.174  -2.905  -2.246  0.00  0.00    +0.083 A 
ATOM      9  C   UNL     1       0.478  -1.934   1.357  0.00  0.00    -0.035 C 
ATOM     10  N   UNL     1       0.713  -0.488   1.193  0.00  0.00    +0.384 N 
ATOM     11  C   UNL     1       0.221   0.226   2.379  0.00  0.00    -0.095 C 
ATOM     12  C   UNL     1      -1.434  -0.531   0.020  0.00  0.00    -0.010 C 
ATOM     13  H   UNL     1       1.702  -0.318   1.085  0.00  0.00    -0.081 HD
ENDROOT
BRANCH   8  14
ATOM     14  C   UNL     1       1.328  -2.427  -3.587  0.00  0.00    +0.102 C 
ATOM     15  N   UNL     1       1.450  -2.047  -4.651  0.00  0.00    -0.191 NA
ENDBRANCH   8  14
BRANCH   7  16
ATOM     16  N   UNL     1       1.573  -5.301  -2.805  0.00  0.00    -0.290 N 
ATOM     17  H   UNL     1       1.703  -5.128  -3.751  0.00  0.00    +0.154 HD
BRANCH  16  18
ATOM     18  C   UNL     1       1.660  -6.560  -2.332  0.00  0.00    +0.141 C 
ATOM     19  S   UNL     1       1.431  -6.864  -0.662  0.00  0.00    -0.018 S 
BRANCH  18  20
ATOM     20  N   UNL     1       1.927  -7.579  -3.172  0.00  0.00    -0.264 N 
ATOM     21  C   UNL     1       2.014  -8.838  -2.699  0.00  0.00    +0.250 C 
ATOM     22  O   UNL     1       1.852  -9.054  -1.514  0.00  0.00    -0.270 OA
ATOM     23  H   UNL     1       2.057  -7.406  -4.118  0.00  0.00    +0.157 HD
BRANCH  21  24
ATOM     24  C   UNL     1       2.307  -9.955  -3.620  0.00  0.00    +0.037 A 
ATOM     25  C   UNL     1       2.499  -9.710  -4.981  0.00  0.00    +0.013 A 
ATOM     26  C   UNL     1       2.772 -10.758  -5.836  0.00  0.00    +0.001 A 
ATOM     27  C   UNL     1       2.855 -12.049  -5.347  0.00  0.00    +0.000 A 
ATOM     28  C   UNL     1       2.665 -12.300  -4.000  0.00  0.00    +0.001 A 
ATOM     29  C   UNL     1       2.397 -11.260  -3.133  0.00  0.00    +0.013 A 
ENDBRANCH  21  24
ENDBRANCH  18  20
ENDBRANCH  16  18
ENDBRANCH   7  16
TORSDOF 5
