REMARK  Name = ZINC03978020
REMARK  7 active torsions:
REMARK  status: ('A' for Active; 'I' for Inactive)
REMARK    1  A    between atoms: C_1  and  C_2
REMARK    2  A    between atoms: C_2  and  C_4
REMARK    3  A    between atoms: C_4  and  O_31
REMARK    4  A    between atoms: C_9  and  C_30
REMARK    5  A    between atoms: C_27  and  C_28
REMARK    6  A    between atoms: O_31  and  C_32
REMARK    7  A    between atoms: C_32  and  C_34
REMARK                            x       y       z     vdW  Elec       q    Type
REMARK                         _______ _______ _______ _____ _____    ______ ____
ROOT
ATOM      1  C   UNL     1      -0.084  -0.902  -1.196  0.00  0.00    +0.176 C 
ATOM      2  C   UNL     1       1.335  -1.372  -1.575  0.00  0.00    +0.057 C 
ATOM      3  C   UNL     1       1.299  -2.916  -1.574  0.00  0.00    +0.009 C 
ATOM      4  C   UNL     1      -0.201  -3.255  -1.822  0.00  0.00    +0.006 C 
ATOM      5  C   UNL     1      -0.907  -2.178  -0.976  0.00  0.00    +0.018 C 
ATOM      6  C   UNL     1      -2.364  -1.998  -1.334  0.00  0.00    +0.011 C 
ATOM      7  C   UNL     1      -2.546  -1.752  -2.832  0.00  0.00    +0.005 C 
ATOM      8  C   UNL     1      -1.961  -2.949  -3.587  0.00  0.00    +0.007 C 
ATOM      9  C   UNL     1      -0.461  -3.032  -3.312  0.00  0.00    +0.021 C 
ATOM     10  C   UNL     1       0.186  -4.130  -4.121  0.00  0.00    -0.003 C 
ATOM     11  C   UNL     1      -0.075  -4.126  -5.452  0.00  0.00    +0.041 C 
ATOM     12  C   UNL     1      -0.983  -3.035  -5.880  0.00  0.00    -0.020 C 
ATOM     13  C   UNL     1      -0.634  -2.281  -6.936  0.00  0.00    +0.052 C 
ATOM     14  C   UNL     1      -1.384  -1.183  -7.380  0.00  0.00    +0.160 C 
ATOM     15  O   UNL     1      -1.054  -0.586  -8.385  0.00  0.00    -0.292 OA
ATOM     16  C   UNL     1      -2.600  -0.746  -6.604  0.00  0.00    +0.064 C 
ATOM     17  C   UNL     1      -2.375  -0.237  -5.178  0.00  0.00    +0.016 C 
ATOM     18  C   UNL     1      -3.022  -1.614  -5.422  0.00  0.00    +0.011 C 
ATOM     19  C   UNL     1      -2.233  -2.823  -5.078  0.00  0.00    +0.001 C 
ATOM     20  C   UNL     1      -3.143  -3.993  -5.457  0.00  0.00    +0.017 C 
ATOM     21 CL   UNL     1       0.593  -5.291  -6.552  0.00  0.00    -0.084 Cl
ATOM     22  C   UNL     1      -0.823  -2.573   0.500  0.00  0.00    +0.016 C 
ENDROOT
BRANCH   1  24
ATOM     23  C   UNL     1      -1.155   0.876   0.388  0.00  0.00    +0.090 C 
ATOM     24  C   UNL     1      -0.040  -0.087   0.071  0.00  0.00    +0.174 C 
ATOM     25  O   UNL     1       0.889  -0.207   0.834  0.00  0.00    -0.293 OA
ENDBRANCH   1  24
BRANCH   1  26
ATOM     26  O   UNL     1      -0.648  -0.129  -2.257  0.00  0.00    -0.450 OA
BRANCH  26  27
ATOM     27  C   UNL     1       0.020   0.973  -2.631  0.00  0.00    +0.305 C 
ATOM     28  O   UNL     1       1.097   1.221  -2.142  0.00  0.00    -0.251 OA
ATOM     29  C   UNL     1      -0.573   1.902  -3.659  0.00  0.00    +0.136 C 
ENDBRANCH  26  27
ENDBRANCH   1  26
TORSDOF 3
