REMARK  Name = ZINC63162933
REMARK  6 active torsions:
REMARK  status: ('A' for Active; 'I' for Inactive)
REMARK    1  A    between atoms: C_1  and  C_2
REMARK    2  A    between atoms: C_5  and  C_8
REMARK    3  A    between atoms: C_12  and  S_16
REMARK    4  A    between atoms: N_14  and  C_15
REMARK    5  A    between atoms: S_16  and  C_17
REMARK    6  A    between atoms: C_17  and  C_18
REMARK                            x       y       z     vdW  Elec       q    Type
REMARK                         _______ _______ _______ _____ _____    ______ ____
ROOT
ATOM      1  C   UNL     1       0.056  -4.264  -0.018  0.00  0.00    +0.171 C 
ATOM      2  N   UNL     1      -0.812  -4.795  -1.101  0.00  0.00    -0.233 NA
ATOM      3  N   UNL     1      -1.161  -6.149  -0.661  0.00  0.00    -0.229 NA
ATOM      4  C   UNL     1      -1.016  -6.172   0.808  0.00  0.00    +0.200 C 
ATOM      5  N   UNL     1      -0.569  -4.817   1.213  0.00  0.00    -0.260 NA
ATOM      6  C   UNL     1       0.403  -4.885   2.312  0.00  0.00    +0.109 C 
ATOM      7  H   UNL     1      -1.638  -4.227  -1.214  0.00  0.00    +0.143 HD
ATOM      8  H   UNL     1      -0.562  -6.835  -1.095  0.00  0.00    +0.143 HD
ENDROOT
BRANCH   1  13
ATOM      9  C   UNL     1      -0.057   1.513   0.044  0.00  0.00    +0.044 C 
ATOM     10  C   UNL     1      -0.027   0.007   0.028  0.00  0.00    -0.050 A 
ATOM     11  C   UNL     1       1.171  -0.659  -0.152  0.00  0.00    +0.004 A 
ATOM     12  C   UNL     1       1.198  -2.041  -0.167  0.00  0.00    +0.007 A 
ATOM     13  C   UNL     1       0.027  -2.757  -0.001  0.00  0.00    -0.015 A 
ATOM     14  C   UNL     1      -1.171  -2.091   0.180  0.00  0.00    +0.007 A 
ATOM     15  C   UNL     1      -1.197  -0.710   0.199  0.00  0.00    +0.004 A 
ENDBRANCH   1  13
BRANCH   4  16
ATOM     16  S   UNL     1      -2.609  -6.563   1.584  0.00  0.00    -0.121 S 
BRANCH  16  17
ATOM     17  C   UNL     1      -3.716  -5.250   0.998  0.00  0.00    +0.118 C 
BRANCH  17  18
ATOM     18  C   UNL     1      -5.113  -5.462   1.584  0.00  0.00    +0.184 C 
ATOM     19  N   UNL     1      -5.043  -5.496   3.051  0.00  0.00    -0.363 N 
ATOM     20  C   UNL     1      -5.476  -6.662   3.434  0.00  0.00    +0.060 A 
ATOM     21  C   UNL     1      -5.643  -7.280   4.757  0.00  0.00    +0.027 A 
ATOM     22  C   UNL     1      -6.127  -8.535   4.849  0.00  0.00    +0.002 A 
ATOM     23  C   UNL     1      -6.485  -9.294   3.720  0.00  0.00    +0.002 A 
ATOM     24  C   UNL     1      -6.372  -8.823   2.462  0.00  0.00    +0.027 A 
ATOM     25  C   UNL     1      -5.857  -7.465   2.240  0.00  0.00    +0.060 A 
ATOM     26  N   UNL     1      -5.644  -6.764   1.164  0.00  0.00    -0.363 N 
ATOM     27  H   UNL     1      -4.732  -4.782   3.627  0.00  0.00    +0.162 HD
ATOM     28  H   UNL     1      -5.807  -7.050   0.252  0.00  0.00    +0.162 HD
ENDBRANCH  17  18
ENDBRANCH  16  17
ENDBRANCH   4  16
TORSDOF 4
