REMARK  Name = ZINC40120357
REMARK  7 active torsions:
REMARK  status: ('A' for Active; 'I' for Inactive)
REMARK    1  A    between atoms: C_1  and  C_2
REMARK    2  A    between atoms: C_2  and  C_4
REMARK    3  A    between atoms: C_2  and  N_15
REMARK    4  A    between atoms: C_16  and  C_18
REMARK    5  A    between atoms: C_21  and  O_24
REMARK    6  A    between atoms: O_24  and  C_25
REMARK    7  A    between atoms: C_25  and  C_26
REMARK                            x       y       z     vdW  Elec       q    Type
REMARK                         _______ _______ _______ _____ _____    ______ ____
ROOT
ATOM      1  N   UNL     1      -1.372  -0.511   0.012  0.00  0.00    -0.305 N 
ATOM      2  C   UNL     1      -2.029  -0.655   1.181  0.00  0.00    +0.246 C 
ATOM      3  O   UNL     1      -1.480  -0.364   2.226  0.00  0.00    -0.270 OA
ATOM      4  H   UNL     1      -1.810  -0.743  -0.822  0.00  0.00    +0.150 HD
ENDROOT
BRANCH   2   5
ATOM      5  C   UNL     1      -3.413  -1.166   1.191  0.00  0.00    +0.056 A 
ATOM      6  C   UNL     1      -4.108  -1.315   2.401  0.00  0.00    +0.040 A 
ATOM      7  C   UNL     1      -5.402  -1.796   2.359  0.00  0.00    +0.103 A 
ATOM      8  C   UNL     1      -5.969  -2.115   1.128  0.00  0.00    +0.234 A 
ATOM      9  N   UNL     1      -5.286  -1.964   0.004  0.00  0.00    -0.219 NA
ATOM     10  C   UNL     1      -4.053  -1.503  -0.002  0.00  0.00    +0.127 A 
ATOM     11 CL   UNL     1      -6.310  -2.001   3.824  0.00  0.00    -0.078 Cl
BRANCH   8  12
ATOM     12  O   UNL     1      -7.238  -2.589   1.080  0.00  0.00    -0.466 OA
BRANCH  12  13
ATOM     13  C   UNL     1      -7.766  -2.899  -0.211  0.00  0.00    +0.343 C 
BRANCH  13  14
ATOM     14  C   UNL     1      -9.199  -3.416  -0.065  0.00  0.00    +0.424 C 
ATOM     15  F   UNL     1      -9.990  -2.432   0.539  0.00  0.00    -0.167 F 
ATOM     16  F   UNL     1      -9.716  -3.720  -1.329  0.00  0.00    -0.167 F 
ATOM     17  F   UNL     1      -9.201  -4.568   0.729  0.00  0.00    -0.167 F 
ENDBRANCH  13  14
ENDBRANCH  12  13
ENDBRANCH   8  12
ENDBRANCH   2   5
BRANCH   1  19
ATOM     18  C   UNL     1      -0.019   1.526   0.010  0.00  0.00    +0.033 C 
ATOM     19  C   UNL     1       0.002  -0.004   0.002  0.00  0.00    +0.100 C 
BRANCH  19  20
ATOM     20  C   UNL     1       0.707  -0.490  -1.238  0.00  0.00    -0.025 A 
ATOM     21  C   UNL     1       0.035  -0.521  -2.446  0.00  0.00    +0.009 A 
ATOM     22  C   UNL     1       0.676  -0.964  -3.589  0.00  0.00    +0.048 A 
ATOM     23  C   UNL     1       1.994  -1.379  -3.523  0.00  0.00    +0.142 A 
ATOM     24  C   UNL     1       2.672  -1.350  -2.305  0.00  0.00    +0.076 A 
ATOM     25  C   UNL     1       2.027  -0.899  -1.165  0.00  0.00    +0.032 A 
ATOM     26  N   UNL     1       4.006  -1.776  -2.252  0.00  0.00    -0.280 N 
ATOM     27  C   UNL     1       4.699  -1.903  -3.404  0.00  0.00    +0.255 C 
ATOM     28  O   UNL     1       5.846  -2.299  -3.385  0.00  0.00    -0.272 OA
ATOM     29  C   UNL     1       4.043  -1.549  -4.714  0.00  0.00    +0.325 C 
ATOM     30  O   UNL     1       2.640  -1.818  -4.637  0.00  0.00    -0.481 OA
ATOM     31  H   UNL     1       4.426  -1.976  -1.400  0.00  0.00    +0.155 HD
ENDBRANCH  19  20
ENDBRANCH   1  19
TORSDOF 6
