REMARK  Name = ZINC22229448
REMARK  2 active torsions:
REMARK  status: ('A' for Active; 'I' for Inactive)
REMARK    1  A    between atoms: C_4  and  C_7
REMARK    2  A    between atoms: C_19  and  C_21
REMARK                            x       y       z     vdW  Elec       q    Type
REMARK                         _______ _______ _______ _____ _____    ______ ____
ROOT
ATOM      1  C   UNL     1       3.789   0.794  -2.036  0.00  0.00    +0.252 C 
ATOM      2  O   UNL     1       3.446  -0.372  -2.076  0.00  0.00    -0.270 OA
ATOM      3  N   UNL     1       3.318   1.602  -1.065  0.00  0.00    -0.254 N 
ATOM      4  C   UNL     1       3.618   2.963  -1.100  0.00  0.00    +0.059 A 
ATOM      5  C   UNL     1       3.111   3.788  -2.092  0.00  0.00    +0.025 A 
ATOM      6  C   UNL     1       3.370   5.146  -2.047  0.00  0.00    +0.002 A 
ATOM      7  C   UNL     1       4.130   5.681  -1.022  0.00  0.00    +0.002 A 
ATOM      8  C   UNL     1       4.657   4.858  -0.042  0.00  0.00    +0.025 A 
ATOM      9  C   UNL     1       4.413   3.497  -0.097  0.00  0.00    +0.053 A 
ATOM     10  N   UNL     1       4.949   2.607   0.827  0.00  0.00    -0.316 N 
ATOM     11  C   UNL     1       4.218   1.857   1.693  0.00  0.00    +0.017 C 
ATOM     12  C   UNL     1       3.136   1.134   1.369  0.00  0.00    +0.037 C 
ATOM     13  C   UNL     1       2.509   1.042  -0.004  0.00  0.00    +0.147 C 
ATOM     14  C   UNL     1       2.473   0.361   2.351  0.00  0.00    +0.163 C 
ATOM     15  O   UNL     1       1.488  -0.275   2.029  0.00  0.00    -0.292 OA
ATOM     16  C   UNL     1       2.940   0.297   3.774  0.00  0.00    +0.080 C 
ATOM     17  C   UNL     1       4.451   0.550   3.805  0.00  0.00    +0.014 C 
ATOM     18  C   UNL     1       4.711   1.897   3.131  0.00  0.00    +0.051 C 
ATOM     19  H   UNL     1       6.039   2.471   0.892  0.00  0.00    +0.152 HD
ENDROOT
BRANCH  13  20
ATOM     20  C   UNL     1       1.187   1.767   0.024  0.00  0.00    -0.021 A 
ATOM     21  C   UNL     1       0.030   1.109  -0.350  0.00  0.00    +0.007 A 
ATOM     22  C   UNL     1      -1.182   1.772  -0.325  0.00  0.00    +0.022 A 
ATOM     23  C   UNL     1      -1.238   3.095   0.075  0.00  0.00    +0.059 A 
ATOM     24  C   UNL     1      -0.081   3.752   0.455  0.00  0.00    +0.060 A 
ATOM     25  C   UNL     1       1.133   3.089   0.424  0.00  0.00    +0.027 A 
ATOM     26 CL   UNL     1      -0.151   5.410   0.964  0.00  0.00    -0.082 Cl
ATOM     27 CL   UNL     1      -2.761   3.928   0.107  0.00  0.00    -0.082 Cl
ENDBRANCH  13  20
BRANCH   1  31
ATOM     28  C   UNL     1       6.469   2.321  -4.955  0.00  0.00    +0.000 A 
ATOM     29  C   UNL     1       6.527   2.790  -3.655  0.00  0.00    +0.001 A 
ATOM     30  C   UNL     1       5.659   2.299  -2.702  0.00  0.00    +0.013 A 
ATOM     31  C   UNL     1       4.721   1.326  -3.052  0.00  0.00    +0.037 A 
ATOM     32  C   UNL     1       4.673   0.853  -4.364  0.00  0.00    +0.013 A 
ATOM     33  C   UNL     1       5.543   1.357  -5.309  0.00  0.00    +0.001 A 
ENDBRANCH   1  31
TORSDOF 2
