REMARK  Name = ZINC36203613
REMARK  16 active torsions:
REMARK  status: ('A' for Active; 'I' for Inactive)
REMARK    1  A    between atoms: C_1  and  C_2
REMARK    2  A    between atoms: C_5  and  C_7
REMARK    3  A    between atoms: C_7  and  N_8
REMARK    4  A    between atoms: N_8  and  C_9
REMARK    5  A    between atoms: N_8  and  C_33
REMARK    6  A    between atoms: C_9  and  C_10
REMARK    7  A    between atoms: C_13  and  C_15
REMARK    8  A    between atoms: C_15  and  C_16
REMARK    9  A    between atoms: C_15  and  C_24
REMARK   10  A    between atoms: C_15  and  O_32
REMARK   11  A    between atoms: C_19  and  O_22
REMARK   12  A    between atoms: O_22  and  C_23
REMARK   13  A    between atoms: C_27  and  O_30
REMARK   14  A    between atoms: O_30  and  C_31
REMARK   15  A    between atoms: C_33  and  C_34
REMARK   16  A    between atoms: C_33  and  C_35
REMARK                            x       y       z     vdW  Elec       q    Type
REMARK                         _______ _______ _______ _____ _____    ______ ____
ROOT
ATOM      1  C   UNL     1       1.341  -8.514  -8.075  0.00  0.00    +0.174 C 
ENDROOT
BRANCH   1   2
ATOM      2  C   UNL     1       0.014  -9.150  -7.752  0.00  0.00    -0.004 A 
ATOM      3  C   UNL     1      -0.165 -10.508  -7.938  0.00  0.00    +0.011 A 
ATOM      4  C   UNL     1      -1.381 -11.093  -7.643  0.00  0.00    +0.046 A 
ATOM      5  C   UNL     1      -2.423 -10.316  -7.158  0.00  0.00    +0.120 A 
ATOM      6  C   UNL     1      -2.241  -8.954  -6.971  0.00  0.00    +0.046 A 
ATOM      7  C   UNL     1      -1.022  -8.375  -7.263  0.00  0.00    +0.011 A 
BRANCH   5   8
ATOM      8  O   UNL     1      -3.621 -10.889  -6.867  0.00  0.00    -0.495 OA
ATOM      9  C   UNL     1      -4.649 -10.029  -6.372  0.00  0.00    +0.277 C 
ENDBRANCH   5   8
ENDBRANCH   1   2
BRANCH   1  10
ATOM     10  C   UNL     1       1.131  -7.371  -9.033  0.00  0.00    -0.004 A 
ATOM     11  C   UNL     1       0.786  -6.121  -8.552  0.00  0.00    +0.011 A 
ATOM     12  C   UNL     1       0.592  -5.071  -9.429  0.00  0.00    +0.046 A 
ATOM     13  C   UNL     1       0.743  -5.271 -10.793  0.00  0.00    +0.120 A 
ATOM     14  C   UNL     1       1.089  -6.526 -11.274  0.00  0.00    +0.046 A 
ATOM     15  C   UNL     1       1.288  -7.571 -10.392  0.00  0.00    +0.011 A 
BRANCH  13  16
ATOM     16  O   UNL     1       0.552  -4.240 -11.657  0.00  0.00    -0.495 OA
ATOM     17  C   UNL     1       0.725  -4.519 -13.048  0.00  0.00    +0.277 C 
ENDBRANCH  13  16
ENDBRANCH   1  10
BRANCH   1  21
ATOM     18  C   UNL     1       2.196  -7.173  -4.788  0.00  0.00    +0.089 A 
ATOM     19  C   UNL     1       3.437  -7.369  -5.268  0.00  0.00    +0.043 A 
ATOM     20  C   UNL     1       3.294  -7.901  -6.570  0.00  0.00    +0.048 A 
ATOM     21  C   UNL     1       1.973  -7.998  -6.808  0.00  0.00    +0.146 A 
ATOM     22  O   UNL     1       1.313  -7.561  -5.723  0.00  0.00    -0.463 OA
BRANCH  18  23
ATOM     23  C   UNL     1       1.854  -6.619  -3.429  0.00  0.00    -0.002 C 
BRANCH  23  24
ATOM     24  N   UNL     1       1.608  -5.175  -3.537  0.00  0.00    +0.389 N 
ATOM     25  H   UNL     1       0.892  -5.006  -4.228  0.00  0.00    -0.080 HD
BRANCH  24  26
ATOM     26  C   UNL     1       2.847  -4.496  -3.942  0.00  0.00    -0.074 C 
ATOM     27  C   UNL     1       2.551  -3.022  -4.227  0.00  0.00    -0.013 C 
ATOM     28  C   UNL     1       3.876  -4.600  -2.815  0.00  0.00    -0.013 C 
ENDBRANCH  24  26
BRANCH  24  29
ATOM     29  C   UNL     1       1.167  -4.654  -2.237  0.00  0.00    -0.035 C 
BRANCH  29  34
ATOM     30  C   UNL     1       0.257   0.937  -2.244  0.00  0.00    +0.051 C 
ATOM     31  C   UNL     1       0.286  -0.562  -2.397  0.00  0.00    -0.013 A 
ATOM     32  C   UNL     1      -0.551  -1.365  -3.097  0.00  0.00    +0.011 A 
ATOM     33  C   UNL     1      -0.329  -2.729  -3.096  0.00  0.00    +0.009 A 
ATOM     34  C   UNL     1       0.719  -3.224  -2.393  0.00  0.00    -0.026 A 
ATOM     35  S   UNL     1       1.437  -1.740  -1.708  0.00  0.00    -0.100 S 
ENDBRANCH  29  34
ENDBRANCH  24  29
ENDBRANCH  23  24
ENDBRANCH  18  23
ENDBRANCH   1  21
BRANCH   1  36
ATOM     36  O   UNL     1       2.201  -9.486  -8.674  0.00  0.00    -0.372 OA
ATOM     37  H   UNL     1       2.381 -10.252  -8.112  0.00  0.00    +0.212 HD
ENDBRANCH   1  36
TORSDOF 11
