REMARK  Name = ZINC28607505
REMARK  7 active torsions:
REMARK  status: ('A' for Active; 'I' for Inactive)
REMARK    1  A    between atoms: C_1  and  N_2
REMARK    2  A    between atoms: C_11  and  S_12
REMARK    3  A    between atoms: S_12  and  C_13
REMARK    4  A    between atoms: C_13  and  C_14
REMARK    5  A    between atoms: N_16  and  C_17
REMARK    6  A    between atoms: C_22  and  S_23
REMARK    7  A    between atoms: S_23  and  C_24
REMARK                            x       y       z     vdW  Elec       q    Type
REMARK                         _______ _______ _______ _____ _____    ______ ____
ROOT
ATOM      1  C   UNL     1       3.147  -5.861   0.650  0.00  0.00    +0.228 C 
ATOM      2  O   UNL     1       2.430  -6.740   1.077  0.00  0.00    -0.275 OA
ATOM      3  N   UNL     1       4.333  -6.171   0.090  0.00  0.00    -0.284 N 
ATOM      4  H   UNL     1       4.945  -5.383  -0.373  0.00  0.00    +0.155 HD
ENDROOT
BRANCH   3   5
ATOM      5  C   UNL     1       4.786  -7.497   0.097  0.00  0.00    +0.047 A 
ATOM      6  C   UNL     1       3.875  -8.542   0.093  0.00  0.00    +0.024 A 
ATOM      7  C   UNL     1       4.324  -9.850   0.099  0.00  0.00    +0.002 A 
ATOM      8  C   UNL     1       5.681 -10.120   0.110  0.00  0.00    +0.001 A 
ATOM      9  C   UNL     1       6.596  -9.085   0.114  0.00  0.00    +0.017 A 
ATOM     10  C   UNL     1       6.154  -7.769   0.102  0.00  0.00    +0.034 A 
BRANCH  10  11
ATOM     11  S   UNL     1       7.318  -6.446   0.099  0.00  0.00    -0.088 S 
BRANCH  11  12
ATOM     12  C   UNL     1       8.883  -7.255   0.082  0.00  0.00    +0.013 A 
ATOM     13  C   UNL     1       9.566  -7.478   1.272  0.00  0.00    +0.016 A 
ATOM     14  C   UNL     1      10.789  -8.117   1.256  0.00  0.00    +0.021 A 
ATOM     15  C   UNL     1      11.342  -8.527   0.054  0.00  0.00    +0.041 A 
ATOM     16  C   UNL     1      10.667  -8.302  -1.133  0.00  0.00    +0.021 A 
ATOM     17  C   UNL     1       9.440  -7.668  -1.123  0.00  0.00    +0.016 A 
ATOM     18 CL   UNL     1      12.883  -9.324   0.037  0.00  0.00    -0.084 Cl
ENDBRANCH  11  12
ENDBRANCH  10  11
ENDBRANCH   3   5
BRANCH   1  19
ATOM     19  C   UNL     1       2.713  -4.421   0.747  0.00  0.00    +0.173 C 
BRANCH  19  20
ATOM     20  S   UNL     1       1.090  -4.332   1.542  0.00  0.00    -0.078 S 
BRANCH  20  31
ATOM     21  C   UNL     1      -1.315  -2.975   2.620  0.00  0.00    +0.154 C 
ATOM     22  N   UNL     1      -0.313  -2.071   2.050  0.00  0.00    -0.290 N 
ATOM     23  C   UNL     1      -0.542  -0.745   2.055  0.00  0.00    +0.263 A 
ATOM     24  O   UNL     1      -1.573  -0.298   2.529  0.00  0.00    -0.267 OA
ATOM     25  C   UNL     1       0.440   0.134   1.498  0.00  0.00    +0.072 A 
ATOM     26  C   UNL     1       0.421   1.583   1.389  0.00  0.00    +0.023 A 
ATOM     27  C   UNL     1       1.462   2.210   0.823  0.00  0.00    +0.048 A 
ATOM     28  S   UNL     1       2.563   0.877   0.387  0.00  0.00    -0.077 S 
ATOM     29  C   UNL     1       1.592  -0.485   0.978  0.00  0.00    +0.116 A 
ATOM     30  N   UNL     1       1.756  -1.802   1.005  0.00  0.00    -0.216 NA
ATOM     31  C   UNL     1       0.835  -2.589   1.525  0.00  0.00    +0.173 A 
ENDBRANCH  20  31
ENDBRANCH  19  20
ENDBRANCH   1  19
TORSDOF 6
