REMARK  Name = ZINC41513808
REMARK  13 active torsions:
REMARK  status: ('A' for Active; 'I' for Inactive)
REMARK    1  A    between atoms: C_1  and  C_2
REMARK    2  A    between atoms: C_2  and  C_3
REMARK    3  A    between atoms: C_2  and  C_4
REMARK    4  A    between atoms: C_4  and  N_5
REMARK    5  A    between atoms: N_5  and  C_6
REMARK    6  A    between atoms: N_5  and  C_30
REMARK    7  A    between atoms: C_6  and  C_7
REMARK    8  A    between atoms: C_8  and  O_29
REMARK    9  A    between atoms: C_16  and  C_18
REMARK   10  A    between atoms: C_20  and  C_23
REMARK   11  A    between atoms: C_30  and  C_31
REMARK   12  A    between atoms: C_31  and  C_32
REMARK   13  A    between atoms: C_31  and  C_33
REMARK                            x       y       z     vdW  Elec       q    Type
REMARK                         _______ _______ _______ _____ _____    ______ ____
ROOT
ATOM      1  C   UNL     1       1.915  -0.228   1.153  0.00  0.00    +0.020 A 
ATOM      2  C   UNL     1       2.300   0.888   1.879  0.00  0.00    +0.122 A 
ATOM      3  C   UNL     1       1.594   1.269   3.019  0.00  0.00    +0.046 A 
ATOM      4  C   UNL     1       0.521   0.541   3.443  0.00  0.00    +0.015 A 
ATOM      5  C   UNL     1       0.131  -0.605   2.736  0.00  0.00    +0.019 A 
ATOM      6  C   UNL     1       0.820  -0.971   1.563  0.00  0.00    +0.144 A 
ATOM      7  O   UNL     1       0.402  -2.034   0.833  0.00  0.00    -0.421 OA
ATOM      8  C   UNL     1      -0.259  -3.010   1.497  0.00  0.00    +0.347 A 
ATOM      9  O   UNL     1      -0.084  -4.184   1.227  0.00  0.00    -0.244 OA
ATOM     10  C   UNL     1      -1.197  -2.603   2.558  0.00  0.00    +0.092 A 
ATOM     11  C   UNL     1      -0.961  -1.392   3.185  0.00  0.00    +0.029 A 
ENDROOT
BRANCH  10  12
ATOM     12  C   UNL     1      -2.335  -3.459   2.945  0.00  0.00    +0.116 A 
ATOM     13  N   UNL     1      -2.695  -4.641   2.467  0.00  0.00    -0.239 NA
ATOM     14  C   UNL     1      -3.754  -5.275   2.934  0.00  0.00    +0.079 A 
ATOM     15  C   UNL     1      -4.496  -4.700   3.933  0.00  0.00    +0.075 A 
ATOM     16  S   UNL     1      -3.589  -3.180   4.187  0.00  0.00    -0.075 S 
BRANCH  14  17
ATOM     17  C   UNL     1      -4.139  -6.598   2.383  0.00  0.00    +0.001 A 
ATOM     18  C   UNL     1      -5.262  -7.261   2.875  0.00  0.00    +0.010 A 
ATOM     19  C   UNL     1      -5.614  -8.491   2.358  0.00  0.00    +0.001 A 
ATOM     20  C   UNL     1      -4.856  -9.066   1.354  0.00  0.00    +0.000 A 
ATOM     21  C   UNL     1      -3.741  -8.412   0.863  0.00  0.00    +0.001 A 
ATOM     22  C   UNL     1      -3.382  -7.179   1.367  0.00  0.00    +0.010 A 
ENDBRANCH  14  17
ENDBRANCH  10  12
BRANCH   2  23
ATOM     23  O   UNL     1       3.374   1.616   1.478  0.00  0.00    -0.506 OA
ATOM     24  H   UNL     1       3.157   2.332   0.865  0.00  0.00    +0.292 HD
ENDBRANCH   2  23
BRANCH   1  25
ATOM     25  C   UNL     1       2.680  -0.627  -0.082  0.00  0.00    -0.036 C 
BRANCH  25  26
ATOM     26  N   UNL     1       2.001  -0.098  -1.272  0.00  0.00    +0.383 N 
ATOM     27  H   UNL     1       1.041  -0.406  -1.276  0.00  0.00    -0.081 HD
BRANCH  26  28
ATOM     28  C   UNL     1       2.678  -0.588  -2.480  0.00  0.00    -0.075 C 
BRANCH  28  30
ATOM     29  C   UNL     1       1.029  -2.439  -2.787  0.00  0.00    +0.005 C 
ATOM     30  C   UNL     1       2.508  -2.105  -2.580  0.00  0.00    -0.034 C 
ATOM     31  C   UNL     1       3.320  -2.632  -3.765  0.00  0.00    +0.005 C 
ENDBRANCH  28  30
ENDBRANCH  26  28
BRANCH  26  32
ATOM     32  C   UNL     1       2.044   1.370  -1.248  0.00  0.00    -0.075 C 
BRANCH  32  33
ATOM     33  C   UNL     1       1.231   1.924  -2.419  0.00  0.00    -0.034 C 
ATOM     34  C   UNL     1      -0.243   1.559  -2.234  0.00  0.00    +0.005 C 
ATOM     35  C   UNL     1       1.378   3.446  -2.468  0.00  0.00    +0.005 C 
ENDBRANCH  32  33
ENDBRANCH  26  32
ENDBRANCH  25  26
ENDBRANCH   1  25
TORSDOF 9
