REMARK  Name = ZINC66187069
REMARK  7 active torsions:
REMARK  status: ('A' for Active; 'I' for Inactive)
REMARK    1  A    between atoms: C_1  and  C_2
REMARK    2  A    between atoms: C_2  and  C_3
REMARK    3  A    between atoms: C_3  and  C_4
REMARK    4  A    between atoms: C_3  and  C_6
REMARK    5  A    between atoms: C_4  and  C_5
REMARK    6  A    between atoms: C_11  and  N_14
REMARK    7  A    between atoms: C_20  and  N_23
REMARK                            x       y       z     vdW  Elec       q    Type
REMARK                         _______ _______ _______ _____ _____    ______ ____
ROOT
ATOM      1  N   UNL     1       1.809  -4.488  -3.217  0.00  0.00    -0.296 N 
ATOM      2  C   UNL     1       2.432  -5.595  -3.668  0.00  0.00    +0.302 C 
ATOM      3  O   UNL     1       3.336  -6.090  -3.023  0.00  0.00    -0.253 OA
ATOM      4  N   UNL     1       2.053  -6.153  -4.835  0.00  0.00    -0.287 N 
ATOM      5  C   UNL     1       0.984  -5.658  -5.714  0.00  0.00    +0.108 C 
ATOM      6  C   UNL     1       0.891  -6.625  -6.913  0.00  0.00    +0.005 C 
ATOM      7  C   UNL     1       1.529  -7.927  -6.359  0.00  0.00    -0.049 C 
ATOM      8  C   UNL     1       2.645  -7.358  -5.443  0.00  0.00    +0.094 C 
ATOM      9  H   UNL     1       1.088  -4.094  -3.731  0.00  0.00    +0.151 HD
ENDROOT
BRANCH   1  15
ATOM     10  C   UNL     1       1.045  -1.889   1.446  0.00  0.00    +0.219 C 
ATOM     11  O   UNL     1       0.639  -2.514   2.402  0.00  0.00    -0.275 OA
ATOM     12  N   UNL     1       1.751  -2.515   0.482  0.00  0.00    -0.301 N 
ATOM     13  C   UNL     1       2.321  -1.756  -0.640  0.00  0.00    +0.109 C 
ATOM     14  C   UNL     1       1.857  -2.395  -1.953  0.00  0.00    +0.041 C 
ATOM     15  C   UNL     1       2.221  -3.881  -1.949  0.00  0.00    +0.077 C 
ATOM     16  C   UNL     1       1.505  -4.581  -0.792  0.00  0.00    +0.041 C 
ATOM     17  C   UNL     1       1.969  -3.966   0.537  0.00  0.00    +0.109 C 
BRANCH  10  18
ATOM     18  C   UNL     1       0.762  -0.413   1.334  0.00  0.00    +0.075 C 
BRANCH  18  20
ATOM     19  C   UNL     1      -1.453  -0.981   0.328  0.00  0.00    +0.004 C 
ATOM     20  C   UNL     1      -0.173  -0.162   0.150  0.00  0.00    +0.009 C 
ENDBRANCH  18  20
BRANCH  18  21
ATOM     21  C   UNL     1       0.097   0.077   2.622  0.00  0.00    +0.009 C 
ATOM     22  C   UNL     1      -0.071   1.597   2.563  0.00  0.00    +0.004 C 
ENDBRANCH  18  21
ENDBRANCH  10  18
ENDBRANCH   1  15
BRANCH   7  23
ATOM     23  N   UNL     1       2.101  -8.736  -7.443  0.00  0.00    +0.383 N 
ATOM     24  C   UNL     1       2.628 -10.016  -6.904  0.00  0.00    -0.078 C 
ATOM     25  C   UNL     1       2.655 -10.940  -8.148  0.00  0.00    -0.020 C 
ATOM     26  C   UNL     1       1.376 -10.528  -8.912  0.00  0.00    -0.020 C 
ATOM     27  C   UNL     1       1.047  -9.110  -8.411  0.00  0.00    -0.078 C 
ATOM     28  H   UNL     1       2.836  -8.225  -7.909  0.00  0.00    -0.081 HD
ENDBRANCH   7  23
TORSDOF 5
