REMARK  Name = ZINC12296738
REMARK  7 active torsions:
REMARK  status: ('A' for Active; 'I' for Inactive)
REMARK    1  A    between atoms: C_1  and  C_2
REMARK    2  A    between atoms: C_6  and  O_29
REMARK    3  A    between atoms: C_12  and  C_13
REMARK    4  A    between atoms: C_13  and  C_14
REMARK    5  A    between atoms: N_16  and  C_17
REMARK    6  A    between atoms: C_17  and  C_18
REMARK    7  A    between atoms: O_29  and  C_30
REMARK                            x       y       z     vdW  Elec       q    Type
REMARK                         _______ _______ _______ _____ _____    ______ ____
ROOT
ATOM      1  C   UNL     1       2.353   5.380   1.613  0.00  0.00    +0.138 C 
ENDROOT
BRANCH   1  13
ATOM      2  C   UNL     1       2.618   6.877  -0.842  0.00  0.00    +0.045 C 
ATOM      3  C   UNL     1       2.499   7.587   0.482  0.00  0.00    -0.029 A 
ATOM      4  C   UNL     1       2.509   9.049   0.555  0.00  0.00    +0.022 A 
ATOM      5  C   UNL     1       2.630   9.828  -0.602  0.00  0.00    +0.035 A 
ATOM      6  C   UNL     1       2.642  11.190  -0.505  0.00  0.00    +0.083 A 
ATOM      7  C   UNL     1       2.535  11.809   0.740  0.00  0.00    +0.142 A 
ATOM      8  C   UNL     1       2.413  11.054   1.894  0.00  0.00    +0.094 A 
ATOM      9  C   UNL     1       2.400   9.669   1.813  0.00  0.00    +0.143 A 
ATOM     10  O   UNL     1       2.284   8.914   2.927  0.00  0.00    -0.422 OA
ATOM     11  C   UNL     1       2.269   7.574   2.866  0.00  0.00    +0.341 A 
ATOM     12  O   UNL     1       2.163   6.934   3.897  0.00  0.00    -0.245 OA
ATOM     13  C   UNL     1       2.374   6.887   1.640  0.00  0.00    +0.049 A 
ATOM     14 CL   UNL     1       2.793  12.155  -1.939  0.00  0.00    -0.080 Cl
BRANCH   7  15
ATOM     15  O   UNL     1       2.549  13.165   0.821  0.00  0.00    -0.494 OA
ATOM     16  C   UNL     1       2.435  13.738   2.125  0.00  0.00    +0.277 C 
ENDBRANCH   7  15
ENDBRANCH   1  13
BRANCH   1  17
ATOM     17  C   UNL     1       0.931   4.900   1.472  0.00  0.00    +0.218 C 
ATOM     18  O   UNL     1       0.025   5.702   1.400  0.00  0.00    -0.275 OA
ATOM     19  N   UNL     1       0.668   3.579   1.426  0.00  0.00    -0.315 N 
ATOM     20  H   UNL     1       1.393   2.937   1.483  0.00  0.00    +0.149 HD
BRANCH  19  21
ATOM     21  C   UNL     1      -0.714   3.112   1.288  0.00  0.00    +0.106 C 
BRANCH  21  22
ATOM     22  C   UNL     1      -0.735   1.582   1.261  0.00  0.00    -0.008 C 
ATOM     23  C   UNL     1      -0.013   1.086   0.008  0.00  0.00    +0.002 C 
ATOM     24  C   UNL     1      -0.760   1.597  -1.228  0.00  0.00    -0.018 C 
ATOM     25  C   UNL     1      -2.199   1.083  -1.182  0.00  0.00    -0.078 C 
ATOM     26  C   UNL     1      -2.191   1.093   1.247  0.00  0.00    -0.064 C 
ATOM     27  C   UNL     1      -2.893   1.646   2.492  0.00  0.00    -0.015 C 
ATOM     28  C   UNL     1      -4.360   1.215   2.495  0.00  0.00    -0.003 C 
ATOM     29  C   UNL     1      -5.024   1.725   1.211  0.00  0.00    -0.019 C 
ATOM     30  C   UNL     1      -4.281   1.149   0.010  0.00  0.00    -0.078 C 
ATOM     31  N   UNL     1      -2.873   1.590   0.025  0.00  0.00    +0.382 N 
ATOM     32  H   UNL     1      -2.842   2.616   0.022  0.00  0.00    -0.081 HD
ENDBRANCH  21  22
ENDBRANCH  19  21
ENDBRANCH   1  17
TORSDOF 5
