REMARK  Name = ZINC40947128
REMARK  11 active torsions:
REMARK  status: ('A' for Active; 'I' for Inactive)
REMARK    1  A    between atoms: C_1  and  C_2
REMARK    2  A    between atoms: C_6  and  C_8
REMARK    3  A    between atoms: C_8  and  O_9
REMARK    4  A    between atoms: O_9  and  C_10
REMARK    5  A    between atoms: C_13  and  C_18
REMARK    6  A    between atoms: C_15  and  O_16
REMARK    7  A    between atoms: O_16  and  C_17
REMARK    8  A    between atoms: N_19  and  N_20
REMARK    9  A    between atoms: C_21  and  C_23
REMARK   10  A    between atoms: C_23  and  S_24
REMARK   11  A    between atoms: S_24  and  C_25
REMARK                            x       y       z     vdW  Elec       q    Type
REMARK                         _______ _______ _______ _____ _____    ______ ____
ROOT
ATOM      1  C   UNL     1       1.599  -3.745   4.055  0.00  0.00    +0.162 A 
ATOM      2  C   UNL     1       0.507  -4.190   4.786  0.00  0.00    +0.050 A 
ATOM      3  C   UNL     1       0.697  -4.879   5.966  0.00  0.00    +0.013 A 
ATOM      4  C   UNL     1       1.991  -5.129   6.427  0.00  0.00    -0.002 A 
ATOM      5  C   UNL     1       3.091  -4.681   5.691  0.00  0.00    +0.059 A 
ATOM      6  C   UNL     1       2.893  -3.996   4.507  0.00  0.00    +0.162 A 
ENDROOT
BRANCH   6   7
ATOM      7  O   UNL     1       3.961  -3.563   3.785  0.00  0.00    -0.491 OA
ATOM      8  C   UNL     1       5.258  -3.856   4.307  0.00  0.00    +0.277 C 
ENDBRANCH   6   7
BRANCH   4   9
ATOM      9  C   UNL     1       2.197  -5.865   7.689  0.00  0.00    +0.138 C 
ATOM     10  N   UNL     1       1.174  -6.280   8.371  0.00  0.00    -0.188 NA
BRANCH  10  11
ATOM     11  N   UNL     1       1.369  -6.979   9.570  0.00  0.00    -0.206 N 
ATOM     12  C   UNL     1       0.307  -7.410  10.279  0.00  0.00    +0.242 C 
ATOM     13  O   UNL     1      -0.817  -7.193   9.880  0.00  0.00    -0.273 OA
ATOM     14  H   UNL     1       2.269  -7.152   9.889  0.00  0.00    +0.177 HD
BRANCH  12  15
ATOM     15  C   UNL     1       0.517  -8.162  11.568  0.00  0.00    +0.173 C 
BRANCH  15  16
ATOM     16  S   UNL     1      -1.092  -8.603  12.280  0.00  0.00    -0.088 S 
BRANCH  16  17
ATOM     17  C   UNL     1      -0.681  -9.464  13.761  0.00  0.00    +0.160 A 
ATOM     18  N   UNL     1       0.506  -9.736  14.268  0.00  0.00    -0.133 NA
ATOM     19  N   UNL     1       0.601 -10.430  15.453  0.00  0.00    -0.125 NA
ATOM     20  C   UNL     1      -0.494 -10.819  16.076  0.00  0.00    +0.180 A 
ATOM     21  S   UNL     1      -1.761 -10.195  14.982  0.00  0.00    -0.025 S 
ATOM     22  N   UNL     1      -0.627 -11.521  17.268  0.00  0.00    -0.336 N 
ATOM     23  H   UNL     1       0.163 -11.793  17.761  0.00  0.00    +0.144 HD
ATOM     24  H   UNL     1      -1.509 -11.739  17.606  0.00  0.00    +0.144 HD
ENDBRANCH  16  17
ENDBRANCH  15  16
ENDBRANCH  12  15
ENDBRANCH  10  11
ENDBRANCH   4   9
BRANCH   1  25
ATOM     25  O   UNL     1       1.406  -3.067   2.893  0.00  0.00    -0.484 OA
BRANCH  25  26
ATOM     26  C   UNL     1       0.054  -2.845   2.489  0.00  0.00    +0.264 C 
BRANCH  26  32
ATOM     27  C   UNL     1      -0.018   1.503   0.010  0.00  0.00    +0.044 C 
ATOM     28  C   UNL     1       0.002  -0.004   0.002  0.00  0.00    -0.050 A 
ATOM     29  C   UNL     1       0.006  -0.689  -1.199  0.00  0.00    +0.003 A 
ATOM     30  C   UNL     1       0.025  -2.071  -1.207  0.00  0.00    +0.001 A 
ATOM     31  C   UNL     1       0.040  -2.768  -0.013  0.00  0.00    +0.007 A 
ATOM     32  C   UNL     1       0.037  -2.084   1.188  0.00  0.00    -0.010 A 
ATOM     33  C   UNL     1       0.023  -0.702   1.195  0.00  0.00    +0.010 A 
ENDBRANCH  26  32
ENDBRANCH  25  26
ENDBRANCH   1  25
TORSDOF 9
