REMARK  Name = ZINC38677520
REMARK  11 active torsions:
REMARK  status: ('A' for Active; 'I' for Inactive)
REMARK    1  A    between atoms: C_1  and  C_2
REMARK    2  A    between atoms: C_7  and  C_9
REMARK    3  A    between atoms: C_7  and  C_10
REMARK    4  A    between atoms: N_11  and  C_13
REMARK    5  A    between atoms: C_13  and  C_14
REMARK    6  A    between atoms: N_16  and  C_17
REMARK    7  A    between atoms: C_21  and  C_23
REMARK    8  A    between atoms: C_23  and  O_25
REMARK    9  A    between atoms: O_25  and  C_26
REMARK   10  A    between atoms: C_30  and  O_31
REMARK   11  A    between atoms: O_31  and  C_32
REMARK                            x       y       z     vdW  Elec       q    Type
REMARK                         _______ _______ _______ _____ _____    ______ ____
ROOT
ATOM      1  C   UNL     1       2.094  -3.234  -3.470  0.00  0.00    +0.200 C 
ATOM      2  O   UNL     1       1.519  -2.193  -3.707  0.00  0.00    -0.278 OA
ATOM      3  N   UNL     1       2.958  -3.746  -4.369  0.00  0.00    -0.288 N 
ATOM      4  H   UNL     1       3.365  -4.612  -4.212  0.00  0.00    +0.155 HD
ENDROOT
BRANCH   3   5
ATOM      5  C   UNL     1       3.260  -3.046  -5.499  0.00  0.00    +0.056 C 
ATOM      6  C   UNL     1       4.041  -3.467  -6.556  0.00  0.00    +0.059 A 
ATOM      7  C   UNL     1       4.101  -2.392  -7.563  0.00  0.00    +0.048 A 
ATOM      8  N   UNL     1       3.398  -1.351  -7.163  0.00  0.00    -0.367 N 
ATOM      9  C   UNL     1       2.803  -1.649  -5.856  0.00  0.00    +0.234 C 
ATOM     10  C   UNL     1       4.858  -2.621  -8.737  0.00  0.00    +0.026 A 
ATOM     11  C   UNL     1       5.505  -3.798  -8.921  0.00  0.00    +0.006 A 
ATOM     12  C   UNL     1       5.465  -4.831  -7.988  0.00  0.00    +0.046 A 
ATOM     13  C   UNL     1       4.764  -4.712  -6.822  0.00  0.00    +0.131 A 
ATOM     14  H   UNL     1       3.288  -0.522  -7.657  0.00  0.00    +0.161 HD
BRANCH   9  15
ATOM     15  C   UNL     1       3.296  -0.663  -4.829  0.00  0.00    +0.335 C 
ATOM     16  O   UNL     1       4.434  -0.259  -4.876  0.00  0.00    -0.248 OA
BRANCH  15  17
ATOM     17  O   UNL     1       2.471  -0.233  -3.861  0.00  0.00    -0.466 OA
ATOM     18  C   UNL     1       3.005   0.701  -2.920  0.00  0.00    +0.280 C 
ENDBRANCH  15  17
ENDBRANCH   9  15
BRANCH  13  19
ATOM     19  O   UNL     1       4.738  -5.729  -5.927  0.00  0.00    -0.494 OA
ATOM     20  C   UNL     1       5.574  -6.855  -6.200  0.00  0.00    +0.277 C 
ENDBRANCH  13  19
ENDBRANCH   3   5
BRANCH   1  21
ATOM     21  C   UNL     1       1.842  -3.957  -2.172  0.00  0.00    +0.019 C 
BRANCH  21  31
ATOM     22  C   UNL     1       0.517  -0.247   0.769  0.00  0.00    +0.009 C 
ATOM     23  C   UNL     1       1.009  -1.678   0.507  0.00  0.00    -0.048 C 
ATOM     24  C   UNL     1      -0.107  -2.737   0.724  0.00  0.00    -0.011 C 
ATOM     25  C   UNL     1       0.471  -3.894  -0.138  0.00  0.00    -0.067 C 
ATOM     26  C   UNL     1       1.644  -4.490   0.617  0.00  0.00    -0.009 C 
ATOM     27  C   UNL     1       2.603  -3.525   1.277  0.00  0.00    -0.036 C 
ATOM     28  C   UNL     1       2.170  -2.079   1.418  0.00  0.00    +0.011 C 
ATOM     29  C   UNL     1       2.871  -4.058   2.709  0.00  0.00    +0.011 C 
ATOM     30  C   UNL     1       3.959  -3.574   0.548  0.00  0.00    +0.011 C 
ATOM     31  N   UNL     1       0.889  -3.198  -1.371  0.00  0.00    +0.388 N 
ATOM     32  C   UNL     1       1.441  -1.893  -0.962  0.00  0.00    -0.071 C 
ATOM     33  H   UNL     1       0.056  -3.022  -1.936  0.00  0.00    -0.081 HD
ENDBRANCH  21  31
ENDBRANCH   1  21
TORSDOF 6
