REMARK  Name = ZINC02135413
REMARK  7 active torsions:
REMARK  status: ('A' for Active; 'I' for Inactive)
REMARK    1  A    between atoms: C_1  and  C_2
REMARK    2  A    between atoms: C_17  and  C_19
REMARK    3  A    between atoms: C_19  and  C_20
REMARK    4  A    between atoms: N_25  and  C_28
REMARK    5  A    between atoms: C_28  and  C_29
REMARK    6  A    between atoms: C_32  and  O_35
REMARK    7  A    between atoms: O_35  and  C_36
REMARK                            x       y       z     vdW  Elec       q    Type
REMARK                         _______ _______ _______ _____ _____    ______ ____
ROOT
ATOM      1  C   UNL     1       6.442  10.626   5.994  0.00  0.00    +0.044 C 
ATOM      2  C   UNL     1       5.685  10.783   4.700  0.00  0.00    -0.049 A 
ATOM      3  C   UNL     1       4.403  10.275   4.581  0.00  0.00    +0.008 A 
ATOM      4  C   UNL     1       3.712  10.418   3.398  0.00  0.00    -0.026 A 
ATOM      5  C   UNL     1       4.289  11.072   2.314  0.00  0.00    +0.054 A 
ATOM      6  C   UNL     1       5.580  11.581   2.442  0.00  0.00    +0.063 A 
ATOM      7  C   UNL     1       6.269  11.434   3.630  0.00  0.00    +0.025 A 
ATOM      8 CL   UNL     1       6.323  12.401   1.105  0.00  0.00    -0.082 Cl
ATOM      9  N   UNL     1       3.401  11.094   1.235  0.00  0.00    -0.285 N 
ATOM     10  C   UNL     1       2.235  10.485   1.525  0.00  0.00    +0.211 C 
ATOM     11  O   UNL     1       1.283  10.354   0.785  0.00  0.00    -0.277 OA
ATOM     12  C   UNL     1       2.343   9.997   2.943  0.00  0.00    +0.050 C 
ATOM     13  C   UNL     1       2.165   8.476   3.029  0.00  0.00    +0.088 C 
ATOM     14  C   UNL     1       1.413   8.246   4.370  0.00  0.00    +0.073 C 
ATOM     15  C   UNL     1       1.220   9.658   4.963  0.00  0.00    -0.049 C 
ATOM     16  C   UNL     1       0.071   7.707   3.929  0.00  0.00    +0.224 C 
ATOM     17  O   UNL     1      -0.839   7.402   4.670  0.00  0.00    -0.275 OA
ATOM     18  N   UNL     1       0.044   7.617   2.595  0.00  0.00    -0.237 N 
ATOM     19  C   UNL     1       1.166   8.023   1.988  0.00  0.00    +0.225 C 
ATOM     20  O   UNL     1       1.353   8.026   0.790  0.00  0.00    -0.275 OA
ATOM     21  H   UNL     1       3.601  11.501   0.378  0.00  0.00    +0.155 HD
ATOM     22  N   UNL     1       1.308  10.546   3.802  0.00  0.00    +0.394 N 
ATOM     23  H   UNL     1       0.410  10.570   3.305  0.00  0.00    -0.083 HD
ATOM     24  H   UNL     1       1.561  11.495   4.100  0.00  0.00    -0.083 HD
ENDROOT
BRANCH  15  25
ATOM     25  C   UNL     1      -0.144   9.768   5.648  0.00  0.00    +0.080 C 
BRANCH  25  26
ATOM     26  C   UNL     1      -0.289  11.137   6.261  0.00  0.00    +0.209 C 
ATOM     27  O   UNL     1       0.610  11.945   6.160  0.00  0.00    -0.276 OA
ATOM     28  N   UNL     1      -1.417  11.463   6.922  0.00  0.00    -0.329 N 
ATOM     29  H   UNL     1      -2.136  10.817   7.002  0.00  0.00    +0.145 HD
ATOM     30  H   UNL     1      -1.511  12.345   7.316  0.00  0.00    +0.145 HD
ENDBRANCH  25  26
ENDBRANCH  15  25
BRANCH  18  31
ATOM     31  C   UNL     1      -1.120   7.122   1.857  0.00  0.00    +0.151 C 
BRANCH  31  32
ATOM     32  C   UNL     1      -1.003   5.630   1.677  0.00  0.00    -0.029 A 
ATOM     33  C   UNL     1      -1.531   4.776   2.628  0.00  0.00    +0.009 A 
ATOM     34  C   UNL     1      -1.425   3.409   2.465  0.00  0.00    +0.046 A 
ATOM     35  C   UNL     1      -0.787   2.892   1.346  0.00  0.00    +0.120 A 
ATOM     36  C   UNL     1      -0.253   3.751   0.396  0.00  0.00    +0.046 A 
ATOM     37  C   UNL     1      -0.368   5.117   0.561  0.00  0.00    +0.009 A 
BRANCH  35  38
ATOM     38  O   UNL     1      -0.682   1.547   1.184  0.00  0.00    -0.495 OA
ATOM     39  C   UNL     1      -0.013   1.086   0.008  0.00  0.00    +0.277 C 
ENDBRANCH  35  38
ENDBRANCH  31  32
ENDBRANCH  18  31
TORSDOF 5
