REMARK  Name = ZINC12660303
REMARK  6 active torsions:
REMARK  status: ('A' for Active; 'I' for Inactive)
REMARK    1  A    between atoms: C_1  and  C_2
REMARK    2  A    between atoms: N_14  and  N_15
REMARK    3  A    between atoms: N_15  and  C_16
REMARK    4  A    between atoms: C_16  and  N_18
REMARK    5  A    between atoms: C_22  and  C_29
REMARK    6  A    between atoms: C_25  and  O_28
REMARK                            x       y       z     vdW  Elec       q    Type
REMARK                         _______ _______ _______ _____ _____    ______ ____
ROOT
ATOM      1  C   UNL     1      -1.471   4.144  -2.372  0.00  0.00    +0.018 C 
ATOM      2  C   UNL     1      -0.922   3.606  -1.040  0.00  0.00    +0.011 C 
ATOM      3  C   UNL     1       0.389   4.294  -0.773  0.00  0.00    +0.013 C 
ATOM      4  C   UNL     1       1.377   3.586   0.123  0.00  0.00    +0.005 C 
ATOM      5  C   UNL     1       1.396   2.072  -0.000  0.00  0.00    +0.003 C 
ATOM      6  C   UNL     1      -0.019   1.520   0.010  0.00  0.00    +0.001 C 
ATOM      7  C   UNL     1      -0.841   2.075  -1.149  0.00  0.00    +0.005 C 
ATOM      8  C   UNL     1      -2.320   1.653  -0.916  0.00  0.00    +0.010 C 
ATOM      9  C   UNL     1      -2.840   2.666   0.125  0.00  0.00    +0.053 C 
ATOM     10  C   UNL     1      -1.953   3.891   0.027  0.00  0.00    +0.043 C 
ATOM     11  N   UNL     1      -2.062   4.967   0.715  0.00  0.00    -0.189 NA
ATOM     12  C   UNL     1       0.002  -0.004   0.002  0.00  0.00    +0.031 C 
ATOM     13  C   UNL     1       0.904  -0.513  -1.082  0.00  0.00    -0.027 C 
ATOM     14  C   UNL     1       1.900   0.165  -1.564  0.00  0.00    -0.065 C 
ATOM     15  C   UNL     1       2.263   1.558  -1.126  0.00  0.00    -0.008 C 
ATOM     16  C   UNL     1       3.732   1.543  -0.674  0.00  0.00    +0.014 C 
ATOM     17  C   UNL     1       4.630   0.962  -1.762  0.00  0.00    +0.032 C 
ATOM     18  C   UNL     1       4.222  -0.471  -2.100  0.00  0.00    +0.119 C 
ATOM     19  C   UNL     1       2.779  -0.495  -2.612  0.00  0.00    +0.062 C 
ATOM     20  C   UNL     1       2.165   2.468  -2.349  0.00  0.00    +0.016 C 
ENDROOT
BRANCH  11  21
ATOM     21  N   UNL     1      -3.075   5.085   1.675  0.00  0.00    -0.219 N 
ATOM     22  H   UNL     1      -3.695   4.353   1.819  0.00  0.00    +0.176 HD
BRANCH  21  23
ATOM     23  C   UNL     1      -3.189   6.217   2.398  0.00  0.00    +0.147 C 
ATOM     24  S   UNL     1      -4.428   6.362   3.571  0.00  0.00    -0.017 S 
BRANCH  23  25
ATOM     25  N   UNL     1      -2.329   7.235   2.198  0.00  0.00    -0.339 N 
ATOM     26  H   UNL     1      -1.627   7.153   1.533  0.00  0.00    +0.144 HD
ATOM     27  H   UNL     1      -2.411   8.049   2.718  0.00  0.00    +0.144 HD
ENDBRANCH  23  25
ENDBRANCH  21  23
ENDBRANCH  11  21
BRANCH  18  28
ATOM     28  O   UNL     1       5.092  -0.987  -3.111  0.00  0.00    -0.391 OA
ATOM     29  H   UNL     1       4.892  -1.895  -3.376  0.00  0.00    +0.210 HD
ENDBRANCH  18  28
TORSDOF 4
