REMARK  Name = ZINC35107648
REMARK  9 active torsions:
REMARK  status: ('A' for Active; 'I' for Inactive)
REMARK    1  A    between atoms: C_1  and  C_2
REMARK    2  A    between atoms: C_2  and  C_3
REMARK    3  A    between atoms: C_2  and  C_4
REMARK    4  A    between atoms: C_4  and  C_5
REMARK    5  A    between atoms: C_7  and  C_30
REMARK    6  A    between atoms: C_9  and  C_22
REMARK    7  A    between atoms: C_22  and  C_24
REMARK    8  A    between atoms: C_33  and  O_36
REMARK    9  A    between atoms: O_36  and  C_37
REMARK                            x       y       z     vdW  Elec       q    Type
REMARK                         _______ _______ _______ _____ _____    ______ ____
ROOT
ATOM      1  C   UNL     1      -1.330  -2.511  -1.175  0.00  0.00    +0.063 C 
ATOM      2  C   UNL     1      -2.476  -2.636  -0.152  0.00  0.00    +0.049 C 
ATOM      3  C   UNL     1      -3.694  -3.135  -0.967  0.00  0.00    +0.103 C 
ATOM      4  C   UNL     1      -3.324  -2.743  -2.407  0.00  0.00    +0.134 C 
ATOM      5  N   UNL     1      -1.863  -2.942  -2.488  0.00  0.00    -0.295 NA
ATOM      6  C   UNL     1      -4.061  -3.578  -3.413  0.00  0.00    +0.003 A 
ATOM      7  C   UNL     1      -4.124  -4.931  -3.662  0.00  0.00    +0.008 A 
ATOM      8  C   UNL     1      -4.917  -5.410  -4.690  0.00  0.00    +0.000 A 
ATOM      9  C   UNL     1      -5.646  -4.527  -5.466  0.00  0.00    +0.002 A 
ATOM     10  C   UNL     1      -5.586  -3.171  -5.220  0.00  0.00    +0.023 A 
ATOM     11  C   UNL     1      -4.790  -2.680  -4.188  0.00  0.00    +0.039 A 
ATOM     12  N   UNL     1      -4.566  -1.372  -3.752  0.00  0.00    -0.283 N 
ATOM     13  C   UNL     1      -3.715  -1.324  -2.708  0.00  0.00    +0.243 C 
ATOM     14  O   UNL     1      -3.338  -0.329  -2.126  0.00  0.00    -0.273 OA
ATOM     15  H   UNL     1      -1.462  -2.398  -3.237  0.00  0.00    +0.123 HD
ATOM     16  H   UNL     1      -4.975  -0.590  -4.154  0.00  0.00    +0.155 HD
ENDROOT
BRANCH   2  17
ATOM     17  C   UNL     1      -2.115  -3.635   0.917  0.00  0.00    -0.042 A 
ATOM     18  C   UNL     1      -1.305  -4.713   0.610  0.00  0.00    +0.007 A 
ATOM     19  C   UNL     1      -0.973  -5.630   1.588  0.00  0.00    +0.046 A 
ATOM     20  C   UNL     1      -1.453  -5.469   2.880  0.00  0.00    +0.120 A 
ATOM     21  C   UNL     1      -2.265  -4.387   3.185  0.00  0.00    +0.046 A 
ATOM     22  C   UNL     1      -2.590  -3.470   2.205  0.00  0.00    +0.007 A 
BRANCH  20  23
ATOM     23  O   UNL     1      -1.129  -6.370   3.844  0.00  0.00    -0.495 OA
ATOM     24  C   UNL     1      -1.659  -6.141   5.151  0.00  0.00    +0.277 C 
ENDBRANCH  20  23
ENDBRANCH   2  17
BRANCH   3  25
ATOM     25  C   UNL     1      -3.847  -4.629  -0.838  0.00  0.00    +0.169 C 
ATOM     26  O   UNL     1      -3.007  -5.367  -1.308  0.00  0.00    -0.292 OA
BRANCH  25  27
ATOM     27  C   UNL     1      -5.016  -5.191  -0.144  0.00  0.00    +0.018 A 
ATOM     28  C   UNL     1      -5.990  -4.344   0.394  0.00  0.00    +0.011 A 
ATOM     29  C   UNL     1      -7.082  -4.879   1.043  0.00  0.00    +0.001 A 
ATOM     30  C   UNL     1      -7.217  -6.251   1.163  0.00  0.00    +0.000 A 
ATOM     31  C   UNL     1      -6.257  -7.097   0.635  0.00  0.00    +0.001 A 
ATOM     32  C   UNL     1      -5.162  -6.577  -0.022  0.00  0.00    +0.011 A 
ENDBRANCH  25  27
ENDBRANCH   3  25
BRANCH   1  33
ATOM     33  C   UNL     1      -0.861  -1.057  -1.255  0.00  0.00    +0.022 C 
BRANCH  33  35
ATOM     34  C   UNL     1       0.736   0.507  -2.372  0.00  0.00    +0.007 C 
ATOM     35  C   UNL     1       0.344  -0.961  -2.194  0.00  0.00    -0.016 C 
ATOM     36  C   UNL     1       1.520  -1.734  -1.594  0.00  0.00    +0.007 C 
ENDBRANCH  33  35
ENDBRANCH   1  33
TORSDOF 6
