REMARK  Name = ZINC24704639
REMARK  5 active torsions:
REMARK  status: ('A' for Active; 'I' for Inactive)
REMARK    1  A    between atoms: C_3  and  C_11
REMARK    2  A    between atoms: C_4  and  S_7
REMARK    3  A    between atoms: S_7  and  C_8
REMARK    4  A    between atoms: N_13  and  N_14
REMARK    5  A    between atoms: C_15  and  C_17
REMARK                            x       y       z     vdW  Elec       q    Type
REMARK                         _______ _______ _______ _____ _____    ______ ____
ROOT
ATOM      1  C   UNL     1      -2.445   3.930   0.046  0.00  0.00    +0.263 C 
ATOM      2  O   UNL     1      -2.409   5.145   0.052  0.00  0.00    -0.269 OA
ATOM      3  N   UNL     1      -3.631   3.291   0.053  0.00  0.00    -0.230 N 
ATOM      4  H   UNL     1      -3.664   2.191   0.047  0.00  0.00    +0.173 HD
ENDROOT
BRANCH   1   7
ATOM      5  C   UNL     1      -0.013   1.076   0.008  0.00  0.00    +0.020 A 
ATOM      6  C   UNL     1      -1.217   1.756   0.017  0.00  0.00    +0.017 A 
ATOM      7  C   UNL     1      -1.191   3.155   0.030  0.00  0.00    +0.070 A 
ATOM      8  C   UNL     1       0.054   3.809   0.022  0.00  0.00    +0.114 A 
ATOM      9  N   UNL     1       1.178   3.107   0.007  0.00  0.00    -0.248 NA
ATOM     10  C   UNL     1       1.173   1.789   0.001  0.00  0.00    +0.112 A 
BRANCH   8  11
ATOM     11  S   UNL     1       0.120   5.570   0.031  0.00  0.00    -0.035 S 
BRANCH  11  12
ATOM     12  C   UNL     1       1.913   5.817   0.015  0.00  0.00    +0.405 C 
ATOM     13  F   UNL     1       2.476   5.221   1.149  0.00  0.00    -0.197 F 
ATOM     14  F   UNL     1       2.455   5.234  -1.135  0.00  0.00    -0.197 F 
ENDBRANCH  11  12
ENDBRANCH   8  11
ENDBRANCH   1   7
BRANCH   3  15
ATOM     15  N   UNL     1      -4.823   4.027   0.068  0.00  0.00    -0.230 N 
ATOM     16  C   UNL     1      -6.010   3.388   0.075  0.00  0.00    +0.267 C 
ATOM     17  O   UNL     1      -6.046   2.171   0.069  0.00  0.00    -0.268 OA
ATOM     18  H   UNL     1      -4.791   5.127   0.074  0.00  0.00    +0.173 HD
BRANCH  16  19
ATOM     19  C   UNL     1      -7.257   4.158   0.091  0.00  0.00    +0.076 A 
ATOM     20  C   UNL     1      -8.563   3.703   0.101  0.00  0.00    +0.024 A 
ATOM     21  C   UNL     1      -9.582   4.641   0.116  0.00  0.00    -0.036 A 
ATOM     22  C   UNL     1      -9.209   5.955   0.120  0.00  0.00    -0.006 A 
ATOM     23  S   UNL     1      -7.487   5.928   0.111  0.00  0.00    -0.088 S 
ATOM     24  C   UNL     1     -10.111   7.150   0.134  0.00  0.00    +0.043 C 
ATOM     25  C   UNL     1     -11.530   6.690  -0.231  0.00  0.00    +0.005 C 
ATOM     26  C   UNL     1     -11.878   5.455   0.606  0.00  0.00    +0.005 C 
ATOM     27  C   UNL     1     -11.059   4.255   0.129  0.00  0.00    +0.036 C 
ENDBRANCH  16  19
ENDBRANCH   3  15
TORSDOF 5
