REMARK  Name = ZINC03167260
REMARK  7 active torsions:
REMARK  status: ('A' for Active; 'I' for Inactive)
REMARK    1  A    between atoms: C_1  and  C_2
REMARK    2  A    between atoms: C_4  and  C_8
REMARK    3  A    between atoms: C_5  and  C_7
REMARK    4  A    between atoms: N_10  and  N_11
REMARK    5  A    between atoms: C_12  and  C_13
REMARK    6  A    between atoms: N_20  and  C_28
REMARK    7  A    between atoms: C_21  and  C_22
REMARK                            x       y       z     vdW  Elec       q    Type
REMARK                         _______ _______ _______ _____ _____    ______ ____
ROOT
ATOM      1  C   UNL     1       7.825   2.766  -0.058  0.00  0.00    +0.028 A 
ATOM      2  C   UNL     1       8.680   1.566  -0.066  0.00  0.00    +0.009 A 
ATOM      3  C   UNL     1       8.415   0.197  -0.076  0.00  0.00    +0.010 A 
ATOM      4  C   UNL     1       9.460  -0.700  -0.090  0.00  0.00    +0.001 A 
ATOM      5  C   UNL     1      10.771  -0.246  -0.100  0.00  0.00    +0.002 A 
ATOM      6  C   UNL     1      11.048   1.103  -0.096  0.00  0.00    +0.027 A 
ATOM      7  C   UNL     1      10.007   2.026  -0.082  0.00  0.00    +0.055 A 
ATOM      8  N   UNL     1       9.978   3.407  -0.074  0.00  0.00    -0.308 N 
ATOM      9  C   UNL     1       8.680   3.855  -0.060  0.00  0.00    +0.064 A 
ENDROOT
BRANCH   9  10
ATOM     10  C   UNL     1       8.263   5.270  -0.048  0.00  0.00    -0.001 A 
ATOM     11  C   UNL     1       8.888   6.179   0.809  0.00  0.00    +0.010 A 
ATOM     12  C   UNL     1       8.496   7.501   0.811  0.00  0.00    +0.001 A 
ATOM     13  C   UNL     1       7.479   7.926  -0.026  0.00  0.00    +0.000 A 
ATOM     14  C   UNL     1       6.852   7.031  -0.874  0.00  0.00    +0.001 A 
ATOM     15  C   UNL     1       7.237   5.707  -0.891  0.00  0.00    +0.010 A 
ENDBRANCH   9  10
BRANCH   8  16
ATOM     16  C   UNL     1      11.110   4.231  -0.080  0.00  0.00    +0.047 A 
ATOM     17  C   UNL     1      11.366   5.054  -1.169  0.00  0.00    +0.026 A 
ATOM     18  C   UNL     1      12.481   5.870  -1.170  0.00  0.00    +0.002 A 
ATOM     19  C   UNL     1      13.346   5.860  -0.091  0.00  0.00    +0.000 A 
ATOM     20  C   UNL     1      13.097   5.039   0.993  0.00  0.00    +0.002 A 
ATOM     21  C   UNL     1      11.981   4.225   1.002  0.00  0.00    +0.026 A 
ENDBRANCH   8  16
BRANCH   1  23
ATOM     22  N   UNL     1       5.681   1.688  -0.043  0.00  0.00    -0.187 NA
ATOM     23  C   UNL     1       6.357   2.800  -0.044  0.00  0.00    +0.141 C 
BRANCH  22  26
ATOM     24  C   UNL     1       3.580   0.570  -0.029  0.00  0.00    +0.267 C 
ATOM     25  O   UNL     1       4.164  -0.498  -0.040  0.00  0.00    -0.268 OA
ATOM     26  N   UNL     1       4.281   1.721  -0.030  0.00  0.00    -0.203 N 
ATOM     27  H   UNL     1       3.815   2.572  -0.021  0.00  0.00    +0.178 HD
BRANCH  24  31
ATOM     28  C   UNL     1      -1.256   2.195   0.020  0.00  0.00    +0.086 C 
ATOM     29  C   UNL     1      -0.016   1.338   0.009  0.00  0.00    +0.103 A 
ATOM     30  C   UNL     1       1.245   1.795  -0.000  0.00  0.00    +0.057 A 
ATOM     31  C   UNL     1       2.107   0.604  -0.015  0.00  0.00    +0.079 A 
ATOM     32  C   UNL     1       1.257  -0.464  -0.012  0.00  0.00    +0.114 A 
ATOM     33  O   UNL     1       0.002  -0.004   0.002  0.00  0.00    -0.464 OA
ATOM     34  C   UNL     1       1.664  -1.915  -0.025  0.00  0.00    +0.087 C 
ENDBRANCH  24  31
ENDBRANCH  22  26
ENDBRANCH   1  23
TORSDOF 5
