REMARK  Name = ZINC06752998
REMARK  8 active torsions:
REMARK  status: ('A' for Active; 'I' for Inactive)
REMARK    1  A    between atoms: C_1  and  C_2
REMARK    2  A    between atoms: C_2  and  C_3
REMARK    3  A    between atoms: C_3  and  C_4
REMARK    4  A    between atoms: C_4  and  N_5
REMARK    5  A    between atoms: C_6  and  C_23
REMARK    6  A    between atoms: C_9  and  C_16
REMARK    7  A    between atoms: C_21  and  O_22
REMARK    8  A    between atoms: C_27  and  O_29
REMARK                            x       y       z     vdW  Elec       q    Type
REMARK                         _______ _______ _______ _____ _____    ______ ____
ROOT
ATOM      1  N   UNL     1       1.471  -2.526   2.420  0.00  0.00    -0.285 N 
ATOM      2  C   UNL     1       2.913  -2.786   2.505  0.00  0.00    +0.141 C 
ATOM      3  C   UNL     1       3.175  -3.266   3.907  0.00  0.00    +0.035 A 
ATOM      4  C   UNL     1       4.081  -3.697   4.822  0.00  0.00    +0.075 A 
ATOM      5  N   UNL     1       3.389  -3.945   5.972  0.00  0.00    -0.276 N 
ATOM      6  H   UNL     1       3.780  -4.266   6.800  0.00  0.00    +0.189 HD
ATOM      7  N   UNL     1       2.141  -3.689   5.797  0.00  0.00    -0.168 NA
ATOM      8  C   UNL     1       1.925  -3.270   4.566  0.00  0.00    +0.153 A 
ATOM      9  C   UNL     1       0.907  -2.800   3.608  0.00  0.00    +0.268 C 
ATOM     10  O   UNL     1      -0.277  -2.680   3.858  0.00  0.00    -0.268 OA
ENDROOT
BRANCH   4  11
ATOM     11  C   UNL     1       5.536  -3.867   4.612  0.00  0.00    +0.042 A 
ATOM     12  C   UNL     1       6.108  -5.138   4.667  0.00  0.00    +0.013 A 
ATOM     13  C   UNL     1       7.465  -5.291   4.471  0.00  0.00    +0.001 A 
ATOM     14  C   UNL     1       8.262  -4.187   4.218  0.00  0.00    +0.004 A 
ATOM     15  C   UNL     1       7.705  -2.923   4.162  0.00  0.00    +0.046 A 
ATOM     16  C   UNL     1       6.343  -2.755   4.351  0.00  0.00    +0.126 A 
BRANCH  16  17
ATOM     17  O   UNL     1       5.795  -1.514   4.290  0.00  0.00    -0.506 OA
ATOM     18  H   UNL     1       5.773  -1.051   5.138  0.00  0.00    +0.292 HD
ENDBRANCH  16  17
ENDBRANCH   4  11
BRANCH   2  19
ATOM     19  C   UNL     1       3.684  -1.518   2.239  0.00  0.00    -0.019 A 
ATOM     20  C   UNL     1       3.237  -0.316   2.757  0.00  0.00    +0.006 A 
ATOM     21  C   UNL     1       3.942   0.848   2.515  0.00  0.00    +0.004 A 
ATOM     22  C   UNL     1       5.094   0.814   1.753  0.00  0.00    +0.045 A 
ATOM     23  C   UNL     1       5.544  -0.390   1.232  0.00  0.00    +0.117 A 
ATOM     24  C   UNL     1       4.838  -1.559   1.482  0.00  0.00    +0.051 A 
BRANCH  23  25
ATOM     25  O   UNL     1       6.677  -0.427   0.483  0.00  0.00    -0.507 OA
ATOM     26  H   UNL     1       7.484  -0.574   0.996  0.00  0.00    +0.292 HD
ENDBRANCH  23  25
ENDBRANCH   2  19
BRANCH   1  27
ATOM     27  C   UNL     1       0.763  -2.041   1.233  0.00  0.00    +0.109 C 
BRANCH  27  28
ATOM     28  C   UNL     1       0.742  -0.511   1.242  0.00  0.00    +0.019 C 
BRANCH  28  30
ATOM     29  C   UNL     1      -0.019   1.526   0.010  0.00  0.00    +0.004 C 
ATOM     30  C   UNL     1       0.002  -0.004   0.002  0.00  0.00    -0.002 C 
ENDBRANCH  28  30
ENDBRANCH  27  28
ENDBRANCH   1  27
TORSDOF 7
