REMARK  Name = ZINC13590594
REMARK  4 active torsions:
REMARK  status: ('A' for Active; 'I' for Inactive)
REMARK    1  A    between atoms: C_5  and  C_7
REMARK    2  A    between atoms: C_7  and  C_8
REMARK    3  A    between atoms: C_13  and  N_15
REMARK    4  A    between atoms: N_15  and  C_16
REMARK                            x       y       z     vdW  Elec       q    Type
REMARK                         _______ _______ _______ _____ _____    ______ ____
ROOT
ATOM      1  C   UNL     1       1.700  -2.775   0.734  0.00  0.00    +0.146 C 
ATOM      2  C   UNL     1       1.565  -4.256   1.065  0.00  0.00    +0.252 C 
ATOM      3  O   UNL     1       0.595  -4.910   0.735  0.00  0.00    -0.272 OA
ATOM      4  N   UNL     1       2.564  -4.774   1.726  0.00  0.00    -0.156 NA
ATOM      5  C   UNL     1       3.642  -4.101   2.106  0.00  0.00    +0.171 C 
ATOM      6  S   UNL     1       3.342  -2.443   1.502  0.00  0.00    -0.078 S 
ENDROOT
BRANCH   1   7
ATOM      7  C   UNL     1       1.733  -2.540  -0.777  0.00  0.00    +0.060 C 
BRANCH   7  12
ATOM      8  C   UNL     1       0.820   1.041  -1.549  0.00  0.00    +0.000 A 
ATOM      9  C   UNL     1       2.062   1.647  -1.562  0.00  0.00    +0.001 A 
ATOM     10  C   UNL     1       3.199   0.899  -1.321  0.00  0.00    +0.020 A 
ATOM     11  C   UNL     1       3.093  -0.457  -1.066  0.00  0.00    +0.044 A 
ATOM     12  C   UNL     1       1.849  -1.063  -1.054  0.00  0.00    -0.028 A 
ATOM     13  C   UNL     1       0.713  -0.313  -1.295  0.00  0.00    +0.005 A 
ATOM     14 CL   UNL     1       4.520  -1.398  -0.764  0.00  0.00    -0.083 Cl
ENDBRANCH   7  12
ENDBRANCH   1   7
BRANCH   5  15
ATOM     15  N   UNL     1       4.725  -4.564   2.797  0.00  0.00    -0.192 NA
BRANCH  15  16
ATOM     16  C   UNL     1       4.884  -5.937   3.011  0.00  0.00    +0.056 A 
ATOM     17  C   UNL     1       5.644  -6.391   4.082  0.00  0.00    +0.026 A 
ATOM     18  C   UNL     1       5.798  -7.747   4.291  0.00  0.00    +0.022 A 
ATOM     19  C   UNL     1       5.197  -8.654   3.435  0.00  0.00    +0.041 A 
ATOM     20  C   UNL     1       4.441  -8.204   2.367  0.00  0.00    +0.022 A 
ATOM     21  C   UNL     1       4.278  -6.849   2.157  0.00  0.00    +0.026 A 
ATOM     22 CL   UNL     1       5.394 -10.358   3.701  0.00  0.00    -0.084 Cl
ENDBRANCH  15  16
ENDBRANCH   5  15
TORSDOF 4
