REMARK  Name = ZINC41083695
REMARK  9 active torsions:
REMARK  status: ('A' for Active; 'I' for Inactive)
REMARK    1  A    between atoms: C_1  and  C_2
REMARK    2  A    between atoms: C_2  and  O_3
REMARK    3  A    between atoms: O_3  and  C_4
REMARK    4  A    between atoms: C_6  and  C_22
REMARK    5  A    between atoms: C_9  and  O_10
REMARK    6  A    between atoms: O_10  and  C_11
REMARK    7  A    between atoms: C_11  and  C_12
REMARK    8  A    between atoms: C_17  and  N_18
REMARK    9  A    between atoms: C_28  and  C_34
REMARK                            x       y       z     vdW  Elec       q    Type
REMARK                         _______ _______ _______ _____ _____    ______ ____
ROOT
ATOM      1  C   UNL     1       1.330  -2.069  -1.382  0.00  0.00    +0.164 A 
ATOM      2  C   UNL     1       0.554  -2.790  -0.497  0.00  0.00    +0.057 A 
ATOM      3  C   UNL     1       0.614  -4.190  -0.498  0.00  0.00    -0.019 A 
ATOM      4  C   UNL     1       1.462  -4.851  -1.398  0.00  0.00    +0.032 A 
ATOM      5  C   UNL     1       2.232  -4.122  -2.278  0.00  0.00    +0.087 A 
ATOM      6  C   UNL     1       2.167  -2.733  -2.279  0.00  0.00    +0.181 A 
ATOM      7 CL   UNL     1       3.282  -4.940  -3.393  0.00  0.00    -0.080 Cl
ENDROOT
BRANCH   3   8
ATOM      8  C   UNL     1      -0.206  -4.962   0.439  0.00  0.00    +0.024 C 
ATOM      9  C   UNL     1      -0.757  -6.160   0.046  0.00  0.00    +0.079 C 
ATOM     10  C   UNL     1      -1.443  -7.065   1.011  0.00  0.00    +0.135 C 
ATOM     11  N   UNL     1      -2.120  -6.635   2.042  0.00  0.00    -0.284 NA
ATOM     12  N   UNL     1      -1.289  -8.435   0.701  0.00  0.00    -0.241 N 
ATOM     13  C   UNL     1      -1.403  -9.458   1.600  0.00  0.00    +0.094 C 
ATOM     14  C   UNL     1      -1.290 -10.708   1.142  0.00  0.00    +0.004 C 
ATOM     15  S   UNL     1      -1.011 -10.444  -0.600  0.00  0.00    -0.060 S 
ATOM     16  C   UNL     1      -1.009  -8.774  -0.603  0.00  0.00    +0.163 C 
ATOM     17  N   UNL     1      -0.769  -7.947  -1.598  0.00  0.00    -0.154 NA
ATOM     18  C   UNL     1      -0.708  -6.621  -1.363  0.00  0.00    +0.273 C 
ATOM     19  O   UNL     1      -0.611  -5.823  -2.281  0.00  0.00    -0.268 OA
ATOM     20  C   UNL     1      -1.377 -12.007   1.902  0.00  0.00    +0.053 C 
ATOM     21  H   UNL     1      -2.195  -5.683   2.209  0.00  0.00    +0.188 HD
ENDBRANCH   3   8
BRANCH   1  22
ATOM     22  O   UNL     1       1.274  -0.710  -1.384  0.00  0.00    -0.489 OA
BRANCH  22  24
ATOM     23  C   UNL     1       0.468   1.425  -0.590  0.00  0.00    +0.048 C 
ATOM     24  C   UNL     1       0.396  -0.096  -0.439  0.00  0.00    +0.226 C 
ENDBRANCH  22  24
ENDBRANCH   1  22
BRANCH   6  25
ATOM     25  O   UNL     1       2.924  -2.021  -3.152  0.00  0.00    -0.482 OA
BRANCH  25  26
ATOM     26  C   UNL     1       4.231  -1.640  -2.718  0.00  0.00    +0.267 C 
BRANCH  26  27
ATOM     27  C   UNL     1       4.918  -0.863  -3.811  0.00  0.00    +0.020 A 
ATOM     28  C   UNL     1       4.262  -0.621  -5.004  0.00  0.00    +0.009 A 
ATOM     29  C   UNL     1       4.891   0.092  -6.006  0.00  0.00    +0.001 A 
ATOM     30  C   UNL     1       6.177   0.564  -5.816  0.00  0.00    +0.002 A 
ATOM     31  C   UNL     1       6.832   0.324  -4.623  0.00  0.00    +0.033 A 
ATOM     32  C   UNL     1       6.201  -0.386  -3.619  0.00  0.00    +0.133 A 
BRANCH  32  33
ATOM     33  N   UNL     1       6.900  -0.640  -2.340  0.00  0.00    +0.057 N 
ATOM     34  O   UNL     1       8.023  -0.223  -2.171  0.00  0.00    -0.126 OA
ATOM     35  O   UNL     1       6.350  -1.263  -1.462  0.00  0.00    -0.126 OA
ENDBRANCH  32  33
ENDBRANCH  26  27
ENDBRANCH  25  26
ENDBRANCH   6  25
TORSDOF 7
