REMARK  Name = ZINC01740163
REMARK  4 active torsions:
REMARK  status: ('A' for Active; 'I' for Inactive)
REMARK    1  A    between atoms: C_4  and  C_7
REMARK    2  A    between atoms: C_8  and  C_9
REMARK    3  A    between atoms: N_10  and  N_11
REMARK    4  A    between atoms: N_14  and  C_17
REMARK                            x       y       z     vdW  Elec       q    Type
REMARK                         _______ _______ _______ _____ _____    ______ ____
ROOT
ATOM      1  N   UNL     1       6.080   6.236  -0.542  0.00  0.00    -0.253 N 
ATOM      2  C   UNL     1       7.372   5.534  -0.556  0.00  0.00    +0.144 C 
ATOM      3  C   UNL     1       8.119   5.925  -1.841  0.00  0.00    +0.125 C 
ATOM      4  N   UNL     1       8.206   7.389  -1.925  0.00  0.00    -0.327 N 
ATOM      5  C   UNL     1       6.873   7.997  -2.028  0.00  0.00    +0.125 C 
ATOM      6  C   UNL     1       6.075   7.691  -0.757  0.00  0.00    +0.144 C 
ENDROOT
BRANCH   4   7
ATOM      7  C   UNL     1       9.021   7.782  -2.990  0.00  0.00    +0.030 A 
ATOM      8  C   UNL     1       8.525   8.636  -3.966  0.00  0.00    +0.024 A 
ATOM      9  C   UNL     1       9.334   9.028  -5.015  0.00  0.00    +0.022 A 
ATOM     10  C   UNL     1      10.633   8.561  -5.100  0.00  0.00    +0.041 A 
ATOM     11  C   UNL     1      11.128   7.705  -4.132  0.00  0.00    +0.022 A 
ATOM     12  C   UNL     1      10.326   7.315  -3.078  0.00  0.00    +0.024 A 
ATOM     13 CL   UNL     1      11.645   9.049  -6.423  0.00  0.00    -0.084 Cl
ENDBRANCH   4   7
BRANCH   1  15
ATOM     14  C   UNL     1       4.899   4.239  -0.222  0.00  0.00    +0.150 C 
ATOM     15  N   UNL     1       4.885   5.537  -0.324  0.00  0.00    -0.191 NA
BRANCH  14  17
ATOM     16  C   UNL     1       3.656   2.155  -0.017  0.00  0.00    +0.029 C 
ATOM     17  C   UNL     1       3.641   3.501  -0.123  0.00  0.00    +0.061 C 
ATOM     18 CL   UNL     1       2.130   4.354  -0.140  0.00  0.00    -0.082 Cl
BRANCH  16  22
ATOM     19  C   UNL     1       0.020  -0.024  -0.172  0.00  0.00    +0.000 A 
ATOM     20  C   UNL     1       1.070  -0.492   0.598  0.00  0.00    +0.001 A 
ATOM     21  C   UNL     1       2.255   0.211   0.653  0.00  0.00    +0.008 A 
ATOM     22  C   UNL     1       2.394   1.399  -0.071  0.00  0.00    -0.024 A 
ATOM     23  C   UNL     1       1.328   1.865  -0.847  0.00  0.00    +0.008 A 
ATOM     24  C   UNL     1       0.149   1.151  -0.892  0.00  0.00    +0.001 A 
ENDBRANCH  16  22
ENDBRANCH  14  17
ENDBRANCH   1  15
TORSDOF 4
