REMARK  Name = ZINC40310420
REMARK  11 active torsions:
REMARK  status: ('A' for Active; 'I' for Inactive)
REMARK    1  A    between atoms: C_1  and  C_2
REMARK    2  A    between atoms: C_2  and  C_3
REMARK    3  A    between atoms: C_6  and  O_9
REMARK    4  A    between atoms: O_9  and  C_10
REMARK    5  A    between atoms: C_10  and  C_11
REMARK    6  A    between atoms: C_11  and  N_12
REMARK    7  A    between atoms: C_15  and  C_31
REMARK    8  A    between atoms: C_16  and  C_30
REMARK    9  A    between atoms: C_20  and  C_21
REMARK   10  A    between atoms: C_21  and  C_23
REMARK   11  A    between atoms: C_21  and  O_29
REMARK                            x       y       z     vdW  Elec       q    Type
REMARK                         _______ _______ _______ _____ _____    ______ ____
ROOT
ATOM      1  N   UNL     1       2.045  -2.855   8.063  0.00  0.00    -0.322 N 
ATOM      2  C   UNL     1       1.762  -1.942   9.059  0.00  0.00    +0.069 A 
ATOM      3  C   UNL     1       2.092  -0.610   9.271  0.00  0.00    +0.031 A 
ATOM      4  C   UNL     1       1.636   0.035  10.402  0.00  0.00    -0.045 A 
ATOM      5  C   UNL     1       0.851  -0.639  11.327  0.00  0.00    -0.045 A 
ATOM      6  C   UNL     1       0.517  -1.950  11.134  0.00  0.00    +0.033 A 
ATOM      7  C   UNL     1       0.967  -2.623   9.995  0.00  0.00    +0.090 A 
ATOM      8  N   UNL     1       0.809  -3.890   9.533  0.00  0.00    -0.229 NA
ATOM      9  C   UNL     1       1.435  -4.023   8.400  0.00  0.00    +0.144 A 
ATOM     10  C   UNL     1       0.363   0.082  12.556  0.00  0.00    +0.044 C 
ATOM     11  C   UNL     1       1.993   1.480  10.634  0.00  0.00    +0.044 C 
ENDROOT
BRANCH   1  12
ATOM     12  C   UNL     1       2.849  -2.610   6.862  0.00  0.00    +0.164 C 
BRANCH  12  13
ATOM     13  C   UNL     1       1.942  -2.110   5.736  0.00  0.00    +0.250 C 
BRANCH  13  14
ATOM     14  O   UNL     1       2.726  -1.871   4.565  0.00  0.00    -0.490 OA
BRANCH  14  18
ATOM     15  C   UNL     1       0.731  -0.503   1.223  0.00  0.00    -0.047 A 
ATOM     16  C   UNL     1       2.097  -0.709   1.175  0.00  0.00    +0.007 A 
ATOM     17  C   UNL     1       2.768  -1.167   2.292  0.00  0.00    +0.046 A 
ATOM     18  C   UNL     1       2.069  -1.420   3.464  0.00  0.00    +0.121 A 
ATOM     19  C   UNL     1       0.698  -1.212   3.510  0.00  0.00    +0.046 A 
ATOM     20  C   UNL     1       0.033  -0.749   2.391  0.00  0.00    +0.007 A 
BRANCH  15  22
ATOM     21  C   UNL     1      -0.019   1.526   0.010  0.00  0.00    +0.009 C 
ATOM     22  C   UNL     1       0.002  -0.004   0.002  0.00  0.00    +0.032 C 
ENDBRANCH  15  22
ENDBRANCH  14  18
ENDBRANCH  13  14
ENDBRANCH  12  13
ENDBRANCH   1  12
BRANCH   9  23
ATOM     23  C   UNL     1       1.480  -5.288   7.582  0.00  0.00    +0.210 C 
BRANCH  23  24
ATOM     24  C   UNL     1       0.158  -5.484   6.887  0.00  0.00    -0.012 A 
ATOM     25  C   UNL     1      -0.918  -6.006   7.581  0.00  0.00    +0.006 A 
ATOM     26  C   UNL     1      -2.131  -6.186   6.943  0.00  0.00    +0.000 A 
ATOM     27  C   UNL     1      -2.268  -5.843   5.611  0.00  0.00    +0.000 A 
ATOM     28  C   UNL     1      -1.193  -5.320   4.917  0.00  0.00    +0.000 A 
ATOM     29  C   UNL     1       0.019  -5.137   5.556  0.00  0.00    +0.006 A 
ENDBRANCH  23  24
BRANCH  23  30
ATOM     30  O   UNL     1       1.736  -6.401   8.441  0.00  0.00    -0.379 OA
ATOM     31  H   UNL     1       1.069  -6.530   9.128  0.00  0.00    +0.211 HD
ENDBRANCH  23  30
ENDBRANCH   9  23
TORSDOF 8
