REMARK  Name = ZINC14337510
REMARK  7 active torsions:
REMARK  status: ('A' for Active; 'I' for Inactive)
REMARK    1  A    between atoms: C_1  and  C_2
REMARK    2  A    between atoms: C_2  and  C_3
REMARK    3  A    between atoms: C_2  and  C_4
REMARK    4  A    between atoms: C_4  and  C_5
REMARK    5  A    between atoms: N_7  and  N_8
REMARK    6  A    between atoms: C_9  and  C_11
REMARK    7  A    between atoms: N_14  and  C_16
REMARK                            x       y       z     vdW  Elec       q    Type
REMARK                         _______ _______ _______ _____ _____    ______ ____
ROOT
ATOM      1  C   UNL     1      -2.456   0.868   0.018  0.00  0.00    +0.152 A 
ATOM      2  C   UNL     1      -3.757   1.411   0.033  0.00  0.00    +0.006 A 
ATOM      3  C   UNL     1      -4.600   0.354   0.037  0.00  0.00    +0.049 A 
ATOM      4  N   UNL     1      -3.836  -0.765   0.020  0.00  0.00    -0.236 N 
ATOM      5  N   UNL     1      -2.589  -0.446   0.012  0.00  0.00    -0.161 NA
ATOM      6  C   UNL     1      -6.104   0.435   0.074  0.00  0.00    +0.056 C 
ATOM      7  C   UNL     1      -6.577   1.454  -0.967  0.00  0.00    +0.006 C 
ATOM      8  C   UNL     1      -6.625   2.847  -0.343  0.00  0.00    +0.001 C 
ATOM      9  C   UNL     1      -5.517   3.015   0.693  0.00  0.00    +0.005 C 
ATOM     10  C   UNL     1      -4.151   2.862   0.015  0.00  0.00    +0.039 C 
ENDROOT
BRANCH   4  11
ATOM     11  C   UNL     1      -4.331  -2.077   0.010  0.00  0.00    +0.066 A 
ATOM     12  C   UNL     1      -5.488  -2.388   0.710  0.00  0.00    +0.030 A 
ATOM     13  C   UNL     1      -5.976  -3.680   0.696  0.00  0.00    +0.040 A 
ATOM     14  C   UNL     1      -5.307  -4.666  -0.009  0.00  0.00    +0.124 A 
ATOM     15  C   UNL     1      -4.149  -4.359  -0.704  0.00  0.00    +0.040 A 
ATOM     16  C   UNL     1      -3.660  -3.067  -0.696  0.00  0.00    +0.030 A 
ATOM     17  F   UNL     1      -5.783  -5.931  -0.018  0.00  0.00    -0.205 F 
ENDBRANCH   4  11
BRANCH   1  19
ATOM     18  N   UNL     1      -0.011   0.966   0.007  0.00  0.00    -0.229 N 
ATOM     19  C   UNL     1      -1.187   1.624   0.017  0.00  0.00    +0.281 C 
ATOM     20  O   UNL     1      -1.204   2.839   0.023  0.00  0.00    -0.267 OA
ATOM     21  H   UNL     1       0.002  -0.004   0.002  0.00  0.00    +0.173 HD
BRANCH  18  24
ATOM     22  C   UNL     1       2.369   1.025  -0.015  0.00  0.00    +0.229 C 
ATOM     23  O   UNL     1       2.385  -0.188  -0.022  0.00  0.00    -0.274 OA
ATOM     24  N   UNL     1       1.193   1.683  -0.000  0.00  0.00    -0.234 N 
ATOM     25  H   UNL     1       1.179   2.653   0.005  0.00  0.00    +0.173 HD
BRANCH  22  26
ATOM     26  C   UNL     1       3.663   1.796  -0.023  0.00  0.00    +0.100 C 
BRANCH  26  28
ATOM     27  C   UNL     1       6.149   1.597  -0.174  0.00  0.00    +0.008 C 
ATOM     28  C   UNL     1       4.840   0.818  -0.040  0.00  0.00    -0.008 C 
ATOM     29  C   UNL     1       4.854   0.016   1.263  0.00  0.00    +0.008 C 
ENDBRANCH  26  28
ENDBRANCH  22  26
ENDBRANCH  18  24
ENDBRANCH   1  19
TORSDOF 5
