REMARK  Name = ZINC09380868
REMARK  9 active torsions:
REMARK  status: ('A' for Active; 'I' for Inactive)
REMARK    1  A    between atoms: C_1  and  C_2
REMARK    2  A    between atoms: C_2  and  S_3
REMARK    3  A    between atoms: S_3  and  N_6
REMARK    4  A    between atoms: N_6  and  C_7
REMARK    5  A    between atoms: C_10  and  C_13
REMARK    6  A    between atoms: N_15  and  S_24
REMARK    7  A    between atoms: C_16  and  C_19
REMARK    8  A    between atoms: S_24  and  C_27
REMARK    9  A    between atoms: C_30  and  C_33
REMARK                            x       y       z     vdW  Elec       q    Type
REMARK                         _______ _______ _______ _____ _____    ______ ____
ROOT
ATOM      1  C   UNL     1      -4.904   3.780  -0.681  0.00  0.00    +0.070 C 
ATOM      2  N   UNL     1      -5.898   3.366  -1.387  0.00  0.00    -0.167 NA
ATOM      3  N   UNL     1      -6.987   4.235  -1.402  0.00  0.00    -0.115 N 
ATOM      4  C   UNL     1      -6.668   5.411  -0.577  0.00  0.00    +0.160 C 
ATOM      5  C   UNL     1      -5.243   5.119  -0.067  0.00  0.00    +0.089 C 
ENDROOT
BRANCH   1   9
ATOM      6  C   UNL     1      -1.241   1.697  -0.150  0.00  0.00    +0.048 A 
ATOM      7  C   UNL     1      -1.436   2.927   0.470  0.00  0.00    +0.025 A 
ATOM      8  C   UNL     1      -2.621   3.608   0.295  0.00  0.00    +0.011 A 
ATOM      9  C   UNL     1      -3.632   3.056  -0.496  0.00  0.00    -0.002 A 
ATOM     10  C   UNL     1      -3.435   1.818  -1.113  0.00  0.00    +0.011 A 
ATOM     11  C   UNL     1      -2.245   1.145  -0.938  0.00  0.00    +0.025 A 
BRANCH   6  12
ATOM     12  N   UNL     1      -0.037   1.013   0.025  0.00  0.00    -0.221 N 
ATOM     13  H   UNL     1      -0.043   0.065   0.229  0.00  0.00    +0.173 HD
BRANCH  12  14
ATOM     14  S   UNL     1       1.402   1.819  -0.125  0.00  0.00    +0.043 S 
ATOM     15  O   UNL     1       1.304   2.909   0.781  0.00  0.00    -0.155 OA
ATOM     16  O   UNL     1       2.397   0.819   0.050  0.00  0.00    -0.155 OA
BRANCH  14  18
ATOM     17  C   UNL     1       2.750   3.131  -2.110  0.00  0.00    +0.030 C 
ATOM     18  C   UNL     1       1.421   2.427  -1.834  0.00  0.00    +0.185 C 
ENDBRANCH  14  18
ENDBRANCH  12  14
ENDBRANCH   6  12
ENDBRANCH   1   9
BRANCH   4  19
ATOM     19  C   UNL     1      -7.628   5.524   0.579  0.00  0.00    +0.014 A 
ATOM     20  C   UNL     1      -8.184   6.636   1.121  0.00  0.00    +0.013 A 
ATOM     21  C   UNL     1      -9.048   6.499   2.191  0.00  0.00    +0.008 A 
ATOM     22  C   UNL     1      -9.315   5.258   2.667  0.00  0.00    +0.045 A 
ATOM     23  S   UNL     1      -8.334   4.230   1.586  0.00  0.00    -0.100 S 
ENDBRANCH   4  19
BRANCH   3  24
ATOM     24  S   UNL     1      -8.409   3.985  -2.214  0.00  0.00    +0.089 S 
ATOM     25  O   UNL     1      -8.591   2.578  -2.289  0.00  0.00    -0.149 OA
ATOM     26  O   UNL     1      -9.371   4.848  -1.624  0.00  0.00    -0.149 OA
BRANCH  24  27
ATOM     27  C   UNL     1      -8.171   4.550  -3.866  0.00  0.00    +0.110 A 
ATOM     28  C   UNL     1      -8.458   5.862  -4.195  0.00  0.00    +0.029 A 
ATOM     29  C   UNL     1      -8.267   6.307  -5.490  0.00  0.00    +0.005 A 
ATOM     30  C   UNL     1      -7.799   5.438  -6.457  0.00  0.00    -0.050 A 
ATOM     31  C   UNL     1      -7.517   4.125  -6.129  0.00  0.00    +0.005 A 
ATOM     32  C   UNL     1      -7.703   3.681  -4.833  0.00  0.00    +0.029 A 
ATOM     33  C   UNL     1      -7.597   5.921  -7.870  0.00  0.00    +0.044 C 
ENDBRANCH  24  27
ENDBRANCH   3  24
TORSDOF 7
