REMARK  Name = ZINC62506523
REMARK  8 active torsions:
REMARK  status: ('A' for Active; 'I' for Inactive)
REMARK    1  A    between atoms: C_1  and  C_2
REMARK    2  A    between atoms: C_2  and  C_3
REMARK    3  A    between atoms: C_2  and  C_21
REMARK    4  A    between atoms: C_2  and  O_28
REMARK    5  A    between atoms: C_3  and  N_4
REMARK    6  A    between atoms: C_5  and  C_7
REMARK    7  A    between atoms: C_7  and  C_8
REMARK    8  A    between atoms: C_8  and  C_9
REMARK                            x       y       z     vdW  Elec       q    Type
REMARK                         _______ _______ _______ _____ _____    ______ ____
ROOT
ATOM      1  N   UNL     1       2.077   0.091   1.294  0.00  0.00    -0.312 N 
ATOM      2  C   UNL     1       2.913  -0.212   2.306  0.00  0.00    +0.213 C 
ATOM      3  O   UNL     1       2.562  -0.983   3.174  0.00  0.00    -0.276 OA
ATOM      4  H   UNL     1       2.358   0.708   0.600  0.00  0.00    +0.149 HD
ENDROOT
BRANCH   1   5
ATOM      5  C   UNL     1       0.742  -0.511   1.242  0.00  0.00    +0.143 C 
BRANCH   5   7
ATOM      6  C   UNL     1      -0.019   1.526   0.010  0.00  0.00    +0.048 C 
ATOM      7  C   UNL     1       0.002  -0.004   0.002  0.00  0.00    +0.103 C 
BRANCH   7   8
ATOM      8  C   UNL     1      -1.412  -0.526   0.013  0.00  0.00    -0.015 A 
ATOM      9  C   UNL     1      -2.050  -0.766   1.215  0.00  0.00    +0.008 A 
ATOM     10  C   UNL     1      -3.347  -1.244   1.225  0.00  0.00    +0.020 A 
ATOM     11  C   UNL     1      -4.006  -1.483   0.032  0.00  0.00    +0.041 A 
ATOM     12  C   UNL     1      -3.366  -1.242  -1.171  0.00  0.00    +0.020 A 
ATOM     13  C   UNL     1      -2.071  -0.758  -1.180  0.00  0.00    +0.008 A 
ATOM     14 CL   UNL     1      -5.634  -2.084   0.045  0.00  0.00    -0.084 Cl
ENDBRANCH   7   8
BRANCH   7  15
ATOM     15  O   UNL     1       0.671  -0.465  -1.174  0.00  0.00    -0.383 OA
ATOM     16  H   UNL     1       0.722  -1.428  -1.246  0.00  0.00    +0.211 HD
ENDBRANCH   7  15
ENDBRANCH   5   7
ENDBRANCH   1   5
BRANCH   2  17
ATOM     17  C   UNL     1       4.286   0.408   2.360  0.00  0.00    +0.100 C 
BRANCH  17  18
ATOM     18  C   UNL     1       5.026  -0.099   3.599  0.00  0.00    +0.050 C 
BRANCH  18  19
ATOM     19  C   UNL     1       6.399   0.520   3.653  0.00  0.00    +0.018 A 
ATOM     20  C   UNL     1       6.607   1.639   4.390  0.00  0.00    +0.019 A 
ATOM     21  C   UNL     1       7.952   2.216   4.422  0.00  0.00    -0.001 A 
ATOM     22  C   UNL     1       8.228   3.368   5.165  0.00  0.00    +0.010 A 
ATOM     23  C   UNL     1       9.494   3.881   5.174  0.00  0.00    +0.001 A 
ATOM     24  C   UNL     1      10.510   3.269   4.452  0.00  0.00    +0.002 A 
ATOM     25  C   UNL     1      10.261   2.132   3.713  0.00  0.00    +0.026 A 
ATOM     26  C   UNL     1       8.979   1.591   3.689  0.00  0.00    +0.049 A 
ATOM     27  N   UNL     1       8.703   0.455   2.959  0.00  0.00    -0.322 N 
ATOM     28  H   UNL     1       9.412   0.026   2.455  0.00  0.00    +0.169 HD
ATOM     29  C   UNL     1       7.465  -0.070   2.941  0.00  0.00    +0.252 A 
ATOM     30  O   UNL     1       7.257  -1.079   2.288  0.00  0.00    -0.268 OA
ENDBRANCH  18  19
ENDBRANCH  17  18
ENDBRANCH   2  17
TORSDOF 7
