REMARK  Name = ZINC13063705
REMARK  13 active torsions:
REMARK  status: ('A' for Active; 'I' for Inactive)
REMARK    1  A    between atoms: C_1  and  C_2
REMARK    2  A    between atoms: C_2  and  C_3
REMARK    3  A    between atoms: C_10  and  C_15
REMARK    4  A    between atoms: C_15  and  N_76
REMARK    5  A    between atoms: C_16  and  N_76
REMARK    6  A    between atoms: C_22  and  C_24
REMARK    7  A    between atoms: C_22  and  C_26
REMARK    8  A    between atoms: C_22  and  N_76
REMARK    9  A    between atoms: C_24  and  C_25
REMARK   10  A    between atoms: N_30  and  C_31
REMARK   11  A    between atoms: C_31  and  C_32
REMARK   12  A    between atoms: C_35  and  O_38
REMARK   13  A    between atoms: O_38  and  C_39
REMARK                            x       y       z     vdW  Elec       q    Type
REMARK                         _______ _______ _______ _____ _____    ______ ____
ROOT
ATOM      1  N   UNL     1      -1.847   3.108  -0.484  0.00  0.00    +0.391 N 
ATOM      2  H   UNL     1      -2.817   2.823  -0.303  0.00  0.00    -0.080 HD
ENDROOT
BRANCH   1   3
ATOM      3  C   UNL     1      -1.792   4.581  -0.596  0.00  0.00    -0.067 C 
ATOM      4  C   UNL     1      -1.781   5.194   0.805  0.00  0.00    -0.015 C 
ATOM      5  C   UNL     1      -1.752   6.720   0.694  0.00  0.00    -0.002 C 
ATOM      6  C   UNL     1      -2.993   7.199  -0.062  0.00  0.00    -0.000 C 
ATOM      7  C   UNL     1      -3.005   6.586  -1.464  0.00  0.00    -0.002 C 
ATOM      8  C   UNL     1      -3.033   5.060  -1.352  0.00  0.00    -0.015 C 
ENDBRANCH   1   3
BRANCH   1   9
ATOM      9  C   UNL     1      -1.392   2.488  -1.747  0.00  0.00    -0.036 C 
BRANCH   9  17
ATOM     10  C   UNL     1      -4.384   4.537  -6.761  0.00  0.00    -0.047 A 
ATOM     11  C   UNL     1      -5.513   3.744  -6.603  0.00  0.00    +0.005 A 
ATOM     12  C   UNL     1      -5.617   2.871  -5.542  0.00  0.00    +0.026 A 
ATOM     13  C   UNL     1      -4.581   2.782  -4.617  0.00  0.00    +0.049 A 
ATOM     14  C   UNL     1      -3.439   3.588  -4.780  0.00  0.00    -0.001 A 
ATOM     15  C   UNL     1      -3.355   4.467  -5.865  0.00  0.00    +0.013 A 
ATOM     16  C   UNL     1      -2.354   3.487  -3.802  0.00  0.00    +0.017 A 
ATOM     17  C   UNL     1      -2.490   2.617  -2.771  0.00  0.00    +0.001 A 
ATOM     18  C   UNL     1      -3.654   1.827  -2.657  0.00  0.00    +0.251 A 
ATOM     19  O   UNL     1      -3.755   1.048  -1.725  0.00  0.00    -0.268 OA
ATOM     20  N   UNL     1      -4.658   1.917  -3.547  0.00  0.00    -0.322 N 
ATOM     21  H   UNL     1      -5.446   1.362  -3.436  0.00  0.00    +0.169 HD
BRANCH  10  23
ATOM     22  C   UNL     1      -3.646   4.770  -9.116  0.00  0.00    +0.009 C 
ATOM     23  C   UNL     1      -4.294   5.484  -7.929  0.00  0.00    +0.032 C 
ENDBRANCH  10  23
ENDBRANCH   9  17
ENDBRANCH   1   9
BRANCH   1  24
ATOM     24  C   UNL     1      -0.996   2.655   0.636  0.00  0.00    +0.003 C 
BRANCH  24  25
ATOM     25  C   UNL     1      -1.458   1.288   1.070  0.00  0.00    +0.138 A 
ATOM     26  N   UNL     1      -1.971   0.355   0.304  0.00  0.00    -0.115 NA
ATOM     27  N   UNL     1      -2.238  -0.665   1.044  0.00  0.00    -0.023 NA
ATOM     28  N   UNL     1      -1.909  -0.408   2.262  0.00  0.00    -0.044 NA
ATOM     29  N   UNL     1      -1.419   0.785   2.318  0.00  0.00    -0.226 N 
BRANCH  29  30
ATOM     30  C   UNL     1      -0.918   1.465   3.515  0.00  0.00    +0.182 C 
BRANCH  30  31
ATOM     31  C   UNL     1      -2.075   2.059   4.276  0.00  0.00    -0.026 A 
ATOM     32  C   UNL     1      -2.468   3.361   4.029  0.00  0.00    +0.009 A 
ATOM     33  C   UNL     1      -3.532   3.906   4.721  0.00  0.00    +0.046 A 
ATOM     34  C   UNL     1      -4.199   3.149   5.674  0.00  0.00    +0.120 A 
ATOM     35  C   UNL     1      -3.800   1.845   5.924  0.00  0.00    +0.046 A 
ATOM     36  C   UNL     1      -2.739   1.302   5.224  0.00  0.00    +0.009 A 
BRANCH  34  37
ATOM     37  O   UNL     1      -5.243   3.685   6.360  0.00  0.00    -0.495 OA
ATOM     38  C   UNL     1      -5.599   5.034   6.050  0.00  0.00    +0.277 C 
ENDBRANCH  34  37
ENDBRANCH  30  31
ENDBRANCH  29  30
ENDBRANCH  24  25
BRANCH  24  39
ATOM     39  C   UNL     1       0.469   2.583   0.200  0.00  0.00    -0.011 C 
ATOM     40  C   UNL     1       1.001   3.998  -0.034  0.00  0.00    +0.002 C 
ENDBRANCH  24  39
ENDBRANCH   1  24
TORSDOF 10
