REMARK  Name = ZINC33919806
REMARK  8 active torsions:
REMARK  status: ('A' for Active; 'I' for Inactive)
REMARK    1  A    between atoms: C_4  and  C_7
REMARK    2  A    between atoms: C_7  and  N_8
REMARK    3  A    between atoms: C_13  and  C_26
REMARK    4  A    between atoms: C_16  and  C_21
REMARK    5  A    between atoms: C_16  and  C_23
REMARK    6  A    between atoms: C_21  and  O_22
REMARK    7  A    between atoms: C_29  and  C_32
REMARK    8  A    between atoms: C_33  and  C_34
REMARK                            x       y       z     vdW  Elec       q    Type
REMARK                         _______ _______ _______ _____ _____    ______ ____
ROOT
ATOM      1  N   UNL     1       4.152  -0.952   1.338  0.00  0.00    -0.237 N 
ATOM      2  C   UNL     1       4.934  -0.079   2.053  0.00  0.00    +0.225 C 
ATOM      3  O   UNL     1       5.192   1.074   1.783  0.00  0.00    -0.275 OA
ATOM      4  C   UNL     1       5.380  -0.837   3.196  0.00  0.00    +0.077 C 
ATOM      5  C   UNL     1       5.910  -0.637   4.556  0.00  0.00    -0.027 C 
ATOM      6  N   UNL     1       5.856  -2.029   5.122  0.00  0.00    +0.397 N 
ATOM      7  C   UNL     1       4.831  -2.796   4.352  0.00  0.00    +0.071 C 
ATOM      8  C   UNL     1       4.120  -1.745   3.487  0.00  0.00    +0.088 C 
ATOM      9  C   UNL     1       3.824  -2.072   2.049  0.00  0.00    +0.225 C 
ATOM     10  O   UNL     1       3.387  -3.115   1.612  0.00  0.00    -0.275 OA
ATOM     11  H   UNL     1       6.757  -2.473   5.027  0.00  0.00    -0.083 HD
ATOM     12  H   UNL     1       5.593  -1.992   6.096  0.00  0.00    -0.083 HD
ENDROOT
BRANCH   5  13
ATOM     13  C   UNL     1       7.329  -0.130   4.511  0.00  0.00    -0.061 A 
ATOM     14  C   UNL     1       8.369  -1.014   4.284  0.00  0.00    +0.002 A 
ATOM     15  C   UNL     1       9.670  -0.556   4.242  0.00  0.00    +0.008 A 
ATOM     16  C   UNL     1       9.935   0.803   4.428  0.00  0.00    -0.025 A 
ATOM     17  C   UNL     1       8.879   1.689   4.656  0.00  0.00    +0.008 A 
ATOM     18  C   UNL     1       7.583   1.218   4.691  0.00  0.00    +0.002 A 
BRANCH  16  19
ATOM     19  C   UNL     1      11.322   1.300   4.384  0.00  0.00    +0.008 C 
ATOM     20  C   UNL     1      11.574   2.606   4.563  0.00  0.00    +0.008 C 
BRANCH  20  21
ATOM     21  C   UNL     1      12.961   3.102   4.519  0.00  0.00    -0.025 A 
ATOM     22  C   UNL     1      14.016   2.217   4.286  0.00  0.00    +0.008 A 
ATOM     23  C   UNL     1      15.312   2.689   4.246  0.00  0.00    +0.001 A 
ATOM     24  C   UNL     1      15.567   4.035   4.436  0.00  0.00    +0.000 A 
ATOM     25  C   UNL     1      14.527   4.918   4.668  0.00  0.00    +0.001 A 
ATOM     26  C   UNL     1      13.226   4.462   4.706  0.00  0.00    +0.008 A 
ENDBRANCH  20  21
ENDBRANCH  16  19
ENDBRANCH   5  13
BRANCH   7  27
ATOM     27  C   UNL     1       3.842  -3.436   5.292  0.00  0.00    +0.348 C 
ATOM     28  O   UNL     1       3.974  -3.305   6.497  0.00  0.00    -0.248 OA
ATOM     29  O   UNL     1       2.911  -4.085   4.848  0.00  0.00    -0.248 OA
ENDBRANCH   7  27
BRANCH   1  30
ATOM     30  C   UNL     1       3.711  -0.707  -0.038  0.00  0.00    +0.151 C 
BRANCH  30  34
ATOM     31  C   UNL     1      -0.017   1.378   0.010  0.00  0.00    +0.000 A 
ATOM     32  C   UNL     1       1.171   2.086   0.002  0.00  0.00    +0.000 A 
ATOM     33  C   UNL     1       2.377   1.411  -0.013  0.00  0.00    +0.005 A 
ATOM     34  C   UNL     1       2.396   0.029  -0.020  0.00  0.00    -0.030 A 
ATOM     35  C   UNL     1       1.208  -0.679  -0.012  0.00  0.00    +0.005 A 
ATOM     36  C   UNL     1       0.002  -0.004   0.002  0.00  0.00    +0.000 A 
ENDBRANCH  30  34
ENDBRANCH   1  30
BRANCH   7  37
ATOM     37  C   UNL     1       5.507  -3.861   3.487  0.00  0.00    +0.155 C 
BRANCH  37  38
ATOM     38  O   UNL     1       6.206  -4.783   4.325  0.00  0.00    -0.396 OA
ATOM     39  H   UNL     1       6.660  -5.488   3.843  0.00  0.00    +0.209 HD
ENDBRANCH  37  38
ENDBRANCH   7  37
TORSDOF 8
