REMARK  Name = ZINC61053263
REMARK  3 active torsions:
REMARK  status: ('A' for Active; 'I' for Inactive)
REMARK    1  A    between atoms: C_5  and  O_7
REMARK    2  A    between atoms: O_7  and  C_8
REMARK    3  A    between atoms: C_9  and  N_15
REMARK                            x       y       z     vdW  Elec       q    Type
REMARK                         _______ _______ _______ _____ _____    ______ ____
ROOT
ATOM      1  C   UNL     1       0.053  -2.695   0.090  0.00  0.00    +0.246 A 
ATOM      2  C   UNL     1       0.021  -4.090   0.199  0.00  0.00    +0.125 A 
ATOM      3  C   UNL     1      -1.216  -4.712   0.312  0.00  0.00    +0.157 A 
ATOM      4  N   UNL     1      -2.314  -3.967   0.314  0.00  0.00    -0.222 NA
ATOM      5  C   UNL     1      -2.244  -2.656   0.210  0.00  0.00    +0.226 A 
ATOM      6  N   UNL     1      -1.092  -2.024   0.106  0.00  0.00    -0.199 NA
ATOM      7 CL   UNL     1      -1.324  -6.439   0.449  0.00  0.00    -0.060 Cl
ENDROOT
BRANCH   2   8
ATOM      8  N   UNL     1       1.205  -4.838   0.192  0.00  0.00    -0.351 N 
ATOM      9  H   UNL     1       2.061  -4.391   0.112  0.00  0.00    +0.143 HD
ATOM     10  H   UNL     1       1.167  -5.805   0.268  0.00  0.00    +0.143 HD
ENDBRANCH   2   8
BRANCH   1  11
ATOM     11  O   UNL     1       1.234  -2.039  -0.022  0.00  0.00    -0.435 OA
BRANCH  11  16
ATOM     12  C   UNL     1       1.158   1.380  -1.264  0.00  0.00    +0.004 A 
ATOM     13  C   UNL     1       1.165   2.086  -0.074  0.00  0.00    +0.001 A 
ATOM     14  C   UNL     1       1.194   1.412   1.132  0.00  0.00    +0.019 A 
ATOM     15  C   UNL     1       1.218   0.030   1.153  0.00  0.00    +0.060 A 
ATOM     16  C   UNL     1       1.211  -0.680  -0.039  0.00  0.00    +0.144 A 
ATOM     17  C   UNL     1       1.181  -0.001  -1.249  0.00  0.00    +0.047 A 
ATOM     18 BR   UNL     1       1.260  -0.891   2.804  0.00  0.00    -0.046 Br
ENDBRANCH  11  16
ENDBRANCH   1  11
TORSDOF 3
