REMARK  Name = ZINC67594078
REMARK  7 active torsions:
REMARK  status: ('A' for Active; 'I' for Inactive)
REMARK    1  A    between atoms: C_1  and  C_2
REMARK    2  A    between atoms: C_3  and  C_30
REMARK    3  A    between atoms: C_10  and  C_13
REMARK    4  A    between atoms: C_13  and  C_14
REMARK    5  A    between atoms: C_14  and  C_15
REMARK    6  A    between atoms: N_17  and  C_18
REMARK    7  A    between atoms: C_21  and  C_23
REMARK                            x       y       z     vdW  Elec       q    Type
REMARK                         _______ _______ _______ _____ _____    ______ ____
ROOT
ATOM      1  C   UNL     1       0.091  -2.543   5.919  0.00  0.00    +0.103 C 
ENDROOT
BRANCH   1   2
ATOM      2  C   UNL     1       0.115  -3.474   7.104  0.00  0.00    +0.214 C 
ATOM      3  O   UNL     1       0.129  -4.674   6.931  0.00  0.00    -0.276 OA
ATOM      4  N   UNL     1       0.119  -2.973   8.355  0.00  0.00    -0.312 N 
ATOM      5  H   UNL     1       0.107  -2.013   8.493  0.00  0.00    +0.149 HD
BRANCH   4   6
ATOM      6  C   UNL     1       0.142  -3.878   9.506  0.00  0.00    +0.081 C 
ATOM      7  C   UNL     1       1.087  -3.531  10.659  0.00  0.00    +0.033 C 
ATOM      8  C   UNL     1      -0.425  -3.355  10.828  0.00  0.00    +0.041 C 
BRANCH   8   9
ATOM      9  C   UNL     1      -0.964  -1.948  10.845  0.00  0.00    -0.040 A 
ATOM     10  C   UNL     1      -0.135  -0.887  10.529  0.00  0.00    +0.004 A 
ATOM     11  C   UNL     1      -0.628   0.405  10.545  0.00  0.00    +0.003 A 
ATOM     12  C   UNL     1      -1.950   0.636  10.876  0.00  0.00    +0.038 A 
ATOM     13  C   UNL     1      -2.780  -0.425  11.192  0.00  0.00    +0.124 A 
ATOM     14  C   UNL     1      -2.287  -1.719  11.171  0.00  0.00    +0.042 A 
ATOM     15  F   UNL     1      -4.072  -0.200  11.517  0.00  0.00    -0.205 F 
ENDBRANCH   8   9
ENDBRANCH   4   6
ENDBRANCH   1   2
BRANCH   1  16
ATOM     16  C   UNL     1       0.090  -3.361   4.627  0.00  0.00    +0.083 C 
BRANCH  16  26
ATOM     17  C   UNL     1      -0.018   1.503   0.010  0.00  0.00    +0.045 C 
ATOM     18  C   UNL     1       0.002  -0.004   0.002  0.00  0.00    -0.026 A 
ATOM     19  C   UNL     1       0.006  -0.677  -1.159  0.00  0.00    -0.008 A 
ATOM     20  S   UNL     1       0.031  -2.384  -0.644  0.00  0.00    -0.075 S 
ATOM     21  C   UNL     1       0.036  -2.139   1.112  0.00  0.00    +0.092 A 
ATOM     22  C   UNL     1       0.024  -0.745   1.249  0.00  0.00    +0.075 A 
ATOM     23  C   UNL     1       0.030  -0.253   2.645  0.00  0.00    +0.282 A 
ATOM     24  O   UNL     1       0.016   0.945   2.879  0.00  0.00    -0.265 OA
ATOM     25  N   UNL     1       0.051  -1.143   3.648  0.00  0.00    -0.195 NA
ATOM     26  C   UNL     1       0.067  -2.430   3.442  0.00  0.00    +0.112 A 
ATOM     27  N   UNL     1       0.052  -2.952   2.199  0.00  0.00    -0.337 N 
ATOM     28  H   UNL     1       0.064  -3.914   2.080  0.00  0.00    +0.168 HD
ATOM     29  C   UNL     1      -0.008  -0.124  -2.561  0.00  0.00    +0.052 C 
ENDBRANCH  16  26
ENDBRANCH   1  16
TORSDOF 5
