REMARK  Name = ZINC14008730
REMARK  8 active torsions:
REMARK  status: ('A' for Active; 'I' for Inactive)
REMARK    1  A    between atoms: C_1  and  O_2
REMARK    2  A    between atoms: O_2  and  C_3
REMARK    3  A    between atoms: C_6  and  N_9
REMARK    4  A    between atoms: C_15  and  C_16
REMARK    5  A    between atoms: C_19  and  O_23
REMARK    6  A    between atoms: O_23  and  C_24
REMARK    7  A    between atoms: C_24  and  C_25
REMARK    8  A    between atoms: C_30  and  C_31
REMARK                            x       y       z     vdW  Elec       q    Type
REMARK                         _______ _______ _______ _____ _____    ______ ____
ROOT
ATOM      1  C   UNL     1       6.352  -7.412  -3.252  0.00  0.00    -0.021 A 
ATOM      2  C   UNL     1       6.468  -7.360  -4.646  0.00  0.00    +0.031 A 
ATOM      3  C   UNL     1       7.214  -8.310  -5.310  0.00  0.00    +0.085 A 
ATOM      4  C   UNL     1       7.850  -9.321  -4.597  0.00  0.00    +0.157 A 
ATOM      5  C   UNL     1       7.737  -9.378  -3.212  0.00  0.00    +0.085 A 
ATOM      6  C   UNL     1       6.999  -8.429  -2.538  0.00  0.00    +0.031 A 
ATOM      7 CL   UNL     1       8.533 -10.643  -2.329  0.00  0.00    -0.080 Cl
ATOM      8 CL   UNL     1       7.359  -8.247  -7.038  0.00  0.00    -0.080 Cl
ENDROOT
BRANCH   1  15
ATOM      9  N   UNL     1       0.961  -4.095  -3.917  0.00  0.00    -0.226 NA
ATOM     10  C   UNL     1       2.054  -4.806  -3.764  0.00  0.00    +0.166 C 
ATOM     11  N   UNL     1       2.501  -5.866  -4.525  0.00  0.00    -0.260 N 
ATOM     12  C   UNL     1       3.636  -6.476  -4.229  0.00  0.00    +0.256 C 
ATOM     13  O   UNL     1       4.045  -7.412  -4.890  0.00  0.00    -0.269 OA
ATOM     14  C   UNL     1       4.383  -5.971  -3.062  0.00  0.00    +0.078 C 
ATOM     15  C   UNL     1       5.560  -6.402  -2.540  0.00  0.00    +0.028 C 
ATOM     16  S   UNL     1       3.327  -4.632  -2.525  0.00  0.00    -0.049 S 
ATOM     17  H   UNL     1       1.977  -6.166  -5.285  0.00  0.00    +0.157 HD
BRANCH   9  21
ATOM     18  C   UNL     1       0.131  -0.986  -1.311  0.00  0.00    +0.120 A 
ATOM     19  C   UNL     1      -0.029  -0.804  -2.677  0.00  0.00    +0.048 A 
ATOM     20  C   UNL     1       0.246  -1.837  -3.549  0.00  0.00    +0.031 A 
ATOM     21  C   UNL     1       0.686  -3.066  -3.055  0.00  0.00    +0.067 A 
ATOM     22  C   UNL     1       0.846  -3.244  -1.679  0.00  0.00    +0.031 A 
ATOM     23  C   UNL     1       0.574  -2.204  -0.815  0.00  0.00    +0.048 A 
BRANCH  18  25
ATOM     24  C   UNL     1      -0.592   1.262  -1.031  0.00  0.00    +0.277 C 
ATOM     25  O   UNL     1      -0.141   0.035  -0.455  0.00  0.00    -0.495 OA
ENDBRANCH  18  25
ENDBRANCH   9  21
ENDBRANCH   1  15
BRANCH   4  26
ATOM     26  O   UNL     1       8.583 -10.255  -5.255  0.00  0.00    -0.484 OA
BRANCH  26  27
ATOM     27  C   UNL     1       9.969  -9.970  -5.456  0.00  0.00    +0.266 C 
BRANCH  27  28
ATOM     28  C   UNL     1      10.615 -11.111  -6.197  0.00  0.00    +0.007 A 
ATOM     29  C   UNL     1       9.863 -12.205  -6.573  0.00  0.00    +0.008 A 
ATOM     30  C   UNL     1      10.455 -13.254  -7.254  0.00  0.00    +0.000 A 
ATOM     31  C   UNL     1      11.803 -13.214  -7.563  0.00  0.00    +0.001 A 
ATOM     32  C   UNL     1      12.566 -12.126  -7.193  0.00  0.00    +0.019 A 
ATOM     33  C   UNL     1      11.974 -11.061  -6.511  0.00  0.00    +0.058 A 
BRANCH  33  34
ATOM     34  C   UNL     1      12.759  -9.926  -6.130  0.00  0.00    +0.100 C 
ATOM     35  N   UNL     1      13.382  -9.026  -5.827  0.00  0.00    -0.191 NA
ENDBRANCH  33  34
ENDBRANCH  27  28
ENDBRANCH  26  27
ENDBRANCH   4  26
TORSDOF 7
