REMARK  Name = ZINC08605191
REMARK  13 active torsions:
REMARK  status: ('A' for Active; 'I' for Inactive)
REMARK    1  A    between atoms: C_1  and  C_2
REMARK    2  A    between atoms: C_2  and  C_3
REMARK    3  A    between atoms: C_3  and  C_4
REMARK    4  A    between atoms: C_4  and  N_5
REMARK    5  A    between atoms: N_5  and  C_6
REMARK    6  A    between atoms: N_5  and  C_8
REMARK    7  A    between atoms: C_6  and  C_7
REMARK    8  A    between atoms: C_8  and  C_9
REMARK    9  A    between atoms: C_9  and  C_10
REMARK   10  A    between atoms: C_10  and  N_11
REMARK   11  A    between atoms: N_14  and  C_15
REMARK   12  A    between atoms: C_16  and  C_32
REMARK   13  A    between atoms: C_27  and  C_31
REMARK                            x       y       z     vdW  Elec       q    Type
REMARK                         _______ _______ _______ _____ _____    ______ ____
ROOT
ATOM      1  N   UNL     1      -5.702  -6.665   0.110  0.00  0.00    -0.299 N 
ATOM      2  C   UNL     1      -5.958  -7.983   0.227  0.00  0.00    +0.304 C 
ATOM      3  O   UNL     1      -5.046  -8.764   0.424  0.00  0.00    -0.252 OA
ATOM      4  N   UNL     1      -7.223  -8.437   0.126  0.00  0.00    -0.264 N 
ATOM      5  H   UNL     1      -6.430  -6.043  -0.048  0.00  0.00    +0.150 HD
ATOM      6  H   UNL     1      -7.950  -7.814  -0.032  0.00  0.00    +0.157 HD
ENDROOT
BRANCH   4   7
ATOM      7  C   UNL     1      -7.487  -9.802   0.247  0.00  0.00    +0.079 A 
ATOM      8  C   UNL     1      -8.677 -10.435   0.169  0.00  0.00    -0.007 A 
ATOM      9  C   UNL     1      -8.720 -11.877   0.326  0.00  0.00    +0.077 A 
ATOM     10  C   UNL     1      -7.474 -12.489   0.552  0.00  0.00    +0.117 A 
ATOM     11  S   UNL     1      -6.333 -11.130   0.534  0.00  0.00    -0.053 S 
ATOM     12  N   UNL     1      -7.354 -13.804   0.714  0.00  0.00    -0.226 NA
ATOM     13  C   UNL     1      -8.396 -14.584   0.662  0.00  0.00    +0.114 A 
ATOM     14  N   UNL     1      -9.647 -14.079   0.447  0.00  0.00    -0.296 N 
ATOM     15  C   UNL     1      -9.847 -12.761   0.285  0.00  0.00    +0.263 A 
ATOM     16  O   UNL     1     -10.971 -12.323   0.105  0.00  0.00    -0.267 OA
ATOM     17  C   UNL     1     -10.774 -15.019   0.395  0.00  0.00    +0.127 C 
ATOM     18  C   UNL     1     -10.725 -15.789  -0.923  0.00  0.00    +0.025 C 
ATOM     19  C   UNL     1      -9.895 -17.054  -0.789  0.00  0.00    -0.012 C 
ATOM     20  C   UNL     1      -8.431 -16.757  -0.519  0.00  0.00    +0.011 C 
ATOM     21  C   UNL     1      -8.250 -16.077   0.837  0.00  0.00    +0.075 C 
ATOM     22  C   UNL     1     -10.005 -17.859  -2.086  0.00  0.00    +0.007 C 
ATOM     23  C   UNL     1      -9.943  -9.655  -0.077  0.00  0.00    +0.047 C 
ENDBRANCH   4   7
BRANCH   1  24
ATOM     24  C   UNL     1      -4.327  -6.173   0.220  0.00  0.00    +0.104 C 
BRANCH  24  25
ATOM     25  C   UNL     1      -4.315  -4.652   0.051  0.00  0.00    +0.000 C 
BRANCH  25  26
ATOM     26  C   UNL     1      -2.879  -4.138   0.166  0.00  0.00    -0.077 C 
BRANCH  26  27
ATOM     27  N   UNL     1      -2.853  -2.694  -0.105  0.00  0.00    +0.380 N 
ATOM     28  H   UNL     1      -3.278  -2.512  -1.002  0.00  0.00    -0.082 HD
BRANCH  27  29
ATOM     29  C   UNL     1      -1.461  -2.223  -0.119  0.00  0.00    -0.082 C 
ATOM     30  C   UNL     1      -0.726  -2.840  -1.311  0.00  0.00    -0.017 C 
ENDBRANCH  27  29
BRANCH  27  31
ATOM     31  C   UNL     1      -3.599  -1.985   0.943  0.00  0.00    -0.079 C 
BRANCH  31  32
ATOM     32  C   UNL     1      -3.678  -0.497   0.596  0.00  0.00    -0.019 C 
BRANCH  32  34
ATOM     33  C   UNL     1      -4.534   1.728   1.341  0.00  0.00    +0.004 C 
ATOM     34  C   UNL     1      -4.455   0.240   1.688  0.00  0.00    -0.005 C 
ENDBRANCH  32  34
ENDBRANCH  31  32
ENDBRANCH  27  31
ENDBRANCH  26  27
ENDBRANCH  25  26
ENDBRANCH  24  25
ENDBRANCH   1  24
TORSDOF 9
