REMARK  Name = ZINC39530922
REMARK  6 active torsions:
REMARK  status: ('A' for Active; 'I' for Inactive)
REMARK    1  A    between atoms: C_1  and  C_2
REMARK    2  A    between atoms: C_6  and  C_7
REMARK    3  A    between atoms: C_7  and  C_9
REMARK    4  A    between atoms: N_14  and  C_16
REMARK    5  A    between atoms: C_16  and  C_17
REMARK    6  A    between atoms: C_21  and  C_23
REMARK                            x       y       z     vdW  Elec       q    Type
REMARK                         _______ _______ _______ _____ _____    ______ ____
ROOT
ATOM      1  C   UNL     1       0.054  -1.304   3.643  0.00  0.00    +0.075 C 
ATOM      2  C   UNL     1      -1.375  -1.756   3.957  0.00  0.00    +0.014 C 
ATOM      3  C   UNL     1      -1.347  -2.725   5.142  0.00  0.00    +0.016 C 
ATOM      4  C   UNL     1      -0.697  -2.035   6.344  0.00  0.00    +0.085 C 
ATOM      5  N   UNL     1       0.668  -1.622   5.993  0.00  0.00    -0.296 NA
ATOM      6  C   UNL     1       0.664  -0.656   4.888  0.00  0.00    +0.096 C 
ENDROOT
BRANCH   1   7
ATOM      7  C   UNL     1       0.030  -0.304   2.516  0.00  0.00    +0.174 C 
ATOM      8  O   UNL     1       0.015   0.885   2.759  0.00  0.00    -0.291 OA
BRANCH   7  14
ATOM      9  C   UNL     1      -0.018   1.503   0.010  0.00  0.00    +0.045 C 
ATOM     10  C   UNL     1       0.002  -0.004   0.002  0.00  0.00    -0.033 A 
ATOM     11  C   UNL     1       0.007  -0.728  -1.163  0.00  0.00    +0.011 A 
ATOM     12  C   UNL     1       0.026  -2.084  -1.099  0.00  0.00    +0.046 A 
ATOM     13  S   UNL     1       0.038  -2.419   0.547  0.00  0.00    -0.093 S 
ATOM     14  C   UNL     1       0.023  -0.751   1.176  0.00  0.00    +0.058 A 
ENDBRANCH   7  14
ENDBRANCH   1   7
BRANCH   5  15
ATOM     15  C   UNL     1       1.371  -1.081   7.164  0.00  0.00    +0.139 C 
BRANCH  15  16
ATOM     16  C   UNL     1       1.577  -2.177   8.178  0.00  0.00    +0.047 A 
ATOM     17  C   UNL     1       0.773  -2.449   9.223  0.00  0.00    +0.106 A 
ATOM     18  N   UNL     1       1.325  -3.515   9.881  0.00  0.00    -0.350 N 
ATOM     19  H   UNL     1       0.975  -3.944  10.677  0.00  0.00    +0.166 HD
ATOM     20  C   UNL     1       2.449  -3.857   9.214  0.00  0.00    +0.081 A 
ATOM     21  N   UNL     1       2.590  -3.056   8.194  0.00  0.00    -0.346 N 
ATOM     22  C   UNL     1       3.381  -4.982   9.583  0.00  0.00    +0.084 C 
ATOM     23  H   UNL     1       3.315  -3.089   7.549  0.00  0.00    +0.167 HD
ENDBRANCH  15  16
ENDBRANCH   5  15
TORSDOF 4
