REMARK  Name = ZINC14666874
REMARK  12 active torsions:
REMARK  status: ('A' for Active; 'I' for Inactive)
REMARK    1  A    between atoms: C_1  and  C_2
REMARK    2  A    between atoms: C_2  and  C_4
REMARK    3  A    between atoms: C_2  and  O_22
REMARK    4  A    between atoms: N_6  and  N_7
REMARK    5  A    between atoms: C_8  and  C_10
REMARK    6  A    between atoms: C_10  and  O_11
REMARK    7  A    between atoms: O_11  and  C_12
REMARK    8  A    between atoms: C_17  and  C_18
REMARK    9  A    between atoms: C_18  and  C_19
REMARK   10  A    between atoms: C_18  and  C_20
REMARK   11  A    between atoms: C_18  and  C_21
REMARK   12  A    between atoms: O_22  and  C_23
REMARK                            x       y       z     vdW  Elec       q    Type
REMARK                         _______ _______ _______ _____ _____    ______ ____
ROOT
ATOM      1  C   UNL     1       0.862  -0.292   1.210  0.00  0.00    +0.270 C 
ATOM      2  O   UNL     1       1.978  -0.743   1.067  0.00  0.00    -0.270 OA
ATOM      3  N   UNL     1       0.390  -0.041   2.447  0.00  0.00    -0.231 N 
ATOM      4  H   UNL     1      -0.503   0.320   2.562  0.00  0.00    +0.173 HD
ENDROOT
BRANCH   3   5
ATOM      5  N   UNL     1       1.189  -0.301   3.568  0.00  0.00    -0.231 N 
ATOM      6  C   UNL     1       0.718  -0.051   4.805  0.00  0.00    +0.267 C 
ATOM      7  O   UNL     1      -0.399   0.400   4.949  0.00  0.00    -0.271 OA
ATOM      8  H   UNL     1       2.083  -0.662   3.453  0.00  0.00    +0.173 HD
BRANCH   6   9
ATOM      9  C   UNL     1       1.578  -0.331   6.011  0.00  0.00    +0.326 C 
BRANCH   9  10
ATOM     10  O   UNL     1       0.861   0.015   7.198  0.00  0.00    -0.482 OA
BRANCH  10  11
ATOM     11  C   UNL     1       1.500  -0.178   8.382  0.00  0.00    +0.125 A 
ATOM     12  C   UNL     1       2.791  -0.684   8.401  0.00  0.00    +0.046 A 
ATOM     13  C   UNL     1       3.438  -0.879   9.606  0.00  0.00    +0.004 A 
ATOM     14  C   UNL     1       2.799  -0.570  10.793  0.00  0.00    +0.001 A 
ATOM     15  C   UNL     1       1.512  -0.066  10.777  0.00  0.00    +0.008 A 
ATOM     16  C   UNL     1       0.863   0.136   9.574  0.00  0.00    -0.000 A 
BRANCH  16  17
ATOM     17  C   UNL     1      -0.538   0.691   9.557  0.00  0.00    -0.009 C 
ATOM     18  C   UNL     1      -1.002   0.949  10.992  0.00  0.00    +0.015 C 
ATOM     19  C   UNL     1      -0.557   2.004   8.771  0.00  0.00    +0.015 C 
ATOM     20  C   UNL     1      -1.478  -0.316   8.890  0.00  0.00    +0.015 C 
ENDBRANCH  16  17
ENDBRANCH  10  11
ENDBRANCH   9  10
ENDBRANCH   6   9
ENDBRANCH   3   5
BRANCH   1  22
ATOM     21  C   UNL     1      -0.255   1.493  -0.101  0.00  0.00    +0.062 C 
ATOM     22  C   UNL     1       0.002  -0.012   0.005  0.00  0.00    +0.257 C 
BRANCH  22  23
ATOM     23  O   UNL     1       0.671  -0.465  -1.174  0.00  0.00    -0.480 OA
BRANCH  23  24
ATOM     24  C   UNL     1      -0.106  -0.775  -2.244  0.00  0.00    +0.122 A 
ATOM     25  C   UNL     1      -1.482  -0.529  -2.192  0.00  0.00    +0.046 A 
ATOM     26  C   UNL     1      -2.286  -0.828  -3.248  0.00  0.00    +0.012 A 
ATOM     27  C   UNL     1      -1.730  -1.392  -4.409  0.00  0.00    -0.018 A 
ATOM     28  C   UNL     1      -2.532  -1.713  -5.518  0.00  0.00    +0.008 A 
ATOM     29  C   UNL     1      -1.961  -2.258  -6.627  0.00  0.00    +0.001 A 
ATOM     30  C   UNL     1      -0.590  -2.503  -6.682  0.00  0.00    +0.001 A 
ATOM     31  C   UNL     1       0.217  -2.205  -5.627  0.00  0.00    +0.008 A 
ATOM     32  C   UNL     1      -0.336  -1.642  -4.465  0.00  0.00    -0.014 A 
ATOM     33  C   UNL     1       0.467  -1.317  -3.359  0.00  0.00    +0.054 A 
ENDBRANCH  23  24
ENDBRANCH  22  23
ENDBRANCH   1  22
TORSDOF 8
