REMARK  Name = ZINC15912957
REMARK  10 active torsions:
REMARK  status: ('A' for Active; 'I' for Inactive)
REMARK    1  A    between atoms: C_1  and  C_2
REMARK    2  A    between atoms: C_2  and  C_26
REMARK    3  A    between atoms: N_3  and  N_4
REMARK    4  A    between atoms: N_4  and  C_5
REMARK    5  A    between atoms: C_8  and  N_23
REMARK    6  A    between atoms: C_10  and  S_11
REMARK    7  A    between atoms: S_11  and  N_14
REMARK    8  A    between atoms: N_14  and  C_15
REMARK    9  A    between atoms: C_20  and  O_21
REMARK   10  A    between atoms: O_21  and  C_22
REMARK                            x       y       z     vdW  Elec       q    Type
REMARK                         _______ _______ _______ _____ _____    ______ ____
ROOT
ATOM      1  C   UNL     1       1.720  -1.683  -1.395  0.00  0.00    +0.075 A 
ATOM      2  C   UNL     1       3.063  -1.325  -1.375  0.00  0.00    +0.029 A 
ATOM      3  C   UNL     1       3.426  -0.003  -1.534  0.00  0.00    +0.035 A 
ATOM      4  C   UNL     1       2.455   0.966  -1.713  0.00  0.00    +0.128 A 
ATOM      5  C   UNL     1       1.118   0.614  -1.734  0.00  0.00    +0.063 A 
ATOM      6  C   UNL     1       0.747  -0.706  -1.576  0.00  0.00    +0.133 A 
ENDROOT
BRANCH   6   7
ATOM      7  S   UNL     1      -0.957  -1.153  -1.603  0.00  0.00    +0.074 S 
ATOM      8  O   UNL     1      -1.190  -1.939  -0.442  0.00  0.00    -0.150 OA
ATOM      9  O   UNL     1      -1.685   0.036  -1.876  0.00  0.00    -0.150 OA
BRANCH   7  10
ATOM     10  N   UNL     1      -1.180  -2.153  -2.904  0.00  0.00    -0.213 N 
ATOM     11  H   UNL     1      -1.396  -3.089  -2.765  0.00  0.00    +0.174 HD
BRANCH  10  12
ATOM     12  C   UNL     1      -1.058  -1.649  -4.204  0.00  0.00    +0.090 A 
ATOM     13  C   UNL     1      -0.191  -0.598  -4.463  0.00  0.00    +0.028 A 
ATOM     14  C   UNL     1      -0.068  -0.104  -5.748  0.00  0.00    +0.002 A 
ATOM     15  C   UNL     1      -0.816  -0.649  -6.776  0.00  0.00    +0.004 A 
ATOM     16  C   UNL     1      -1.686  -1.693  -6.524  0.00  0.00    +0.047 A 
ATOM     17  C   UNL     1      -1.811  -2.197  -5.239  0.00  0.00    +0.142 A 
BRANCH  17  18
ATOM     18  O   UNL     1      -2.668  -3.223  -4.990  0.00  0.00    -0.493 OA
ATOM     19  C   UNL     1      -3.408  -3.735  -6.101  0.00  0.00    +0.277 C 
ENDBRANCH  17  18
ENDBRANCH  10  12
ENDBRANCH   7  10
ENDBRANCH   6   7
BRANCH   4  20
ATOM     20  N   UNL     1       2.849   2.383  -1.883  0.00  0.00    +0.056 N 
ATOM     21  O   UNL     1       1.995   3.237  -2.042  0.00  0.00    -0.126 OA
ATOM     22  O   UNL     1       4.026   2.694  -1.865  0.00  0.00    -0.126 OA
ENDBRANCH   4  20
BRANCH   1  23
ATOM     23  N   UNL     1       1.349  -3.018  -1.234  0.00  0.00    -0.236 N 
ATOM     24  H   UNL     1       0.410  -3.261  -1.212  0.00  0.00    +0.174 HD
BRANCH  23  27
ATOM     25  C   UNL     1       0.532  -5.636  -0.956  0.00  0.00    +0.068 C 
ATOM     26  C   UNL     1       1.989  -5.257  -1.030  0.00  0.00    +0.069 C 
ATOM     27  N   UNL     1       2.332  -4.007  -1.104  0.00  0.00    -0.187 NA
BRANCH  26  28
ATOM     28  C   UNL     1       3.025  -6.306  -1.019  0.00  0.00    +0.068 A 
ATOM     29  C   UNL     1       3.468  -6.869  -2.220  0.00  0.00    +0.135 A 
ATOM     30  C   UNL     1       4.443  -7.848  -2.201  0.00  0.00    +0.039 A 
ATOM     31  C   UNL     1       4.973  -8.279  -0.998  0.00  0.00    +0.006 A 
ATOM     32  C   UNL     1       4.536  -7.732   0.195  0.00  0.00    +0.039 A 
ATOM     33  C   UNL     1       3.566  -6.748   0.193  0.00  0.00    +0.135 A 
ATOM     34  F   UNL     1       3.141  -6.214   1.359  0.00  0.00    -0.205 F 
ATOM     35  F   UNL     1       2.949  -6.454  -3.396  0.00  0.00    -0.205 F 
ENDBRANCH  26  28
ENDBRANCH  23  27
ENDBRANCH   1  23
TORSDOF 8
