REMARK  Name = ZINC65004891
REMARK  6 active torsions:
REMARK  status: ('A' for Active; 'I' for Inactive)
REMARK    1  A    between atoms: C_1  and  C_2
REMARK    2  A    between atoms: C_5  and  C_24
REMARK    3  A    between atoms: C_6  and  O_9
REMARK    4  A    between atoms: C_7  and  C_8
REMARK    5  A    between atoms: O_9  and  C_10
REMARK    6  A    between atoms: C_10  and  C_11
REMARK                            x       y       z     vdW  Elec       q    Type
REMARK                         _______ _______ _______ _____ _____    ______ ____
ROOT
ATOM      1  C   UNL     1       1.149  -3.845   4.202  0.00  0.00    +0.256 C 
ATOM      2  O   UNL     1       0.033  -4.095   4.607  0.00  0.00    -0.272 OA
ATOM      3  N   UNL     1       2.226  -4.246   4.905  0.00  0.00    -0.262 N 
ATOM      4  C   UNL     1       2.059  -4.944   6.091  0.00  0.00    +0.166 A 
ATOM      5  N   UNL     1       0.945  -5.309   6.681  0.00  0.00    -0.222 NA
ATOM      6  C   UNL     1       0.932  -5.992   7.847  0.00  0.00    +0.115 A 
ATOM      7  C   UNL     1      -0.191  -6.442   8.583  0.00  0.00    +0.150 A 
ATOM      8  C   UNL     1      -0.027  -7.128   9.761  0.00  0.00    +0.040 A 
ATOM      9  C   UNL     1       1.234  -7.404  10.269  0.00  0.00    +0.004 A 
ATOM     10  C   UNL     1       2.352  -6.979   9.575  0.00  0.00    +0.017 A 
ATOM     11  C   UNL     1       2.199  -6.292   8.396  0.00  0.00    +0.044 A 
ATOM     12  S   UNL     1       3.306  -5.582   7.201  0.00  0.00    -0.052 S 
ATOM     13  F   UNL     1      -1.436  -6.193   8.122  0.00  0.00    -0.203 F 
ATOM     14  H   UNL     1       3.118  -4.047   4.581  0.00  0.00    +0.157 HD
ENDROOT
BRANCH   1  15
ATOM     15  C   UNL     1       1.330  -3.087   2.912  0.00  0.00    +0.325 C 
BRANCH  15  16
ATOM     16  O   UNL     1       0.050  -2.776   2.358  0.00  0.00    -0.482 OA
BRANCH  16  22
ATOM     17  C   UNL     1      -0.018   1.503   0.010  0.00  0.00    +0.044 C 
ATOM     18  C   UNL     1       0.002  -0.004   0.002  0.00  0.00    -0.044 A 
ATOM     19  C   UNL     1       0.006  -0.688  -1.200  0.00  0.00    +0.004 A 
ATOM     20  C   UNL     1       0.024  -2.071  -1.211  0.00  0.00    +0.007 A 
ATOM     21  C   UNL     1       0.039  -2.772  -0.020  0.00  0.00    -0.008 A 
ATOM     22  C   UNL     1       0.035  -2.088   1.186  0.00  0.00    +0.127 A 
ATOM     23  C   UNL     1       0.023  -0.700   1.195  0.00  0.00    -0.006 A 
ATOM     24  C   UNL     1       0.026   0.046   2.504  0.00  0.00    +0.048 C 
ATOM     25  C   UNL     1       0.059  -4.279  -0.033  0.00  0.00    +0.047 C 
ENDBRANCH  16  22
ENDBRANCH  15  16
ENDBRANCH   1  15
TORSDOF 3
