REMARK  Name = ZINC22458782
REMARK  6 active torsions:
REMARK  status: ('A' for Active; 'I' for Inactive)
REMARK    1  A    between atoms: C_1  and  C_2
REMARK    2  A    between atoms: C_5  and  C_8
REMARK    3  A    between atoms: C_8  and  C_10
REMARK    4  A    between atoms: C_8  and  N_20
REMARK    5  A    between atoms: C_16  and  C_18
REMARK    6  A    between atoms: N_23  and  C_26
REMARK                            x       y       z     vdW  Elec       q    Type
REMARK                         _______ _______ _______ _____ _____    ______ ____
ROOT
ATOM      1  C   UNL     1      -1.361  -0.549  -0.064  0.00  0.00    +0.006 C 
ENDROOT
BRANCH   1   2
ATOM      2  C   UNL     1      -2.057  -0.324   1.253  0.00  0.00    +0.050 A 
ATOM      3  C   UNL     1      -3.324   0.036   1.488  0.00  0.00    +0.282 A 
ATOM      4  N   UNL     1      -3.781   0.188   2.775  0.00  0.00    -0.170 N 
ATOM      5  C   UNL     1      -2.893  -0.031   3.783  0.00  0.00    +0.199 A 
ATOM      6  S   UNL     1      -1.406  -0.462   2.911  0.00  0.00    -0.050 S 
ATOM      7  N   UNL     1      -3.479   0.159   4.933  0.00  0.00    -0.205 NA
ATOM      8  C   UNL     1      -4.749   0.503   4.728  0.00  0.00    +0.150 A 
ATOM      9  N   UNL     1      -4.984   0.536   3.444  0.00  0.00    -0.147 NA
ATOM     10  C   UNL     1      -5.755   0.807   5.808  0.00  0.00    +0.090 C 
ATOM     11  O   UNL     1      -4.169   0.250   0.444  0.00  0.00    -0.265 OA
ENDBRANCH   1   2
BRANCH   1  12
ATOM     12  N   UNL     1      -0.038   0.089  -0.034  0.00  0.00    +0.389 N 
ATOM     13  C   UNL     1       0.675  -0.115  -1.303  0.00  0.00    -0.062 C 
ATOM     14  C   UNL     1       2.075   0.494  -1.202  0.00  0.00    +0.065 C 
ATOM     15  N   UNL     1       1.963   1.925  -0.889  0.00  0.00    -0.309 NA
ATOM     16  C   UNL     1       1.250   2.129   0.380  0.00  0.00    +0.065 C 
ATOM     17  C   UNL     1      -0.150   1.520   0.279  0.00  0.00    -0.062 C 
ATOM     18  C   UNL     1       3.286   2.563  -0.859  0.00  0.00    +0.104 C 
ATOM     19  H   UNL     1       0.548  -0.389   0.765  0.00  0.00    -0.080 HD
ENDBRANCH   1  12
BRANCH   1  24
ATOM     20  C   UNL     1      -0.744  -6.222  -0.975  0.00  0.00    +0.044 C 
ATOM     21  C   UNL     1      -0.904  -4.742  -0.737  0.00  0.00    -0.050 A 
ATOM     22  C   UNL     1      -1.854  -4.028  -1.444  0.00  0.00    +0.003 A 
ATOM     23  C   UNL     1      -2.002  -2.671  -1.226  0.00  0.00    +0.002 A 
ATOM     24  C   UNL     1      -1.200  -2.028  -0.302  0.00  0.00    -0.056 A 
ATOM     25  C   UNL     1      -0.247  -2.741   0.401  0.00  0.00    +0.002 A 
ATOM     26  C   UNL     1      -0.102  -4.099   0.187  0.00  0.00    +0.003 A 
ENDBRANCH   1  24
TORSDOF 3
