REMARK  Name = ZINC45652924
REMARK  7 active torsions:
REMARK  status: ('A' for Active; 'I' for Inactive)
REMARK    1  A    between atoms: C_1  and  C_2
REMARK    2  A    between atoms: C_12  and  C_14
REMARK    3  A    between atoms: C_14  and  C_16
REMARK    4  A    between atoms: C_14  and  N_19
REMARK    5  A    between atoms: C_16  and  C_17
REMARK    6  A    between atoms: C_16  and  C_18
REMARK    7  A    between atoms: C_20  and  C_22
REMARK                            x       y       z     vdW  Elec       q    Type
REMARK                         _______ _______ _______ _____ _____    ______ ____
ROOT
ATOM      1  C   UNL     1      -0.973   1.126  -1.045  0.00  0.00    +0.008 C 
ATOM      2  C   UNL     1      -0.907  -0.394  -0.885  0.00  0.00    -0.009 C 
ATOM      3  C   UNL     1      -2.251  -0.915  -0.369  0.00  0.00    +0.010 C 
ATOM      4  C   UNL     1      -2.285  -2.443  -0.437  0.00  0.00    +0.056 C 
ATOM      5  C   UNL     1      -1.053  -2.990   0.271  0.00  0.00    +0.054 A 
ATOM      6  C   UNL     1       0.023  -2.194   0.498  0.00  0.00    +0.015 A 
ATOM      7  S   UNL     1       1.144  -3.287   1.326  0.00  0.00    -0.057 S 
ATOM      8  C   UNL     1       0.163  -4.657   1.315  0.00  0.00    +0.165 A 
ATOM      9  N   UNL     1      -0.926  -4.239   0.709  0.00  0.00    -0.229 NA
ATOM     10  N   UNL     1       0.439  -5.921   1.823  0.00  0.00    -0.263 N 
ATOM     11  C   UNL     1      -0.479  -6.903   1.721  0.00  0.00    +0.239 C 
ATOM     12  O   UNL     1      -1.575  -6.663   1.262  0.00  0.00    -0.273 OA
ATOM     13  C   UNL     1       0.192  -0.759   0.127  0.00  0.00    +0.047 C 
ATOM     14  H   UNL     1       1.291  -6.096   2.251  0.00  0.00    +0.157 HD
ENDROOT
BRANCH  11  15
ATOM     15  C   UNL     1      -0.142  -8.299   2.178  0.00  0.00    +0.162 C 
BRANCH  15  16
ATOM     16  N   UNL     1      -0.945  -9.266   1.425  0.00  0.00    -0.299 N 
ATOM     17  C   UNL     1      -0.505 -10.530   1.268  0.00  0.00    +0.251 C 
ATOM     18  O   UNL     1       0.559 -10.868   1.752  0.00  0.00    -0.270 OA
ATOM     19  H   UNL     1      -1.794  -8.996   1.040  0.00  0.00    +0.150 HD
BRANCH  17  20
ATOM     20  C   UNL     1      -1.309 -11.498   0.515  0.00  0.00    +0.074 A 
ATOM     21  C   UNL     1      -1.044 -12.832   0.246  0.00  0.00    +0.021 A 
ATOM     22  C   UNL     1      -1.996 -13.492  -0.494  0.00  0.00    +0.008 A 
ATOM     23  C   UNL     1      -3.100 -12.816  -0.900  0.00  0.00    +0.046 A 
ATOM     24  S   UNL     1      -2.885 -11.268  -0.286  0.00  0.00    -0.092 S 
ENDBRANCH  17  20
ENDBRANCH  15  16
BRANCH  15  25
ATOM     25  C   UNL     1      -0.448  -8.435   3.671  0.00  0.00    +0.012 C 
ATOM     26  C   UNL     1       0.481  -7.515   4.467  0.00  0.00    +0.009 C 
ATOM     27  C   UNL     1      -1.903  -8.040   3.932  0.00  0.00    +0.009 C 
ENDBRANCH  15  25
ENDBRANCH  11  15
TORSDOF 4
