REMARK  Name = ZINC62162140
REMARK  2 active torsions:
REMARK  status: ('A' for Active; 'I' for Inactive)
REMARK    1  A    between atoms: C_1  and  C_2
REMARK    2  A    between atoms: C_12  and  C_14
REMARK                            x       y       z     vdW  Elec       q    Type
REMARK                         _______ _______ _______ _____ _____    ______ ____
ROOT
ATOM      1  C   UNL     1       1.111  -0.753   3.446  0.00  0.00    +0.135 A 
ATOM      2  C   UNL     1       0.644  -0.633   4.731  0.00  0.00    +0.081 A 
ATOM      3  S   UNL     1       2.024  -1.300   5.651  0.00  0.00    -0.060 S 
ATOM      4  C   UNL     1       3.074  -1.668   4.253  0.00  0.00    +0.164 A 
ATOM      5  N   UNL     1       2.322  -1.277   3.244  0.00  0.00    -0.220 NA
ATOM      6  N   UNL     1       4.344  -2.224   4.234  0.00  0.00    -0.279 N 
ATOM      7  C   UNL     1       5.009  -2.479   5.429  0.00  0.00    +0.124 A 
ATOM      8  C   UNL     1       6.322  -2.938   5.403  0.00  0.00    +0.044 A 
ATOM      9  C   UNL     1       6.971  -3.187   6.599  0.00  0.00    +0.005 A 
ATOM     10  C   UNL     1       6.283  -2.969   7.785  0.00  0.00    +0.020 A 
ATOM     11  C   UNL     1       4.981  -2.512   7.737  0.00  0.00    +0.113 A 
ATOM     12  N   UNL     1       4.388  -2.278   6.582  0.00  0.00    -0.240 NA
ATOM     13  H   UNL     1       4.768  -2.434   3.388  0.00  0.00    +0.155 HD
ENDROOT
BRANCH   1  24
ATOM     14  C   UNL     1       1.684  -2.813   1.200  0.00  0.00    +0.029 C 
ATOM     15  C   UNL     1       1.855  -1.383   0.685  0.00  0.00    +0.083 C 
ATOM     16  C   UNL     1       1.896  -1.370  -0.852  0.00  0.00    +0.059 C 
ATOM     17  C   UNL     1       0.711  -0.523  -1.257  0.00  0.00    -0.024 A 
ATOM     18  C   UNL     1       0.243  -0.158  -2.505  0.00  0.00    +0.005 A 
ATOM     19  C   UNL     1      -0.881   0.638  -2.619  0.00  0.00    +0.000 A 
ATOM     20  C   UNL     1      -1.537   1.070  -1.480  0.00  0.00    +0.002 A 
ATOM     21  C   UNL     1      -1.073   0.709  -0.233  0.00  0.00    +0.024 A 
ATOM     22  C   UNL     1       0.062  -0.096  -0.110  0.00  0.00    +0.040 A 
ATOM     23  N   UNL     1       0.691  -0.570   1.047  0.00  0.00    -0.263 N 
ATOM     24  C   UNL     1       0.287  -0.317   2.307  0.00  0.00    +0.270 C 
ATOM     25  O   UNL     1      -0.759   0.271   2.504  0.00  0.00    -0.268 OA
ENDBRANCH   1  24
TORSDOF 1
