REMARK  Name = ZINC01842791
REMARK  16 active torsions:
REMARK  status: ('A' for Active; 'I' for Inactive)
REMARK    1  A    between atoms: C_1  and  N_45
REMARK    2  A    between atoms: C_2  and  N_45
REMARK    3  A    between atoms: C_3  and  O_4
REMARK    4  A    between atoms: C_3  and  N_45
REMARK    5  A    between atoms: O_4  and  C_5
REMARK    6  A    between atoms: C_5  and  S_7
REMARK    7  A    between atoms: S_7  and  P_8
REMARK    8  A    between atoms: P_8  and  O_10
REMARK    9  A    between atoms: P_8  and  S_19
REMARK   10  A    between atoms: O_10  and  C_11
REMARK   11  A    between atoms: S_19  and  C_20
REMARK   12  A    between atoms: C_20  and  O_22
REMARK   13  A    between atoms: O_22  and  C_23
REMARK   14  A    between atoms: C_23  and  N_47
REMARK   15  A    between atoms: C_24  and  N_47
REMARK   16  A    between atoms: C_25  and  N_47
REMARK                            x       y       z     vdW  Elec       q    Type
REMARK                         _______ _______ _______ _____ _____    ______ ____
ROOT
ATOM      1  P   UNL     1       2.961   0.533  -0.694  0.00  0.00    +0.377 P 
ATOM      2  O   UNL     1       4.381   0.175  -0.477  0.00  0.00    -0.252 OA
ENDROOT
BRANCH   1   3
ATOM      3  S   UNL     1       1.923  -1.141  -1.481  0.00  0.00    +0.035 S 
BRANCH   3   4
ATOM      4  C   UNL     1       2.180  -2.300  -0.179  0.00  0.00    +0.209 C 
ATOM      5  S   UNL     1       3.079  -1.846   1.206  0.00  0.00    -0.004 S 
BRANCH   4   6
ATOM      6  O   UNL     1       1.667  -3.543  -0.273  0.00  0.00    -0.498 OA
BRANCH   6   7
ATOM      7  C   UNL     1       2.007  -4.477   0.786  0.00  0.00    +0.157 C 
BRANCH   7  10
ATOM      8  C   UNL     1       3.967  -5.412   1.857  0.00  0.00    -0.092 C 
ATOM      9  C   UNL     1       3.416  -6.037  -0.417  0.00  0.00    -0.092 C 
ATOM     10  N   UNL     1       3.394  -4.943   0.577  0.00  0.00    +0.399 N 
ATOM     11  H   UNL     1       3.959  -4.161   0.225  0.00  0.00    -0.078 HD
ENDBRANCH   7  10
ENDBRANCH   6   7
ENDBRANCH   4   6
ENDBRANCH   3   4
ENDBRANCH   1   3
BRANCH   1  12
ATOM     12  O   UNL     1       2.296   0.966   0.707  0.00  0.00    -0.426 OA
BRANCH  12  13
ATOM     13  C   UNL     1       0.986   1.314   0.613  0.00  0.00    +0.148 A 
ATOM     14  C   UNL     1       0.016   0.335   0.455  0.00  0.00    +0.049 A 
ATOM     15  C   UNL     1      -1.315   0.691   0.353  0.00  0.00    +0.023 A 
ATOM     16  C   UNL     1      -1.683   2.023   0.421  0.00  0.00    +0.043 A 
ATOM     17  C   UNL     1      -0.718   3.002   0.580  0.00  0.00    +0.043 A 
ATOM     18  C   UNL     1       0.616   2.650   0.676  0.00  0.00    +0.084 A 
ATOM     19 CL   UNL     1       1.826   3.879   0.874  0.00  0.00    -0.080 Cl
ATOM     20 CL   UNL     1      -3.356   2.467   0.300  0.00  0.00    -0.083 Cl
ENDBRANCH  12  13
ENDBRANCH   1  12
BRANCH   1  21
ATOM     21  S   UNL     1       2.839   2.147  -2.063  0.00  0.00    +0.035 S 
BRANCH  21  22
ATOM     22  C   UNL     1       3.757   3.365  -1.181  0.00  0.00    +0.209 C 
ATOM     23  S   UNL     1       4.426   2.991   0.350  0.00  0.00    -0.004 S 
BRANCH  22  24
ATOM     24  O   UNL     1       3.933   4.592  -1.712  0.00  0.00    -0.498 OA
BRANCH  24  25
ATOM     25  C   UNL     1       4.798   5.506  -0.988  0.00  0.00    +0.157 C 
BRANCH  25  28
ATOM     26  C   UNL     1       4.986   6.509   1.208  0.00  0.00    -0.092 C 
ATOM     27  C   UNL     1       3.203   7.186  -0.284  0.00  0.00    -0.092 C 
ATOM     28  N   UNL     1       4.047   6.057   0.160  0.00  0.00    +0.399 N 
ATOM     29  H   UNL     1       3.444   5.322   0.548  0.00  0.00    -0.078 HD
ENDBRANCH  25  28
ENDBRANCH  24  25
ENDBRANCH  22  24
ENDBRANCH  21  22
ENDBRANCH   1  21
TORSDOF 12
