REMARK  Name = ZINC04077350
REMARK  11 active torsions:
REMARK  status: ('A' for Active; 'I' for Inactive)
REMARK    1  A    between atoms: C_1  and  C_2
REMARK    2  A    between atoms: C_6  and  C_32
REMARK    3  A    between atoms: C_7  and  N_8
REMARK    4  A    between atoms: N_8  and  C_9
REMARK    5  A    between atoms: C_9  and  C_10
REMARK    6  A    between atoms: N_12  and  N_13
REMARK    7  A    between atoms: C_14  and  C_15
REMARK    8  A    between atoms: C_20  and  O_21
REMARK    9  A    between atoms: O_21  and  C_22
REMARK   10  A    between atoms: C_22  and  C_24
REMARK   11  A    between atoms: C_25  and  C_26
REMARK                            x       y       z     vdW  Elec       q    Type
REMARK                         _______ _______ _______ _____ _____    ______ ____
ROOT
ATOM      1  N   UNL     1      -1.334  -4.403   2.352  0.00  0.00    -0.188 NA
ATOM      2  C   UNL     1      -1.785  -5.255   3.221  0.00  0.00    +0.142 C 
ENDROOT
BRANCH   2   3
ATOM      3  C   UNL     1      -1.600  -6.700   3.002  0.00  0.00    +0.038 A 
ATOM      4  C   UNL     1      -2.084  -7.620   3.935  0.00  0.00    +0.028 A 
ATOM      5  C   UNL     1      -1.908  -8.972   3.723  0.00  0.00    +0.019 A 
ATOM      6  C   UNL     1      -1.253  -9.421   2.588  0.00  0.00    +0.019 A 
ATOM      7  C   UNL     1      -0.769  -8.521   1.658  0.00  0.00    +0.048 A 
ATOM      8  C   UNL     1      -0.943  -7.160   1.852  0.00  0.00    +0.141 A 
ATOM      9 BR   UNL     1      -2.562 -10.216   4.987  0.00  0.00    -0.050 Br
BRANCH   8  10
ATOM     10  O   UNL     1      -0.472  -6.275   0.936  0.00  0.00    -0.422 OA
BRANCH  10  11
ATOM     11  C   UNL     1       0.755  -5.749   1.133  0.00  0.00    +0.337 C 
ATOM     12  O   UNL     1       1.367  -6.000   2.155  0.00  0.00    -0.245 OA
BRANCH  11  13
ATOM     13  C   UNL     1       1.330  -4.909   0.154  0.00  0.00    +0.095 C 
ATOM     14  C   UNL     1       2.565  -4.381   0.353  0.00  0.00    +0.053 C 
BRANCH  14  15
ATOM     15  C   UNL     1       3.141  -3.539  -0.628  0.00  0.00    +0.128 A 
ATOM     16  C   UNL     1       4.378  -2.933  -0.555  0.00  0.00    +0.049 A 
ATOM     17  C   UNL     1       4.535  -2.201  -1.741  0.00  0.00    +0.042 A 
ATOM     18  C   UNL     1       3.411  -2.377  -2.471  0.00  0.00    +0.195 A 
ATOM     19  O   UNL     1       2.575  -3.181  -1.800  0.00  0.00    -0.464 OA
ENDBRANCH  14  15
ENDBRANCH  11  13
ENDBRANCH  10  11
ENDBRANCH   8  10
ENDBRANCH   2   3
BRANCH   1  22
ATOM     20  C   UNL     1      -1.041  -2.145   1.657  0.00  0.00    +0.249 C 
ATOM     21  O   UNL     1      -0.467  -2.539   0.664  0.00  0.00    -0.272 OA
ATOM     22  N   UNL     1      -1.510  -3.029   2.561  0.00  0.00    -0.206 N 
ATOM     23  H   UNL     1      -1.968  -2.714   3.355  0.00  0.00    +0.177 HD
BRANCH  20  24
ATOM     24  C   UNL     1      -1.230  -0.667   1.882  0.00  0.00    +0.199 C 
BRANCH  24  25
ATOM     25  N   UNL     1      -0.635   0.078   0.764  0.00  0.00    -0.335 N 
ATOM     26  H   UNL     1      -1.025  -0.220  -0.117  0.00  0.00    +0.147 HD
BRANCH  25  33
ATOM     27  C   UNL     1      -3.279   1.115   0.943  0.00  0.00    +0.045 C 
ATOM     28  C   UNL     1      -2.066   2.004   1.032  0.00  0.00    -0.029 A 
ATOM     29  C   UNL     1      -2.218   3.365   1.211  0.00  0.00    +0.005 A 
ATOM     30  C   UNL     1      -1.105   4.182   1.288  0.00  0.00    +0.001 A 
ATOM     31  C   UNL     1       0.163   3.640   1.192  0.00  0.00    +0.005 A 
ATOM     32  C   UNL     1       0.323   2.279   1.018  0.00  0.00    -0.029 A 
ATOM     33  C   UNL     1      -0.793   1.455   0.940  0.00  0.00    +0.033 A 
ATOM     34  C   UNL     1       1.705   1.689   0.913  0.00  0.00    +0.045 C 
ENDBRANCH  25  33
ENDBRANCH  24  25
ENDBRANCH  20  24
ENDBRANCH   1  22
TORSDOF 9
