REMARK  Name = ZINC15861309
REMARK  4 active torsions:
REMARK  status: ('A' for Active; 'I' for Inactive)
REMARK    1  A    between atoms: C_1  and  C_2
REMARK    2  A    between atoms: C_2  and  C_3
REMARK    3  A    between atoms: C_8  and  N_9
REMARK    4  A    between atoms: C_16  and  C_24
REMARK                            x       y       z     vdW  Elec       q    Type
REMARK                         _______ _______ _______ _____ _____    ______ ____
ROOT
ATOM      1  N   UNL     1       1.146   2.370   0.004  0.00  0.00    -0.244 N 
ATOM      2  C   UNL     1      -0.021   1.708   0.011  0.00  0.00    +0.141 C 
ATOM      3  S   UNL     1       0.002  -0.004   0.002  0.00  0.00    -0.018 S 
ATOM      4  N   UNL     1      -1.207   2.339   0.021  0.00  0.00    -0.319 N 
ATOM      5  C   UNL     1      -1.252   3.808   0.111  0.00  0.00    +0.111 C 
ATOM      6  C   UNL     1      -0.080   4.357  -0.720  0.00  0.00    +0.096 C 
ATOM      7  C   UNL     1       1.209   3.827  -0.076  0.00  0.00    +0.183 C 
ATOM      8  O   UNL     1       1.341   4.401   1.222  0.00  0.00    -0.468 OA
ATOM      9  C   UNL     1       0.252   4.444   2.030  0.00  0.00    +0.128 A 
ATOM     10  C   UNL     1      -1.022   4.183   1.558  0.00  0.00    +0.015 A 
ATOM     11  C   UNL     1      -2.107   4.250   2.413  0.00  0.00    +0.009 A 
ATOM     12  C   UNL     1      -1.924   4.571   3.745  0.00  0.00    +0.001 A 
ATOM     13  C   UNL     1      -0.652   4.826   4.224  0.00  0.00    +0.004 A 
ATOM     14  C   UNL     1       0.432   4.764   3.373  0.00  0.00    +0.046 A 
ATOM     15  C   UNL     1       2.405   4.237  -0.937  0.00  0.00    +0.079 C 
ATOM     16  H   UNL     1      -2.031   1.829  -0.029  0.00  0.00    +0.148 HD
ENDROOT
BRANCH   1  22
ATOM     17  C   UNL     1       2.902   1.347   1.308  0.00  0.00    -0.026 A 
ATOM     18  C   UNL     1       4.080   0.629   1.374  0.00  0.00    +0.005 A 
ATOM     19  C   UNL     1       4.698   0.204   0.212  0.00  0.00    +0.000 A 
ATOM     20  C   UNL     1       4.139   0.496  -1.018  0.00  0.00    +0.002 A 
ATOM     21  C   UNL     1       2.959   1.209  -1.091  0.00  0.00    +0.024 A 
ATOM     22  C   UNL     1       2.339   1.643   0.074  0.00  0.00    +0.042 A 
BRANCH  17  24
ATOM     23  C   UNL     1       1.160   0.794   2.984  0.00  0.00    +0.009 C 
ATOM     24  C   UNL     1       2.229   1.810   2.575  0.00  0.00    +0.033 C 
ENDBRANCH  17  24
ENDBRANCH   1  22
TORSDOF 2
