REMARK  Name = ZINC42645983
REMARK  4 active torsions:
REMARK  status: ('A' for Active; 'I' for Inactive)
REMARK    1  A    between atoms: C_1  and  C_2
REMARK    2  A    between atoms: C_8  and  N_10
REMARK    3  A    between atoms: C_11  and  C_13
REMARK    4  A    between atoms: N_15  and  C_16
REMARK                            x       y       z     vdW  Elec       q    Type
REMARK                         _______ _______ _______ _____ _____    ______ ____
ROOT
ATOM      1  C   UNL     1       0.040   0.577   4.830  0.00  0.00    +0.303 C 
ATOM      2  O   UNL     1      -1.140   0.858   4.786  0.00  0.00    -0.265 OA
ATOM      3  N   UNL     1       0.721   0.707   5.986  0.00  0.00    -0.278 N 
ATOM      4  H   UNL     1       1.645   0.419   6.039  0.00  0.00    +0.155 HD
ENDROOT
BRANCH   3   5
ATOM      5  C   UNL     1       0.094   1.255   7.108  0.00  0.00    +0.037 A 
ATOM      6  C   UNL     1       0.816   2.050   7.989  0.00  0.00    +0.043 A 
ATOM      7  C   UNL     1       0.194   2.592   9.098  0.00  0.00    +0.044 A 
ATOM      8  C   UNL     1      -1.147   2.343   9.331  0.00  0.00    +0.040 A 
ATOM      9  C   UNL     1      -1.869   1.551   8.455  0.00  0.00    +0.044 A 
ATOM     10  C   UNL     1      -1.253   1.011   7.342  0.00  0.00    +0.043 A 
ATOM     11 CL   UNL     1      -3.551   1.242   8.752  0.00  0.00    -0.083 Cl
ATOM     12 CL   UNL     1       1.096   3.585  10.200  0.00  0.00    -0.083 Cl
ENDBRANCH   3   5
BRANCH   1  14
ATOM     13  N   UNL     1       0.056  -0.043   2.448  0.00  0.00    -0.304 N 
ATOM     14  C   UNL     1       0.737   0.087   3.604  0.00  0.00    +0.300 C 
ATOM     15  O   UNL     1       1.917  -0.194   3.648  0.00  0.00    -0.265 OA
ATOM     16  H   UNL     1      -0.887   0.182   2.413  0.00  0.00    +0.149 HD
BRANCH  13  23
ATOM     17  C   UNL     1      -0.005   1.516   0.007  0.00  0.00    +0.009 C 
ATOM     18  C   UNL     1       0.005  -0.015   0.003  0.00  0.00    +0.006 C 
ATOM     19  C   UNL     1       0.719  -0.516  -1.254  0.00  0.00    +0.005 C 
ATOM     20  C   UNL     1       0.729  -2.046  -1.258  0.00  0.00    +0.000 C 
ATOM     21  C   UNL     1       1.464  -2.555  -0.016  0.00  0.00    +0.002 C 
ATOM     22  C   UNL     1       0.750  -2.053   1.240  0.00  0.00    +0.022 C 
ATOM     23  C   UNL     1       0.740  -0.523   1.245  0.00  0.00    +0.076 C 
ENDBRANCH  13  23
ENDBRANCH   1  14
TORSDOF 3
