REMARK  Name = ZINC09320313
REMARK  7 active torsions:
REMARK  status: ('A' for Active; 'I' for Inactive)
REMARK    1  A    between atoms: C_1  and  C_2
REMARK    2  A    between atoms: C_7  and  N_8
REMARK    3  A    between atoms: C_9  and  C_11
REMARK    4  A    between atoms: C_11  and  S_12
REMARK    5  A    between atoms: S_12  and  C_13
REMARK    6  A    between atoms: C_14  and  C_30
REMARK    7  A    between atoms: C_15  and  C_25
REMARK                            x       y       z     vdW  Elec       q    Type
REMARK                         _______ _______ _______ _____ _____    ______ ____
ROOT
ATOM      1  C   UNL     1       1.363   5.745  -0.011  0.00  0.00    +0.111 C 
ATOM      2  C   UNL     1       0.076   5.236  -0.004  0.00  0.00    +0.070 C 
ATOM      3  C   UNL     1      -0.074   3.726  -0.024  0.00  0.00    +0.084 C 
ATOM      4  C   UNL     1       1.219   2.933  -0.048  0.00  0.00    +0.113 C 
ATOM      5  C   UNL     1       1.183   1.591  -0.065  0.00  0.00    +0.143 C 
ATOM      6  C   UNL     1       2.447   0.774  -0.081  0.00  0.00    +0.075 C 
ATOM      7  C   UNL     1       3.548   1.567  -0.797  0.00  0.00    +0.013 C 
ATOM      8  C   UNL     1       3.742   2.902  -0.073  0.00  0.00    +0.052 C 
ATOM      9  C   UNL     1       2.430   3.650  -0.051  0.00  0.00    +0.031 C 
ATOM     10  N   UNL     1       2.441   4.959  -0.034  0.00  0.00    -0.248 NA
ATOM     11  O   UNL     1      -0.010   0.962  -0.063  0.00  0.00    -0.297 OA
ENDROOT
BRANCH   3  12
ATOM     12  C   UNL     1      -0.856   3.314   1.197  0.00  0.00    -0.001 A 
ATOM     13  C   UNL     1      -2.094   2.768   1.274  0.00  0.00    +0.012 A 
ATOM     14  C   UNL     1      -2.617   2.465   2.517  0.00  0.00    +0.008 A 
ATOM     15  C   UNL     1      -1.881   2.732   3.623  0.00  0.00    +0.045 A 
ATOM     16  S   UNL     1      -0.395   3.427   2.918  0.00  0.00    -0.101 S 
ENDBRANCH   3  12
BRANCH   2  17
ATOM     17  C   UNL     1      -1.067   6.099   0.020  0.00  0.00    +0.098 C 
ATOM     18  N   UNL     1      -1.974   6.783   0.040  0.00  0.00    -0.191 NA
ENDBRANCH   2  17
BRANCH   1  19
ATOM     19  S   UNL     1       1.586   7.493   0.011  0.00  0.00    -0.096 S 
BRANCH  19  20
ATOM     20  C   UNL     1       3.394   7.580  -0.007  0.00  0.00    +0.172 C 
BRANCH  20  22
ATOM     21  N   UNL     1       5.140   9.332  -0.001  0.00  0.00    -0.285 N 
ATOM     22  C   UNL     1       3.828   9.023   0.008  0.00  0.00    +0.227 C 
ATOM     23  O   UNL     1       2.997   9.906   0.029  0.00  0.00    -0.275 OA
ATOM     24  H   UNL     1       5.805   8.628   0.063  0.00  0.00    +0.155 HD
BRANCH  21  31
ATOM     25  C   UNL     1       7.689  10.049   1.038  0.00  0.00    +0.045 C 
ATOM     26  C   UNL     1       6.780  11.061   0.391  0.00  0.00    -0.029 A 
ATOM     27  C   UNL     1       7.177  12.380   0.285  0.00  0.00    +0.006 A 
ATOM     28  C   UNL     1       6.341  13.311  -0.304  0.00  0.00    +0.020 A 
ATOM     29  C   UNL     1       5.106  12.923  -0.794  0.00  0.00    +0.043 A 
ATOM     30  C   UNL     1       4.705  11.604  -0.695  0.00  0.00    +0.043 A 
ATOM     31  C   UNL     1       5.543  10.668  -0.104  0.00  0.00    +0.038 A 
ATOM     32 CL   UNL     1       4.059  14.095  -1.533  0.00  0.00    -0.083 Cl
ENDBRANCH  21  31
ENDBRANCH  20  22
ENDBRANCH  19  20
ENDBRANCH   1  19
TORSDOF 6
