REMARK  Name = ZINC08845381
REMARK  9 active torsions:
REMARK  status: ('A' for Active; 'I' for Inactive)
REMARK    1  A    between atoms: C_1  and  C_2
REMARK    2  A    between atoms: C_4  and  O_35
REMARK    3  A    between atoms: C_5  and  C_9
REMARK    4  A    between atoms: N_17  and  C_29
REMARK    5  A    between atoms: C_18  and  C_20
REMARK    6  A    between atoms: C_23  and  O_28
REMARK    7  A    between atoms: C_24  and  O_26
REMARK    8  A    between atoms: O_26  and  C_27
REMARK    9  A    between atoms: C_29  and  C_30
REMARK                            x       y       z     vdW  Elec       q    Type
REMARK                         _______ _______ _______ _____ _____    ______ ____
ROOT
ATOM      1  C   UNL     1      -0.049  -4.488  -0.137  0.00  0.00    +0.075 A 
ATOM      2  C   UNL     1       1.074  -5.182  -0.457  0.00  0.00    +0.035 A 
ATOM      3  C   UNL     1       0.745  -6.548  -0.301  0.00  0.00    +0.153 A 
ATOM      4  N   UNL     1      -0.513  -6.597   0.090  0.00  0.00    -0.168 NA
ATOM      5  N   UNL     1      -0.997  -5.411   0.199  0.00  0.00    -0.276 N 
ATOM      6  H   UNL     1      -1.903  -5.202   0.477  0.00  0.00    +0.189 HD
ATOM      7  C   UNL     1       1.939  -7.343  -0.639  0.00  0.00    +0.268 C 
ATOM      8  O   UNL     1       1.995  -8.557  -0.610  0.00  0.00    -0.268 OA
ATOM      9  N   UNL     1       2.957  -6.537  -0.986  0.00  0.00    -0.278 N 
ATOM     10  C   UNL     1       2.510  -5.141  -0.903  0.00  0.00    +0.142 C 
ENDROOT
BRANCH   1  15
ATOM     11  C   UNL     1      -0.678   1.237  -0.172  0.00  0.00    +0.045 C 
ATOM     12  C   UNL     1      -0.511  -0.261  -0.160  0.00  0.00    -0.029 A 
ATOM     13  C   UNL     1       0.358  -0.849   0.738  0.00  0.00    +0.050 A 
ATOM     14  C   UNL     1       0.515  -2.225   0.753  0.00  0.00    +0.126 A 
ATOM     15  C   UNL     1      -0.210  -3.017  -0.145  0.00  0.00    +0.043 A 
ATOM     16  C   UNL     1      -1.085  -2.413  -1.046  0.00  0.00    +0.034 A 
ATOM     17  C   UNL     1      -1.235  -1.040  -1.046  0.00  0.00    +0.045 A 
ATOM     18 CL   UNL     1      -2.330  -0.290  -2.164  0.00  0.00    -0.083 Cl
BRANCH  14  19
ATOM     19  O   UNL     1       1.371  -2.804   1.635  0.00  0.00    -0.506 OA
ATOM     20  H   UNL     1       0.986  -2.969   2.507  0.00  0.00    +0.292 HD
ENDBRANCH  14  19
ENDBRANCH   1  15
BRANCH  10  21
ATOM     21  C   UNL     1       2.613  -4.484  -2.255  0.00  0.00    -0.019 A 
ATOM     22  C   UNL     1       2.103  -5.119  -3.372  0.00  0.00    +0.009 A 
ATOM     23  C   UNL     1       2.195  -4.519  -4.614  0.00  0.00    +0.049 A 
ATOM     24  C   UNL     1       2.799  -3.279  -4.742  0.00  0.00    +0.158 A 
ATOM     25  C   UNL     1       3.312  -2.639  -3.618  0.00  0.00    +0.162 A 
ATOM     26  C   UNL     1       3.212  -3.243  -2.375  0.00  0.00    +0.055 A 
BRANCH  25  27
ATOM     27  O   UNL     1       3.906  -1.422  -3.738  0.00  0.00    -0.491 OA
ATOM     28  C   UNL     1       4.410  -0.825  -2.541  0.00  0.00    +0.277 C 
ENDBRANCH  25  27
BRANCH  24  29
ATOM     29  O   UNL     1       2.891  -2.688  -5.964  0.00  0.00    -0.503 OA
ATOM     30  H   UNL     1       2.138  -2.124  -6.185  0.00  0.00    +0.292 HD
ENDBRANCH  24  29
ENDBRANCH  10  21
BRANCH   9  31
ATOM     31  C   UNL     1       4.295  -6.980  -1.383  0.00  0.00    +0.183 C 
BRANCH  31  32
ATOM     32  C   UNL     1       4.335  -7.184  -2.876  0.00  0.00    +0.122 A 
ATOM     33  C   UNL     1       4.665  -6.253  -3.789  0.00  0.00    +0.046 A 
ATOM     34  C   UNL     1       4.569  -6.871  -5.057  0.00  0.00    +0.041 A 
ATOM     35  C   UNL     1       4.187  -8.143  -4.843  0.00  0.00    +0.195 A 
ATOM     36  O   UNL     1       4.052  -8.329  -3.519  0.00  0.00    -0.466 OA
ENDBRANCH  31  32
ENDBRANCH   9  31
TORSDOF 7
