REMARK  Name = ZINC40701710
REMARK  8 active torsions:
REMARK  status: ('A' for Active; 'I' for Inactive)
REMARK    1  A    between atoms: C_1  and  C_2
REMARK    2  A    between atoms: C_2  and  N_3
REMARK    3  A    between atoms: N_3  and  C_4
REMARK    4  A    between atoms: C_4  and  C_5
REMARK    5  A    between atoms: C_7  and  N_23
REMARK    6  A    between atoms: C_8  and  N_12
REMARK    7  A    between atoms: N_12  and  C_13
REMARK    8  A    between atoms: C_18  and  C_19
REMARK                            x       y       z     vdW  Elec       q    Type
REMARK                         _______ _______ _______ _____ _____    ______ ____
ROOT
ATOM      1  N   UNL     1      -1.329  -0.551   0.017  0.00  0.00    -0.314 N 
ATOM      2  C   UNL     1      -1.984  -0.783   1.221  0.00  0.00    +0.147 A 
ATOM      3  C   UNL     1      -3.253  -1.366   1.237  0.00  0.00    +0.106 A 
ATOM      4  C   UNL     1      -3.866  -1.577   2.473  0.00  0.00    +0.149 A 
ATOM      5  N   UNL     1      -3.223  -1.217   3.581  0.00  0.00    -0.219 NA
ATOM      6  C   UNL     1      -2.026  -0.669   3.522  0.00  0.00    +0.225 A 
ATOM      7  N   UNL     1      -1.410  -0.458   2.376  0.00  0.00    -0.219 NA
ENDROOT
BRANCH   3   8
ATOM      8  N   UNL     1      -3.895  -1.729   0.042  0.00  0.00    -0.353 N 
ATOM      9  H   UNL     1      -3.428  -1.645  -0.804  0.00  0.00    +0.143 HD
ATOM     10  H   UNL     1      -4.804  -2.065   0.063  0.00  0.00    +0.143 HD
ENDBRANCH   3   8
BRANCH   1  12
ATOM     11  C   UNL     1      -2.625   0.783  -1.571  0.00  0.00    +0.024 C 
ATOM     12  C   UNL     1      -1.422   0.762  -0.626  0.00  0.00    +0.103 C 
ENDBRANCH   1  12
BRANCH   1  13
ATOM     13  C   UNL     1      -0.546  -1.619  -0.608  0.00  0.00    +0.103 C 
ATOM     14  C   UNL     1       0.923  -1.479  -0.202  0.00  0.00    +0.024 C 
ENDBRANCH   1  13
BRANCH   4  15
ATOM     15  N   UNL     1      -5.129  -2.153   2.545  0.00  0.00    -0.297 N 
ATOM     16  H   UNL     1      -5.628  -2.332   1.733  0.00  0.00    +0.154 HD
BRANCH  15  17
ATOM     17  C   UNL     1      -5.680  -2.474   3.788  0.00  0.00    +0.044 A 
ATOM     18  C   UNL     1      -4.851  -2.712   4.877  0.00  0.00    +0.024 A 
ATOM     19  C   UNL     1      -5.399  -3.030   6.104  0.00  0.00    +0.002 A 
ATOM     20  C   UNL     1      -6.772  -3.111   6.250  0.00  0.00    +0.001 A 
ATOM     21  C   UNL     1      -7.600  -2.876   5.168  0.00  0.00    +0.014 A 
ATOM     22  C   UNL     1      -7.059  -2.551   3.940  0.00  0.00    +0.076 A 
BRANCH  22  23
ATOM     23  C   UNL     1      -7.963  -2.288   2.763  0.00  0.00    +0.419 C 
ATOM     24  F   UNL     1      -9.297  -2.424   3.161  0.00  0.00    -0.166 F 
ATOM     25  F   UNL     1      -7.747  -0.989   2.291  0.00  0.00    -0.166 F 
ATOM     26  F   UNL     1      -7.683  -3.207   1.746  0.00  0.00    -0.166 F 
ENDBRANCH  22  23
ENDBRANCH  15  17
ENDBRANCH   4  15
TORSDOF 6
