REMARK  Name = ZINC16156329
REMARK  8 active torsions:
REMARK  status: ('A' for Active; 'I' for Inactive)
REMARK    1  A    between atoms: C_1  and  C_2
REMARK    2  A    between atoms: C_5  and  C_8
REMARK    3  A    between atoms: C_8  and  O_9
REMARK    4  A    between atoms: O_9  and  C_10
REMARK    5  A    between atoms: C_11  and  O_20
REMARK    6  A    between atoms: C_13  and  C_17
REMARK    7  A    between atoms: N_18  and  O_19
REMARK    8  A    between atoms: O_20  and  C_21
REMARK                            x       y       z     vdW  Elec       q    Type
REMARK                         _______ _______ _______ _____ _____    ______ ____
ROOT
ATOM      1  C   UNL     1       1.608  -6.079  -0.040  0.00  0.00    +0.175 A 
ATOM      2  C   UNL     1       1.709  -6.774   1.163  0.00  0.00    +0.163 A 
ATOM      3  C   UNL     1       1.908  -8.142   1.157  0.00  0.00    +0.059 A 
ATOM      4  C   UNL     1       2.008  -8.825  -0.058  0.00  0.00    +0.001 A 
ATOM      5  C   UNL     1       1.905  -8.122  -1.260  0.00  0.00    +0.027 A 
ATOM      6  C   UNL     1       1.701  -6.758  -1.247  0.00  0.00    +0.059 A 
ATOM      7  I   UNL     1       1.539  -5.707  -3.052  0.00  0.00    -0.040 I 
ENDROOT
BRANCH   4   8
ATOM      8  C   UNL     1       2.221 -10.284  -0.071  0.00  0.00    +0.160 C 
ATOM      9  N   UNL     1       2.312 -10.915  -1.197  0.00  0.00    -0.095 NA
BRANCH   9  10
ATOM     10  O   UNL     1       2.517 -12.316  -1.209  0.00  0.00    -0.409 OA
ATOM     11  H   UNL     1       2.572 -12.698  -2.095  0.00  0.00    +0.328 HD
ENDBRANCH   9  10
ENDBRANCH   4   8
BRANCH   2  12
ATOM     12  O   UNL     1       1.612  -6.107   2.345  0.00  0.00    -0.491 OA
ATOM     13  C   UNL     1       1.725  -6.883   3.539  0.00  0.00    +0.277 C 
ENDBRANCH   2  12
BRANCH   1  14
ATOM     14  O   UNL     1       1.413  -4.734  -0.032  0.00  0.00    -0.483 OA
BRANCH  14  15
ATOM     15  C   UNL     1       0.059  -4.275  -0.021  0.00  0.00    +0.264 C 
BRANCH  15  20
ATOM     16  C   UNL     1      -0.018   1.503   0.010  0.00  0.00    +0.044 C 
ATOM     17  C   UNL     1       0.002  -0.004   0.002  0.00  0.00    -0.050 A 
ATOM     18  C   UNL     1       0.006  -0.689  -1.199  0.00  0.00    +0.004 A 
ATOM     19  C   UNL     1       0.025  -2.071  -1.206  0.00  0.00    +0.007 A 
ATOM     20  C   UNL     1       0.040  -2.768  -0.013  0.00  0.00    -0.010 A 
ATOM     21  C   UNL     1       0.037  -2.084   1.188  0.00  0.00    +0.007 A 
ATOM     22  C   UNL     1       0.023  -0.702   1.195  0.00  0.00    +0.004 A 
ENDBRANCH  15  20
ENDBRANCH  14  15
ENDBRANCH   1  14
TORSDOF 6
