REMARK  Name = ZINC32834340
REMARK  5 active torsions:
REMARK  status: ('A' for Active; 'I' for Inactive)
REMARK    1  A    between atoms: C_4  and  C_7
REMARK    2  A    between atoms: C_7  and  N_8
REMARK    3  A    between atoms: N_17  and  C_27
REMARK    4  A    between atoms: C_18  and  C_20
REMARK    5  A    between atoms: C_27  and  C_28
REMARK                            x       y       z     vdW  Elec       q    Type
REMARK                         _______ _______ _______ _____ _____    ______ ____
ROOT
ATOM      1  N   UNL     1       4.179  -1.170   1.625  0.00  0.00    -0.272 N 
ATOM      2  C   UNL     1       4.950  -0.126   2.112  0.00  0.00    +0.169 A 
ATOM      3  C   UNL     1       5.400  -0.182   3.427  0.00  0.00    +0.152 A 
ATOM      4  C   UNL     1       5.059  -1.296   4.223  0.00  0.00    +0.280 A 
ATOM      5  O   UNL     1       5.441  -1.368   5.378  0.00  0.00    -0.265 OA
ATOM      6  N   UNL     1       4.306  -2.281   3.691  0.00  0.00    -0.273 N 
ATOM      7  H   UNL     1       4.069  -3.048   4.235  0.00  0.00    +0.173 HD
ATOM      8  C   UNL     1       3.873  -2.212   2.421  0.00  0.00    +0.331 A 
ATOM      9  O   UNL     1       3.191  -3.115   1.977  0.00  0.00    -0.246 OA
ATOM     10  N   UNL     1       6.133   0.970   3.640  0.00  0.00    -0.316 N 
ATOM     11  C   UNL     1       6.106   1.674   2.475  0.00  0.00    +0.144 A 
ATOM     12  N   UNL     1       5.401   1.010   1.581  0.00  0.00    -0.209 NA
ENDROOT
BRANCH  11  13
ATOM     13  C   UNL     1       6.763   2.978   2.249  0.00  0.00    +0.018 A 
ATOM     14  C   UNL     1       7.823   3.379   3.064  0.00  0.00    +0.013 A 
ATOM     15  C   UNL     1       8.432   4.598   2.849  0.00  0.00    +0.021 A 
ATOM     16  C   UNL     1       7.995   5.423   1.826  0.00  0.00    +0.041 A 
ATOM     17  C   UNL     1       6.944   5.030   1.014  0.00  0.00    +0.021 A 
ATOM     18  C   UNL     1       6.331   3.811   1.216  0.00  0.00    +0.013 A 
ATOM     19 CL   UNL     1       8.766   6.955   1.561  0.00  0.00    -0.084 Cl
ENDBRANCH  11  13
BRANCH   1  20
ATOM     20  C   UNL     1       3.692  -1.137   0.243  0.00  0.00    +0.163 C 
BRANCH  20  24
ATOM     21  C   UNL     1      -0.110   0.806   0.119  0.00  0.00    +0.000 A 
ATOM     22  C   UNL     1       1.049   1.545  -0.027  0.00  0.00    +0.000 A 
ATOM     23  C   UNL     1       2.279   0.917   0.014  0.00  0.00    +0.005 A 
ATOM     24  C   UNL     1       2.351  -0.451   0.200  0.00  0.00    -0.028 A 
ATOM     25  C   UNL     1       1.192  -1.190   0.346  0.00  0.00    +0.005 A 
ATOM     26  C   UNL     1      -0.039  -0.562   0.305  0.00  0.00    +0.000 A 
ENDBRANCH  20  24
ENDBRANCH   1  20
BRANCH  10  27
ATOM     27  C   UNL     1       6.808   1.359   4.881  0.00  0.00    +0.155 C 
BRANCH  27  28
ATOM     28  C   UNL     1       8.207   0.741   4.915  0.00  0.00    +0.138 C 
ATOM     29  C   UNL     1       8.973   1.213   6.176  0.00  0.00    +0.035 C 
ATOM     30  C   UNL     1       9.990   0.053   6.356  0.00  0.00    +0.031 C 
ATOM     31  C   UNL     1       9.179  -1.170   5.876  0.00  0.00    +0.160 C 
ATOM     32  O   UNL     1       8.119  -0.687   5.040  0.00  0.00    -0.375 OA
ENDBRANCH  27  28
ENDBRANCH  10  27
TORSDOF 5
