REMARK  Name = ZINC09724156
REMARK  8 active torsions:
REMARK  status: ('A' for Active; 'I' for Inactive)
REMARK    1  A    between atoms: C_1  and  C_2
REMARK    2  A    between atoms: C_2  and  N_3
REMARK    3  A    between atoms: N_3  and  C_4
REMARK    4  A    between atoms: N_3  and  S_6
REMARK    5  A    between atoms: C_4  and  C_5
REMARK    6  A    between atoms: S_6  and  C_9
REMARK    7  A    between atoms: C_17  and  C_21
REMARK    8  A    between atoms: N_19  and  C_20
REMARK                            x       y       z     vdW  Elec       q    Type
REMARK                         _______ _______ _______ _____ _____    ______ ____
ROOT
ATOM      1  C   UNL     1       3.271   0.704   1.409  0.00  0.00    +0.106 A 
ATOM      2  C   UNL     1       3.658   1.591   0.415  0.00  0.00    +0.030 A 
ATOM      3  C   UNL     1       4.371   2.728   0.725  0.00  0.00    +0.028 A 
ATOM      4  C   UNL     1       4.712   2.996   2.048  0.00  0.00    +0.053 A 
ATOM      5  C   UNL     1       4.320   2.096   3.053  0.00  0.00    +0.048 A 
ATOM      6  C   UNL     1       3.593   0.951   2.725  0.00  0.00    +0.042 A 
ATOM      7  C   UNL     1       4.688   2.392   4.450  0.00  0.00    +0.202 A 
ATOM      8  O   UNL     1       4.374   1.646   5.361  0.00  0.00    -0.286 OA
ATOM      9  C   UNL     1       5.450   3.626   4.698  0.00  0.00    +0.100 A 
ATOM     10  C   UNL     1       5.778   4.432   3.628  0.00  0.00    +0.102 A 
ATOM     11  N   UNL     1       5.426   4.129   2.371  0.00  0.00    -0.349 N 
ATOM     12  C   UNL     1       5.816   5.043   1.294  0.00  0.00    +0.149 C 
ENDROOT
BRANCH   9  13
ATOM     13  C   UNL     1       5.856   3.993   6.063  0.00  0.00    +0.252 C 
ATOM     14  O   UNL     1       6.777   3.410   6.602  0.00  0.00    -0.270 OA
ATOM     15  N   UNL     1       5.206   4.976   6.718  0.00  0.00    -0.294 N 
ATOM     16  C   UNL     1       4.014   5.605   6.130  0.00  0.00    +0.127 C 
ATOM     17  C   UNL     1       2.858   5.494   7.131  0.00  0.00    +0.125 C 
ATOM     18  N   UNL     1       3.328   5.956   8.445  0.00  0.00    -0.314 N 
ATOM     19  C   UNL     1       4.519   5.327   9.032  0.00  0.00    +0.125 C 
ATOM     20  C   UNL     1       5.673   5.434   8.034  0.00  0.00    +0.127 C 
ATOM     21  C   UNL     1       2.658   6.970   9.120  0.00  0.00    +0.099 A 
ATOM     22  C   UNL     1       1.458   7.460   8.612  0.00  0.00    +0.042 A 
ATOM     23  C   UNL     1       0.802   8.469   9.294  0.00  0.00    +0.005 A 
ATOM     24  C   UNL     1       1.369   8.956  10.464  0.00  0.00    +0.018 A 
ATOM     25  C   UNL     1       2.562   8.423  10.910  0.00  0.00    +0.084 A 
ATOM     26  N   UNL     1       3.164   7.457  10.242  0.00  0.00    -0.350 N 
ATOM     27  H   UNL     1       3.999   7.098  10.579  0.00  0.00    +0.166 HD
ENDBRANCH   9  13
BRANCH   1  28
ATOM     28  S   UNL     1       2.358  -0.743   0.987  0.00  0.00    +0.061 S 
ATOM     29  O   UNL     1       2.584  -1.684   2.028  0.00  0.00    -0.153 OA
ATOM     30  O   UNL     1       2.653  -1.027  -0.374  0.00  0.00    -0.153 OA
BRANCH  28  31
ATOM     31  N   UNL     1       0.752  -0.344   1.050  0.00  0.00    -0.177 NA
BRANCH  31  33
ATOM     32  C   UNL     1       0.083   1.696  -0.120  0.00  0.00    +0.022 C 
ATOM     33  C   UNL     1       0.077   0.167  -0.146  0.00  0.00    +0.106 C 
ENDBRANCH  31  33
BRANCH  31  34
ATOM     34  C   UNL     1       0.006  -0.503   2.301  0.00  0.00    +0.106 C 
ATOM     35  C   UNL     1      -0.705  -1.857   2.303  0.00  0.00    +0.022 C 
ENDBRANCH  31  34
ENDBRANCH  28  31
ENDBRANCH   1  28
TORSDOF 5
