REMARK  Name = ZINC22290953
REMARK  12 active torsions:
REMARK  status: ('A' for Active; 'I' for Inactive)
REMARK    1  A    between atoms: C_1  and  C_2
REMARK    2  A    between atoms: C_5  and  S_8
REMARK    3  A    between atoms: S_8  and  N_11
REMARK    4  A    between atoms: N_11  and  C_12
REMARK    5  A    between atoms: C_12  and  C_14
REMARK    6  A    between atoms: C_12  and  C_18
REMARK    7  A    between atoms: C_14  and  C_15
REMARK    8  A    between atoms: C_15  and  C_16
REMARK    9  A    between atoms: C_15  and  C_17
REMARK   10  A    between atoms: C_23  and  C_26
REMARK   11  A    between atoms: C_26  and  N_27
REMARK   12  A    between atoms: C_30  and  C_33
REMARK                            x       y       z     vdW  Elec       q    Type
REMARK                         _______ _______ _______ _____ _____    ______ ____
ROOT
ATOM      1  C   UNL     1       3.598  -3.865   0.309  0.00  0.00    +0.237 C 
ATOM      2  O   UNL     1       3.831  -3.948  -0.878  0.00  0.00    -0.274 OA
ATOM      3  N   UNL     1       4.454  -3.211   1.120  0.00  0.00    -0.263 N 
ATOM      4  C   UNL     1       5.548  -2.544   0.582  0.00  0.00    +0.165 A 
ATOM      5  N   UNL     1       6.481  -1.864   1.212  0.00  0.00    -0.231 NA
ATOM      6  C   UNL     1       7.466  -1.283   0.552  0.00  0.00    +0.034 A 
ATOM      7  C   UNL     1       7.468  -1.420  -0.797  0.00  0.00    +0.070 A 
ATOM      8  S   UNL     1       6.005  -2.417  -1.033  0.00  0.00    -0.060 S 
ATOM      9  H   UNL     1       4.305  -3.205   2.079  0.00  0.00    +0.157 HD
ENDROOT
BRANCH   1  10
ATOM     10  C   UNL     1       2.352  -4.493   0.879  0.00  0.00    +0.163 C 
BRANCH  10  11
ATOM     11  N   UNL     1       1.387  -4.725  -0.198  0.00  0.00    -0.178 NA
ATOM     12  H   UNL     1       1.696  -4.997  -1.077  0.00  0.00    +0.149 HD
BRANCH  11  13
ATOM     13  S   UNL     1      -0.233  -4.523   0.083  0.00  0.00    +0.059 S 
ATOM     14  O   UNL     1      -0.536  -5.263   1.258  0.00  0.00    -0.153 OA
ATOM     15  O   UNL     1      -0.892  -4.754  -1.154  0.00  0.00    -0.153 OA
BRANCH  13  20
ATOM     16  C   UNL     1      -1.099   1.292   1.439  0.00  0.00    +0.044 C 
ATOM     17  C   UNL     1      -0.882  -0.161   1.101  0.00  0.00    -0.050 A 
ATOM     18  C   UNL     1      -0.953  -0.582  -0.214  0.00  0.00    +0.005 A 
ATOM     19  C   UNL     1      -0.755  -1.914  -0.525  0.00  0.00    +0.029 A 
ATOM     20  C   UNL     1      -0.485  -2.825   0.479  0.00  0.00    +0.105 A 
ATOM     21  C   UNL     1      -0.413  -2.404   1.794  0.00  0.00    +0.029 A 
ATOM     22  C   UNL     1      -0.607  -1.071   2.104  0.00  0.00    +0.005 A 
ENDBRANCH  13  20
ENDBRANCH  11  13
ENDBRANCH  10  11
BRANCH  10  23
ATOM     23  C   UNL     1       2.709  -5.826   1.540  0.00  0.00    +0.032 C 
BRANCH  23  24
ATOM     24  C   UNL     1       3.609  -5.570   2.750  0.00  0.00    -0.015 C 
ATOM     25  C   UNL     1       2.816  -4.829   3.828  0.00  0.00    +0.007 C 
ATOM     26  C   UNL     1       4.105  -6.905   3.309  0.00  0.00    +0.007 C 
ENDBRANCH  23  24
ENDBRANCH  10  23
ENDBRANCH   1  10
BRANCH   6  27
ATOM     27  C   UNL     1       8.539  -0.501   1.265  0.00  0.00    -0.022 C 
BRANCH  27  28
ATOM     28  N   UNL     1       8.078   0.876   1.485  0.00  0.00    +0.383 N 
ATOM     29  C   UNL     1       6.925   0.865   2.394  0.00  0.00    -0.078 C 
ATOM     30  C   UNL     1       6.390   2.288   2.562  0.00  0.00    -0.016 C 
ATOM     31  C   UNL     1       7.493   3.176   3.146  0.00  0.00    -0.018 C 
ATOM     32  C   UNL     1       8.717   3.122   2.228  0.00  0.00    -0.016 C 
ATOM     33  C   UNL     1       9.166   1.667   2.071  0.00  0.00    -0.078 C 
ATOM     34  C   UNL     1       6.991   4.618   3.243  0.00  0.00    +0.007 C 
ATOM     35  H   UNL     1       7.804   1.283   0.603  0.00  0.00    -0.081 HD
ENDBRANCH  27  28
ENDBRANCH   6  27
TORSDOF 8
