REMARK  Name = ZINC09225946
REMARK  7 active torsions:
REMARK  status: ('A' for Active; 'I' for Inactive)
REMARK    1  A    between atoms: C_1  and  C_2
REMARK    2  A    between atoms: C_2  and  C_3
REMARK    3  A    between atoms: C_3  and  N_4
REMARK    4  A    between atoms: N_4  and  C_5
REMARK    5  A    between atoms: C_13  and  C_15
REMARK    6  A    between atoms: C_15  and  N_16
REMARK    7  A    between atoms: C_25  and  C_31
REMARK                            x       y       z     vdW  Elec       q    Type
REMARK                         _______ _______ _______ _____ _____    ______ ____
ROOT
ATOM      1  N   UNL     1       5.337   0.720  -0.014  0.00  0.00    -0.219 N 
ATOM      2  C   UNL     1       4.513   1.782   0.091  0.00  0.00    +0.292 A 
ATOM      3  O   UNL     1       4.970   2.911   0.164  0.00  0.00    -0.264 OA
ATOM      4  C   UNL     1       3.114   1.574   0.117  0.00  0.00    +0.116 A 
ATOM      5  C   UNL     1       2.633   0.268   0.032  0.00  0.00    +0.032 A 
ATOM      6  C   UNL     1       3.543  -0.805  -0.076  0.00  0.00    +0.143 A 
ATOM      7  N   UNL     1       4.827  -0.579  -0.097  0.00  0.00    -0.175 NA
ATOM      8  C   UNL     1       1.167   0.358   0.081  0.00  0.00    +0.009 A 
ATOM      9  C   UNL     1       0.141  -0.586   0.039  0.00  0.00    +0.014 A 
ATOM     10  C   UNL     1      -1.162  -0.179   0.102  0.00  0.00    -0.050 A 
ATOM     11  C   UNL     1      -1.474   1.169   0.220  0.00  0.00    +0.005 A 
ATOM     12  C   UNL     1      -0.476   2.117   0.262  0.00  0.00    +0.026 A 
ATOM     13  C   UNL     1       0.859   1.725   0.193  0.00  0.00    +0.048 A 
ATOM     14  N   UNL     1       2.041   2.433   0.213  0.00  0.00    -0.350 N 
ATOM     15  H   UNL     1       2.108   3.398   0.283  0.00  0.00    +0.166 HD
ATOM     16  C   UNL     1      -2.269  -1.200   0.050  0.00  0.00    +0.044 C 
ENDROOT
BRANCH   1  17
ATOM     17  C   UNL     1       6.787   0.930  -0.040  0.00  0.00    +0.243 C 
BRANCH  17  19
ATOM     18  N   UNL     1       8.644   1.065   1.588  0.00  0.00    -0.270 N 
ATOM     19  C   UNL     1       7.325   0.894   1.367  0.00  0.00    +0.241 C 
ATOM     20  O   UNL     1       6.572   0.712   2.300  0.00  0.00    -0.273 OA
BRANCH  18  21
ATOM     21  C   UNL     1       9.130   1.134   2.899  0.00  0.00    +0.038 A 
ATOM     22  C   UNL     1       8.810   2.219   3.704  0.00  0.00    +0.025 A 
ATOM     23  C   UNL     1       9.286   2.282   4.999  0.00  0.00    +0.023 A 
ATOM     24  C   UNL     1      10.092   1.270   5.491  0.00  0.00    +0.059 A 
ATOM     25  C   UNL     1      10.418   0.190   4.689  0.00  0.00    +0.061 A 
ATOM     26  C   UNL     1       9.938   0.120   3.394  0.00  0.00    +0.045 A 
ATOM     27 CL   UNL     1      11.428  -1.078   5.310  0.00  0.00    -0.082 Cl
ATOM     28 CL   UNL     1      10.695   1.356   7.117  0.00  0.00    -0.082 Cl
ENDBRANCH  18  21
BRANCH  18  29
ATOM     29  C   UNL     1       9.568   1.180   0.457  0.00  0.00    +0.113 C 
BRANCH  29  31
ATOM     30  C   UNL     1      10.669   2.770  -1.124  0.00  0.00    +0.005 C 
ATOM     31  C   UNL     1       9.704   2.651   0.057  0.00  0.00    +0.016 C 
ENDBRANCH  29  31
ENDBRANCH  18  29
ENDBRANCH  17  19
ENDBRANCH   1  17
TORSDOF 5
