REMARK  Name = ZINC17114954
REMARK  8 active torsions:
REMARK  status: ('A' for Active; 'I' for Inactive)
REMARK    1  A    between atoms: C_1  and  C_2
REMARK    2  A    between atoms: C_2  and  O_3
REMARK    3  A    between atoms: O_3  and  C_4
REMARK    4  A    between atoms: C_7  and  C_10
REMARK    5  A    between atoms: N_16  and  C_17
REMARK    6  A    between atoms: C_17  and  C_18
REMARK    7  A    between atoms: C_18  and  C_19
REMARK    8  A    between atoms: N_21  and  N_22
REMARK                            x       y       z     vdW  Elec       q    Type
REMARK                         _______ _______ _______ _____ _____    ______ ____
ROOT
ATOM      1  C   UNL     1      -2.491   0.925   0.016  0.00  0.00    +0.119 C 
ENDROOT
BRANCH   1   2
ATOM      2  C   UNL     1      -1.212   1.723   0.017  0.00  0.00    +0.231 C 
ATOM      3  O   UNL     1      -1.254   2.935   0.031  0.00  0.00    -0.274 OA
ATOM      4  N   UNL     1      -0.023   1.090   0.002  0.00  0.00    -0.224 N 
ATOM      5  H   UNL     1       0.011   0.121  -0.010  0.00  0.00    +0.174 HD
BRANCH   4   6
ATOM      6  N   UNL     1       1.166   1.832  -0.003  0.00  0.00    -0.137 N 
ATOM      7  C   UNL     1       1.974   1.977   1.068  0.00  0.00    +0.263 C 
ATOM      8  O   UNL     1       1.817   1.507   2.174  0.00  0.00    -0.271 OA
ATOM      9  C   UNL     1       3.116   2.847   0.597  0.00  0.00    +0.114 C 
ATOM     10  C   UNL     1       4.438   2.095   0.710  0.00  0.00    +0.035 C 
ATOM     11  C   UNL     1       5.578   2.982   0.202  0.00  0.00    +0.003 C 
ATOM     12  C   UNL     1       5.630   4.267   1.031  0.00  0.00    +0.000 C 
ATOM     13  C   UNL     1       4.307   5.022   0.887  0.00  0.00    +0.003 C 
ATOM     14  C   UNL     1       3.162   4.143   1.397  0.00  0.00    +0.035 C 
ATOM     15  N   UNL     1       2.799   3.121  -0.810  0.00  0.00    -0.284 N 
ATOM     16  C   UNL     1       1.643   2.482  -1.072  0.00  0.00    +0.326 C 
ATOM     17  O   UNL     1       1.093   2.495  -2.156  0.00  0.00    -0.251 OA
ATOM     18  H   UNL     1       3.321   3.654  -1.431  0.00  0.00    +0.151 HD
ENDBRANCH   4   6
ENDBRANCH   1   2
BRANCH   1  19
ATOM     19  C   UNL     1      -3.687   1.878   0.035  0.00  0.00    +0.135 C 
BRANCH  19  26
ATOM     20  C   UNL     1      -5.670   0.762  -1.081  0.00  0.00    +0.163 A 
ATOM     21  N   UNL     1      -6.705   0.069  -0.696  0.00  0.00    -0.153 NA
ATOM     22  N   UNL     1      -6.656  -0.044   0.700  0.00  0.00    -0.254 N 
ATOM     23  H   UNL     1      -7.300  -0.504   1.261  0.00  0.00    +0.191 HD
ATOM     24  C   UNL     1      -5.550   0.603   1.121  0.00  0.00    +0.176 A 
ATOM     25  S   UNL     1      -5.028   0.762   2.744  0.00  0.00    -0.011 S 
ATOM     26  N   UNL     1      -4.930   1.103   0.034  0.00  0.00    -0.303 N 
BRANCH  20  30
ATOM     27  C   UNL     1      -4.727   1.790  -5.096  0.00  0.00    +0.121 A 
ATOM     28  C   UNL     1      -6.031   1.456  -4.754  0.00  0.00    +0.046 A 
ATOM     29  C   UNL     1      -6.340   1.121  -3.453  0.00  0.00    +0.015 A 
ATOM     30  C   UNL     1      -5.342   1.120  -2.479  0.00  0.00    +0.019 A 
ATOM     31  C   UNL     1      -4.034   1.463  -2.824  0.00  0.00    +0.015 A 
ATOM     32  C   UNL     1      -3.730   1.790  -4.128  0.00  0.00    +0.046 A 
BRANCH  27  33
ATOM     33  O   UNL     1      -4.425   2.119  -6.379  0.00  0.00    -0.492 OA
BRANCH  33  35
ATOM     34  C   UNL     1      -2.920   2.792  -8.145  0.00  0.00    +0.048 C 
ATOM     35  C   UNL     1      -3.065   2.452  -6.661  0.00  0.00    +0.225 C 
ENDBRANCH  33  35
ENDBRANCH  27  33
ENDBRANCH  20  30
ENDBRANCH  19  26
ENDBRANCH   1  19
TORSDOF 7
