REMARK  Name = ZINC47540288
REMARK  12 active torsions:
REMARK  status: ('A' for Active; 'I' for Inactive)
REMARK    1  A    between atoms: C_1  and  C_2
REMARK    2  A    between atoms: C_2  and  O_3
REMARK    3  A    between atoms: O_3  and  C_4
REMARK    4  A    between atoms: C_4  and  C_6
REMARK    5  A    between atoms: C_7  and  C_13
REMARK    6  A    between atoms: C_13  and  N_14
REMARK    7  A    between atoms: C_17  and  N_20
REMARK    8  A    between atoms: C_21  and  O_23
REMARK    9  A    between atoms: O_23  and  C_24
REMARK   10  A    between atoms: C_24  and  C_25
REMARK   11  A    between atoms: C_24  and  C_26
REMARK   12  A    between atoms: C_24  and  C_27
REMARK                            x       y       z     vdW  Elec       q    Type
REMARK                         _______ _______ _______ _____ _____    ______ ____
ROOT
ATOM      1  N   UNL     1       0.182  -5.539  -2.102  0.00  0.00    +0.383 N 
ATOM      2  C   UNL     1      -1.011  -4.808  -2.544  0.00  0.00    -0.077 C 
ATOM      3  C   UNL     1      -1.991  -5.777  -3.208  0.00  0.00    +0.004 C 
ATOM      4  C   UNL     1      -2.397  -6.855  -2.199  0.00  0.00    +0.073 C 
ATOM      5  C   UNL     1      -1.138  -7.562  -1.689  0.00  0.00    +0.004 C 
ATOM      6  C   UNL     1      -0.189  -6.526  -1.081  0.00  0.00    -0.077 C 
ATOM      7  H   UNL     1       0.596  -6.012  -2.891  0.00  0.00    -0.081 HD
ENDROOT
BRANCH   4   8
ATOM      8  N   UNL     1      -3.276  -7.830  -2.850  0.00  0.00    -0.278 N 
ATOM      9  C   UNL     1      -4.145  -8.550  -2.114  0.00  0.00    +0.401 C 
ATOM     10  O   UNL     1      -4.200  -8.392  -0.911  0.00  0.00    -0.226 OA
ATOM     11  H   UNL     1      -3.232  -7.957  -3.811  0.00  0.00    +0.152 HD
BRANCH   9  12
ATOM     12  O   UNL     1      -4.953  -9.446  -2.712  0.00  0.00    -0.445 OA
BRANCH  12  13
ATOM     13  C   UNL     1      -5.849 -10.174  -1.871  0.00  0.00    +0.107 C 
ATOM     14  C   UNL     1      -6.781  -9.197  -1.151  0.00  0.00    +0.055 C 
ATOM     15  C   UNL     1      -6.679 -11.137  -2.723  0.00  0.00    +0.055 C 
ATOM     16  C   UNL     1      -5.048 -10.969  -0.839  0.00  0.00    +0.055 C 
ENDBRANCH  12  13
ENDBRANCH   9  12
ENDBRANCH   4   8
BRANCH   1  17
ATOM     17  C   UNL     1       1.153  -4.593  -1.536  0.00  0.00    -0.026 C 
BRANCH  17  19
ATOM     18  C   UNL     1       1.350  -2.336  -2.518  0.00  0.00    +0.069 C 
ATOM     19  C   UNL     1       1.628  -3.654  -2.615  0.00  0.00    +0.007 C 
ATOM     20  N   UNL     1       2.332  -4.150  -3.675  0.00  0.00    -0.274 N 
ATOM     21  C   UNL     1       2.794  -3.394  -4.679  0.00  0.00    +0.304 C 
ATOM     22  O   UNL     1       3.411  -3.927  -5.580  0.00  0.00    -0.253 OA
ATOM     23  N   UNL     1       2.596  -2.062  -4.722  0.00  0.00    -0.295 N 
ATOM     24  C   UNL     1       1.841  -1.429  -3.628  0.00  0.00    +0.149 C 
ATOM     25  H   UNL     1       2.507  -5.104  -3.702  0.00  0.00    +0.156 HD
ATOM     26  H   UNL     1       2.940  -1.533  -5.459  0.00  0.00    +0.151 HD
BRANCH  18  27
ATOM     27  C   UNL     1       0.620  -1.821  -1.421  0.00  0.00    +0.338 C 
ATOM     28  O   UNL     1      -0.561  -1.559  -1.546  0.00  0.00    -0.245 OA
BRANCH  27  29
ATOM     29  O   UNL     1       1.235  -1.620  -0.237  0.00  0.00    -0.462 OA
BRANCH  29  31
ATOM     30  C   UNL     1       1.300  -0.938   2.081  0.00  0.00    +0.048 C 
ATOM     31  C   UNL     1       0.437  -1.097   0.827  0.00  0.00    +0.229 C 
ENDBRANCH  29  31
ENDBRANCH  27  29
ENDBRANCH  18  27
ENDBRANCH  17  19
ENDBRANCH   1  17
TORSDOF 8
