REMARK  Name = ZINC06864284
REMARK  9 active torsions:
REMARK  status: ('A' for Active; 'I' for Inactive)
REMARK    1  A    between atoms: C_4  and  C_7
REMARK    2  A    between atoms: C_7  and  C_8
REMARK    3  A    between atoms: C_11  and  O_29
REMARK    4  A    between atoms: C_12  and  C_14
REMARK    5  A    between atoms: N_15  and  C_16
REMARK    6  A    between atoms: C_16  and  C_17
REMARK    7  A    between atoms: C_17  and  N_18
REMARK    8  A    between atoms: N_18  and  C_19
REMARK    9  A    between atoms: C_22  and  N_26
REMARK                            x       y       z     vdW  Elec       q    Type
REMARK                         _______ _______ _______ _____ _____    ______ ____
ROOT
ATOM      1  C   UNL     1      -5.058   2.437  -4.019  0.00  0.00    +0.090 C 
ATOM      2  N   UNL     1      -5.445   2.657  -5.234  0.00  0.00    -0.388 N 
ATOM      3  H   UNL     1      -5.144   3.581  -5.749  0.00  0.00    +0.159 HD
ENDROOT
BRANCH   1   8
ATOM      4  C   UNL     1      -3.005   4.121  -1.368  0.00  0.00    -0.042 A 
ATOM      5  C   UNL     1      -2.630   5.287  -2.014  0.00  0.00    +0.007 A 
ATOM      6  C   UNL     1      -3.034   5.528  -3.313  0.00  0.00    +0.046 A 
ATOM      7  C   UNL     1      -3.828   4.605  -3.976  0.00  0.00    +0.125 A 
ATOM      8  C   UNL     1      -4.214   3.426  -3.324  0.00  0.00    +0.032 A 
ATOM      9  C   UNL     1      -3.795   3.193  -2.012  0.00  0.00    +0.017 A 
BRANCH   7  10
ATOM     10  O   UNL     1      -4.230   4.842  -5.250  0.00  0.00    -0.506 OA
ATOM     11  H   UNL     1      -4.860   4.109  -5.774  0.00  0.00    +0.292 HD
ENDBRANCH   7  10
BRANCH   4  12
ATOM     12  C   UNL     1      -2.553   3.869   0.047  0.00  0.00    +0.070 C 
BRANCH  12  16
ATOM     13  C   UNL     1       1.175   1.783   0.000  0.00  0.00    +0.000 A 
ATOM     14  C   UNL     1      -0.013   1.076   0.008  0.00  0.00    +0.000 A 
ATOM     15  C   UNL     1      -1.219   1.751   0.017  0.00  0.00    +0.004 A 
ATOM     16  C   UNL     1      -1.238   3.133   0.030  0.00  0.00    -0.043 A 
ATOM     17  C   UNL     1      -0.050   3.840   0.022  0.00  0.00    +0.004 A 
ATOM     18  C   UNL     1       1.156   3.165   0.008  0.00  0.00    +0.000 A 
ENDBRANCH  12  16
ENDBRANCH   4  12
ENDBRANCH   1   8
BRANCH   2  19
ATOM     19  C   UNL     1      -6.284   1.674  -5.925  0.00  0.00    +0.131 C 
BRANCH  19  20
ATOM     20  C   UNL     1      -7.657   2.287  -6.211  0.00  0.00    +0.122 C 
BRANCH  20  21
ATOM     21  N   UNL     1      -8.495   1.304  -6.902  0.00  0.00    -0.341 N 
ATOM     22  H   UNL     1      -8.097   0.305  -7.131  0.00  0.00    +0.146 HD
BRANCH  21  23
ATOM     23  C   UNL     1      -9.802   1.636  -7.269  0.00  0.00    +0.046 A 
ATOM     24  C   UNL     1     -10.307   2.897  -6.981  0.00  0.00    +0.026 A 
ATOM     25  C   UNL     1     -11.599   3.223  -7.346  0.00  0.00    +0.034 A 
ATOM     26  C   UNL     1     -12.390   2.294  -7.998  0.00  0.00    +0.128 A 
ATOM     27  C   UNL     1     -11.891   1.037  -8.287  0.00  0.00    +0.054 A 
ATOM     28  C   UNL     1     -10.597   0.707  -7.930  0.00  0.00    +0.064 A 
ATOM     29 CL   UNL     1      -9.969  -0.868  -8.300  0.00  0.00    -0.082 Cl
BRANCH  26  30
ATOM     30  N   UNL     1     -13.774   2.647  -8.387  0.00  0.00    +0.056 N 
ATOM     31  O   UNL     1     -14.214   3.754  -8.134  0.00  0.00    -0.126 OA
ATOM     32  O   UNL     1     -14.472   1.831  -8.961  0.00  0.00    -0.126 OA
ENDBRANCH  26  30
ENDBRANCH  21  23
ENDBRANCH  20  21
ENDBRANCH  19  20
ENDBRANCH   2  19
TORSDOF 9
