REMARK  Name = ZINC16932509
REMARK  8 active torsions:
REMARK  status: ('A' for Active; 'I' for Inactive)
REMARK    1  A    between atoms: C_1  and  C_2
REMARK    2  A    between atoms: C_5  and  N_9
REMARK    3  A    between atoms: C_6  and  O_8
REMARK    4  A    between atoms: N_11  and  C_25
REMARK    5  A    between atoms: C_15  and  C_16
REMARK    6  A    between atoms: C_20  and  O_22
REMARK    7  A    between atoms: O_22  and  C_23
REMARK    8  A    between atoms: C_25  and  C_26
REMARK                            x       y       z     vdW  Elec       q    Type
REMARK                         _______ _______ _______ _____ _____    ______ ____
ROOT
ATOM      1  N   UNL     1      -2.347   3.468  -1.968  0.00  0.00    -0.222 NA
ATOM      2  C   UNL     1      -1.267   2.780  -1.676  0.00  0.00    +0.169 C 
ATOM      3  N   UNL     1      -1.175   1.477  -1.233  0.00  0.00    -0.242 N 
ATOM      4  C   UNL     1       0.003   0.934  -0.979  0.00  0.00    +0.259 C 
ATOM      5  O   UNL     1       0.104  -0.212  -0.584  0.00  0.00    -0.269 OA
ATOM      6  C   UNL     1       1.193   1.781  -1.203  0.00  0.00    +0.078 C 
ATOM      7  C   UNL     1       2.505   1.484  -1.031  0.00  0.00    +0.028 C 
ATOM      8  S   UNL     1       0.438   3.301  -1.761  0.00  0.00    -0.049 S 
ENDROOT
BRANCH   1  13
ATOM      9  C   UNL     1      -1.929   8.938  -3.316  0.00  0.00    +0.044 C 
ATOM     10  C   UNL     1      -2.042   7.478  -2.958  0.00  0.00    -0.047 A 
ATOM     11  C   UNL     1      -1.349   6.981  -1.869  0.00  0.00    +0.005 A 
ATOM     12  C   UNL     1      -1.450   5.647  -1.531  0.00  0.00    +0.032 A 
ATOM     13  C   UNL     1      -2.246   4.794  -2.296  0.00  0.00    +0.108 A 
ATOM     14  C   UNL     1      -2.946   5.302  -3.398  0.00  0.00    +0.142 A 
ATOM     15  C   UNL     1      -2.838   6.643  -3.721  0.00  0.00    +0.051 A 
BRANCH  14  16
ATOM     16  O   UNL     1      -3.728   4.480  -4.147  0.00  0.00    -0.505 OA
ATOM     17  H   UNL     1      -4.644   4.423  -3.843  0.00  0.00    +0.292 HD
ENDBRANCH  14  16
ENDBRANCH   1  13
BRANCH   7  18
ATOM     18  C   UNL     1       3.538   2.402  -1.534  0.00  0.00    -0.020 A 
ATOM     19  C   UNL     1       4.880   2.206  -1.188  0.00  0.00    +0.008 A 
ATOM     20  C   UNL     1       5.846   3.066  -1.667  0.00  0.00    +0.004 A 
ATOM     21  C   UNL     1       5.492   4.129  -2.478  0.00  0.00    +0.045 A 
ATOM     22  C   UNL     1       4.163   4.335  -2.823  0.00  0.00    +0.121 A 
ATOM     23  C   UNL     1       3.183   3.477  -2.354  0.00  0.00    +0.053 A 
BRANCH  22  24
ATOM     24  O   UNL     1       3.823   5.382  -3.621  0.00  0.00    -0.495 OA
ATOM     25  C   UNL     1       4.884   6.228  -4.069  0.00  0.00    +0.277 C 
ENDBRANCH  22  24
ENDBRANCH   7  18
BRANCH   3  26
ATOM     26  C   UNL     1      -2.394   0.689  -1.038  0.00  0.00    +0.142 C 
BRANCH  26  27
ATOM     27  C   UNL     1      -2.893   0.876   0.372  0.00  0.00    -0.015 C 
ATOM     28  C   UNL     1      -4.120   1.281   0.585  0.00  0.00    +0.005 C 
ENDBRANCH  26  27
ENDBRANCH   3  26
TORSDOF 6
