REMARK  Name = ZINC43757814
REMARK  12 active torsions:
REMARK  status: ('A' for Active; 'I' for Inactive)
REMARK    1  A    between atoms: C_1  and  C_2
REMARK    2  A    between atoms: C_2  and  C_3
REMARK    3  A    between atoms: C_2  and  C_4
REMARK    4  A    between atoms: C_8  and  C_40
REMARK    5  A    between atoms: C_17  and  C_39
REMARK    6  A    between atoms: C_20  and  O_35
REMARK    7  A    between atoms: C_22  and  C_33
REMARK    8  A    between atoms: C_22  and  C_34
REMARK    9  A    between atoms: C_27  and  C_32
REMARK   10  A    between atoms: C_28  and  C_31
REMARK   11  A    between atoms: O_35  and  C_36
REMARK   12  A    between atoms: C_36  and  C_38
REMARK                            x       y       z     vdW  Elec       q    Type
REMARK                         _______ _______ _______ _____ _____    ______ ____
ROOT
ATOM      1  C   UNL     1      -2.920  -3.147  -0.185  0.00  0.00    -0.004 C 
ATOM      2  C   UNL     1      -2.373  -4.569   0.065  0.00  0.00    +0.004 C 
ATOM      3  C   UNL     1      -2.554  -5.325  -1.270  0.00  0.00    +0.007 C 
ATOM      4  C   UNL     1      -3.790  -4.631  -1.877  0.00  0.00    -0.029 C 
ATOM      5  C   UNL     1      -3.576  -3.140  -1.584  0.00  0.00    +0.002 C 
ATOM      6  C   UNL     1      -2.725  -2.408  -2.604  0.00  0.00    -0.001 C 
ATOM      7  C   UNL     1      -3.000  -0.903  -2.492  0.00  0.00    +0.005 C 
ATOM      8  C   UNL     1      -2.080  -0.138  -3.437  0.00  0.00    +0.005 C 
ATOM      9  C   UNL     1      -1.158  -1.097  -4.200  0.00  0.00    +0.002 C 
ATOM     10  C   UNL     1      -0.230  -0.234  -5.067  0.00  0.00    -0.025 C 
ATOM     11  C   UNL     1       0.302   0.926  -4.200  0.00  0.00    +0.011 C 
ATOM     12  C   UNL     1       1.228   1.793  -5.047  0.00  0.00    +0.046 C 
ATOM     13  C   UNL     1       0.469   2.419  -6.207  0.00  0.00    +0.182 C 
ATOM     14  C   UNL     1      -0.275   1.391  -7.057  0.00  0.00    +0.005 C 
ATOM     15  C   UNL     1      -1.012   0.370  -6.220  0.00  0.00    +0.004 C 
ATOM     16  C   UNL     1      -1.655  -0.734  -7.058  0.00  0.00    +0.005 C 
ATOM     17  C   UNL     1      -2.689  -1.438  -6.159  0.00  0.00    +0.008 C 
ATOM     18  C   UNL     1      -1.983  -2.112  -4.982  0.00  0.00    -0.023 C 
ATOM     19  C   UNL     1      -3.002  -2.806  -4.059  0.00  0.00    -0.023 C 
ATOM     20  C   UNL     1      -2.881  -4.326  -4.189  0.00  0.00    +0.008 C 
ATOM     21  C   UNL     1      -3.966  -4.987  -3.331  0.00  0.00    +0.007 C 
ATOM     22  C   UNL     1      -4.428  -2.400  -4.447  0.00  0.00    +0.012 C 
ATOM     23  C   UNL     1      -1.070  -3.212  -5.554  0.00  0.00    +0.012 C 
ATOM     24  C   UNL     1      -1.322   2.186  -7.878  0.00  0.00    +0.015 C 
ATOM     25  C   UNL     1       0.684   0.751  -8.062  0.00  0.00    +0.015 C 
ATOM     26  C   UNL     1       0.985  -1.042  -5.519  0.00  0.00    +0.012 C 
ATOM     27  C   UNL     1      -5.035  -5.111  -1.111  0.00  0.00    +0.011 C 
ENDROOT
BRANCH   1  29
ATOM     28  C   UNL     1      -1.396  -2.109   1.490  0.00  0.00    +0.007 C 
ATOM     29  C   UNL     1      -1.789  -2.149   0.012  0.00  0.00    -0.014 C 
ATOM     30  C   UNL     1      -0.582  -2.575  -0.826  0.00  0.00    +0.007 C 
ENDBRANCH   1  29
BRANCH  13  31
ATOM     31  O   UNL     1      -0.470   3.375  -5.697  0.00  0.00    -0.461 OA
BRANCH  31  32
ATOM     32  C   UNL     1      -0.040   4.639  -5.560  0.00  0.00    +0.304 C 
ATOM     33  O   UNL     1       1.094   4.927  -5.862  0.00  0.00    -0.251 OA
ATOM     34  C   UNL     1      -0.971   5.699  -5.030  0.00  0.00    +0.136 C 
ENDBRANCH  31  32
ENDBRANCH  13  31
TORSDOF 3
