REMARK  Name = ZINC37370663
REMARK  4 active torsions:
REMARK  status: ('A' for Active; 'I' for Inactive)
REMARK    1  A    between atoms: C_1  and  C_2
REMARK    2  A    between atoms: C_5  and  C_7
REMARK    3  A    between atoms: C_7  and  C_9
REMARK    4  A    between atoms: C_20  and  C_22
REMARK                            x       y       z     vdW  Elec       q    Type
REMARK                         _______ _______ _______ _____ _____    ______ ____
ROOT
ATOM      1  C   UNL     1       0.152  -2.422   3.163  0.00  0.00    +0.033 A 
ATOM      2  C   UNL     1       0.855  -1.594   4.043  0.00  0.00    +0.036 A 
ATOM      3  C   UNL     1       1.206  -2.062   5.300  0.00  0.00    +0.040 A 
ATOM      4  C   UNL     1       0.862  -3.349   5.688  0.00  0.00    -0.025 A 
ATOM      5  C   UNL     1       0.168  -4.171   4.814  0.00  0.00    +0.021 A 
ATOM      6  C   UNL     1      -0.193  -3.717   3.562  0.00  0.00    +0.029 A 
ATOM      7 BR   UNL     1      -1.148  -4.848   2.385  0.00  0.00    -0.050 Br
ATOM      8  C   UNL     1       1.222  -3.880   7.051  0.00  0.00    +0.038 C 
ATOM      9  C   UNL     1       2.374  -3.077   7.653  0.00  0.00    +0.024 C 
ATOM     10  C   UNL     1       2.028  -1.584   7.583  0.00  0.00    +0.114 C 
ATOM     11  N   UNL     1       1.915  -1.215   6.165  0.00  0.00    -0.271 N 
ATOM     12  C   UNL     1       2.483  -0.083   5.705  0.00  0.00    +0.217 C 
ATOM     13  O   UNL     1       2.485   0.153   4.515  0.00  0.00    -0.276 OA
ATOM     14  C   UNL     1       3.116   0.888   6.667  0.00  0.00    +0.109 C 
ENDROOT
BRANCH   1  15
ATOM     15  C   UNL     1      -0.226  -1.933   1.828  0.00  0.00    +0.168 C 
ATOM     16  O   UNL     1      -0.839  -2.653   1.069  0.00  0.00    -0.292 OA
BRANCH  15  20
ATOM     17  C   UNL     1      -0.953   1.687   0.573  0.00  0.00    +0.008 C 
ATOM     18  C   UNL     1      -0.778   0.175   0.415  0.00  0.00    -0.003 C 
ATOM     19  C   UNL     1       0.589  -0.334  -0.050  0.00  0.00    +0.015 C 
ATOM     20  C   UNL     1       0.149  -0.536   1.403  0.00  0.00    +0.063 C 
ENDBRANCH  15  20
ENDBRANCH   1  15
TORSDOF 2
