REMARK  Name = ZINC67504489
REMARK  4 active torsions:
REMARK  status: ('A' for Active; 'I' for Inactive)
REMARK    1  A    between atoms: C_3  and  N_22
REMARK    2  A    between atoms: C_6  and  C_7
REMARK    3  A    between atoms: C_7  and  N_8
REMARK    4  A    between atoms: N_8  and  C_9
REMARK                            x       y       z     vdW  Elec       q    Type
REMARK                         _______ _______ _______ _____ _____    ______ ____
ROOT
ATOM      1  N   UNL     1      -1.848  -1.054  -1.313  0.00  0.00    +0.386 N 
ATOM      2  H   UNL     1      -1.925  -0.231  -1.891  0.00  0.00    -0.085 HD
ATOM      3  H   UNL     1      -1.212  -1.709  -1.743  0.00  0.00    -0.085 HD
ENDROOT
BRANCH   1   4
ATOM      4  C   UNL     1      -3.171  -1.678  -1.172  0.00  0.00    -0.039 C 
ATOM      5  C   UNL     1      -4.157  -0.649  -0.625  0.00  0.00    -0.011 C 
ATOM      6  C   UNL     1      -5.566  -1.248  -0.700  0.00  0.00    +0.005 C 
ATOM      7  C   UNL     1      -5.963  -1.352  -2.171  0.00  0.00    +0.053 C 
ATOM      8  C   UNL     1      -4.887  -2.047  -2.965  0.00  0.00    +0.021 A 
ATOM      9  C   UNL     1      -3.625  -2.188  -2.515  0.00  0.00    -0.042 A 
ATOM     10  C   UNL     1      -2.667  -2.839  -3.318  0.00  0.00    +0.009 A 
ATOM     11  C   UNL     1      -3.022  -3.324  -4.539  0.00  0.00    +0.070 A 
ATOM     12  C   UNL     1      -4.348  -3.167  -4.976  0.00  0.00    +0.249 A 
ATOM     13  O   UNL     1      -4.690  -3.597  -6.066  0.00  0.00    -0.268 OA
ATOM     14  N   UNL     1      -5.238  -2.543  -4.189  0.00  0.00    -0.326 N 
ATOM     15  H   UNL     1      -6.152  -2.440  -4.498  0.00  0.00    +0.169 HD
ENDBRANCH   1   4
BRANCH   1  16
ATOM     16  C   UNL     1      -1.341  -0.677   0.012  0.00  0.00    -0.046 C 
BRANCH  16  22
ATOM     17  C   UNL     1      -0.042   1.443  -0.277  0.00  0.00    +0.003 A 
ATOM     18  C   UNL     1       1.149   2.127  -0.417  0.00  0.00    +0.023 A 
ATOM     19  C   UNL     1       2.352   1.431  -0.422  0.00  0.00    +0.030 A 
ATOM     20  C   UNL     1       2.351   0.049  -0.285  0.00  0.00    +0.023 A 
ATOM     21  C   UNL     1       1.156  -0.629  -0.145  0.00  0.00    +0.003 A 
ATOM     22  C   UNL     1      -0.039   0.066  -0.141  0.00  0.00    -0.064 A 
BRANCH  19  23
ATOM     23  N   UNL     1       3.558   2.120  -0.564  0.00  0.00    -0.330 N 
ATOM     24  C   UNL     1       4.841   1.414  -0.449  0.00  0.00    +0.105 C 
ATOM     25  C   UNL     1       5.677   1.702  -1.700  0.00  0.00    +0.019 C 
ATOM     26  C   UNL     1       5.807   3.216  -1.883  0.00  0.00    +0.003 C 
ATOM     27  C   UNL     1       4.418   3.829  -2.078  0.00  0.00    +0.019 C 
ATOM     28  C   UNL     1       3.568   3.564  -0.837  0.00  0.00    +0.105 C 
ENDBRANCH  19  23
ENDBRANCH  16  22
ENDBRANCH   1  16
TORSDOF 4
