REMARK  Name = ZINC41718390
REMARK  6 active torsions:
REMARK  status: ('A' for Active; 'I' for Inactive)
REMARK    1  A    between atoms: C_1  and  C_2
REMARK    2  A    between atoms: C_2  and  C_4
REMARK    3  A    between atoms: C_2  and  N_11
REMARK    4  A    between atoms: C_17  and  C_22
REMARK    5  A    between atoms: C_17  and  C_23
REMARK    6  A    between atoms: C_19  and  O_21
REMARK                            x       y       z     vdW  Elec       q    Type
REMARK                         _______ _______ _______ _____ _____    ______ ____
ROOT
ATOM      1  N   UNL     1       0.711  -0.489   1.189  0.00  0.00    -0.343 N 
ATOM      2  C   UNL     1       2.008  -0.211   1.511  0.00  0.00    +0.087 A 
ATOM      3  C   UNL     1       2.300  -0.836   2.672  0.00  0.00    +0.025 A 
ATOM      4  C   UNL     1       1.145  -1.521   3.078  0.00  0.00    +0.002 A 
ATOM      5  C   UNL     1       0.184  -1.286   2.155  0.00  0.00    +0.025 A 
ATOM      6  C   UNL     1      -1.216  -1.842   2.234  0.00  0.00    +0.060 C 
ATOM      7  C   UNL     1      -1.467  -2.318   3.670  0.00  0.00    -0.027 C 
ATOM      8  C   UNL     1      -0.311  -3.216   4.121  0.00  0.00    +0.043 C 
ATOM      9  C   UNL     1       0.953  -2.372   4.307  0.00  0.00    +0.147 C 
ATOM     10  C   UNL     1      -2.776  -3.109   3.723  0.00  0.00    +0.011 C 
ATOM     11  C   UNL     1      -1.565  -1.107   4.600  0.00  0.00    +0.011 C 
ENDROOT
BRANCH   1  13
ATOM     12  C   UNL     1      -0.019   1.526   0.010  0.00  0.00    +0.036 C 
ATOM     13  C   UNL     1       0.002  -0.004   0.002  0.00  0.00    +0.114 C 
BRANCH  13  14
ATOM     14  C   UNL     1       0.707  -0.490  -1.238  0.00  0.00    -0.024 A 
ATOM     15  C   UNL     1       2.026  -0.141  -1.464  0.00  0.00    +0.006 A 
ATOM     16  C   UNL     1       2.674  -0.587  -2.601  0.00  0.00    +0.001 A 
ATOM     17  C   UNL     1       2.003  -1.381  -3.513  0.00  0.00    +0.015 A 
ATOM     18  C   UNL     1       0.684  -1.730  -3.286  0.00  0.00    +0.018 A 
ATOM     19  C   UNL     1       0.038  -1.289  -2.145  0.00  0.00    +0.021 A 
ATOM     20 BR   UNL     1      -0.234  -2.816  -4.533  0.00  0.00    -0.050 Br
ENDBRANCH  13  14
ENDBRANCH   1  13
BRANCH   9  21
ATOM     21  O   UNL     1       2.089  -3.221   4.487  0.00  0.00    -0.387 OA
ATOM     22  H   UNL     1       2.923  -2.744   4.600  0.00  0.00    +0.210 HD
ENDBRANCH   9  21
TORSDOF 3
