REMARK  Name = ZINC39684653
REMARK  8 active torsions:
REMARK  status: ('A' for Active; 'I' for Inactive)
REMARK    1  A    between atoms: C_1  and  C_2
REMARK    2  A    between atoms: C_2  and  C_4
REMARK    3  A    between atoms: C_2  and  N_8
REMARK    4  A    between atoms: C_4  and  C_5
REMARK    5  A    between atoms: C_4  and  C_6
REMARK    6  A    between atoms: C_4  and  C_7
REMARK    7  A    between atoms: C_9  and  C_11
REMARK    8  A    between atoms: C_22  and  C_24
REMARK                            x       y       z     vdW  Elec       q    Type
REMARK                         _______ _______ _______ _____ _____    ______ ____
ROOT
ATOM      1  C   UNL     1       0.279  -0.579   2.985  0.00  0.00    +0.100 C 
ATOM      2  C   UNL     1       1.585  -0.063   3.628  0.00  0.00    +0.121 C 
ATOM      3  N   UNL     1       1.138   0.881   4.679  0.00  0.00    -0.300 N 
ATOM      4  C   UNL     1      -0.059   0.235   5.269  0.00  0.00    +0.115 C 
ATOM      5  C   UNL     1      -0.797  -0.385   4.066  0.00  0.00    -0.004 C 
ATOM      6  C   UNL     1      -1.405  -1.729   4.454  0.00  0.00    -0.010 C 
ATOM      7  C   UNL     1      -2.513  -1.505   5.487  0.00  0.00    -0.082 C 
ATOM      8  N   UNL     1      -3.542  -0.625   4.920  0.00  0.00    +0.379 N 
ATOM      9  C   UNL     1      -2.971   0.697   4.636  0.00  0.00    -0.082 C 
ATOM     10  C   UNL     1      -1.882   0.565   3.567  0.00  0.00    -0.010 C 
ATOM     11  C   UNL     1       1.694   2.059   5.022  0.00  0.00    +0.219 C 
ATOM     12  O   UNL     1       2.634   2.493   4.390  0.00  0.00    -0.275 OA
ATOM     13  H   UNL     1      -3.894  -1.029   4.065  0.00  0.00    -0.086 HD
ATOM     14  H   UNL     1      -4.300  -0.528   5.580  0.00  0.00    -0.086 HD
ENDROOT
BRANCH  11  15
ATOM     15  C   UNL     1       1.148   2.839   6.191  0.00  0.00    +0.079 C 
ATOM     16  C   UNL     1       1.476   4.327   6.016  0.00  0.00    +0.017 C 
ATOM     17  C   UNL     1       0.760   5.113   7.117  0.00  0.00    +0.027 C 
ATOM     18  C   UNL     1       1.022   4.484   8.455  0.00  0.00    -0.031 C 
ATOM     19  C   UNL     1       1.470   3.280   8.615  0.00  0.00    -0.030 C 
ATOM     20  C   UNL     1       1.795   2.345   7.486  0.00  0.00    +0.039 C 
ENDBRANCH  11  15
BRANCH   1  22
ATOM     21  N   UNL     1      -0.738  -0.336   0.743  0.00  0.00    -0.312 N 
ATOM     22  C   UNL     1      -0.057   0.231   1.758  0.00  0.00    +0.218 C 
ATOM     23  O   UNL     1       0.285   1.392   1.686  0.00  0.00    -0.275 OA
ATOM     24  H   UNL     1      -1.012  -1.265   0.801  0.00  0.00    +0.149 HD
BRANCH  21  26
ATOM     25  C   UNL     1       0.118   0.422  -1.419  0.00  0.00    +0.028 C 
ATOM     26  C   UNL     1      -1.064   0.451  -0.449  0.00  0.00    +0.075 C 
BRANCH  26  27
ATOM     27  C   UNL     1      -2.298  -0.144  -1.131  0.00  0.00    -0.020 C 
ATOM     28  C   UNL     1      -2.008  -1.590  -1.538  0.00  0.00    +0.012 C 
ATOM     29  C   UNL     1      -3.481  -0.115  -0.161  0.00  0.00    +0.012 C 
ATOM     30  C   UNL     1      -2.639   0.678  -2.376  0.00  0.00    +0.012 C 
ENDBRANCH  26  27
ENDBRANCH  21  26
ENDBRANCH   1  22
TORSDOF 4
