REMARK  Name = ZINC39931388
REMARK  12 active torsions:
REMARK  status: ('A' for Active; 'I' for Inactive)
REMARK    1  A    between atoms: C_1  and  N_2
REMARK    2  A    between atoms: N_2  and  C_3
REMARK    3  A    between atoms: N_2  and  S_4
REMARK    4  A    between atoms: S_4  and  C_7
REMARK    5  A    between atoms: C_14  and  S_27
REMARK    6  A    between atoms: C_16  and  S_21
REMARK    7  A    between atoms: S_21  and  N_24
REMARK    8  A    between atoms: N_24  and  C_25
REMARK    9  A    between atoms: N_24  and  C_26
REMARK   10  A    between atoms: S_27  and  N_30
REMARK   11  A    between atoms: N_30  and  C_31
REMARK   12  A    between atoms: N_30  and  C_32
REMARK                            x       y       z     vdW  Elec       q    Type
REMARK                         _______ _______ _______ _____ _____    ______ ____
ROOT
ATOM      1  C   UNL     1       1.682  -1.059  -1.905  0.00  0.00    +0.106 A 
ATOM      2  C   UNL     1       2.314  -0.088  -2.686  0.00  0.00    +0.030 A 
ATOM      3  C   UNL     1       3.607  -0.215  -3.071  0.00  0.00    +0.028 A 
ATOM      4  C   UNL     1       4.354  -1.354  -2.682  0.00  0.00    +0.044 A 
ATOM      5  N   UNL     1       5.597  -1.725  -2.959  0.00  0.00    -0.372 N 
ATOM      6  C   UNL     1       5.901  -2.900  -2.173  0.00  0.00    +0.160 C 
ATOM      7  C   UNL     1       6.601  -4.027  -2.853  0.00  0.00    +0.111 C 
ATOM      8  C   UNL     1       6.326  -5.288  -2.482  0.00  0.00    +0.055 C 
ATOM      9  C   UNL     1       5.340  -5.614  -1.528  0.00  0.00    +0.107 C 
ATOM     10  C   UNL     1       4.399  -4.690  -1.149  0.00  0.00    +0.035 C 
ATOM     11  C   UNL     1       4.585  -3.405  -1.628  0.00  0.00    -0.009 C 
ATOM     12  C   UNL     1       3.678  -2.385  -1.867  0.00  0.00    +0.005 A 
ATOM     13  C   UNL     1       2.333  -2.177  -1.494  0.00  0.00    +0.038 A 
ATOM     14  H   UNL     1       6.197  -1.286  -3.582  0.00  0.00    +0.161 HD
ENDROOT
BRANCH   1  15
ATOM     15  S   UNL     1      -0.000  -0.824  -1.437  0.00  0.00    +0.060 S 
ATOM     16  O   UNL     1      -0.531  -2.115  -1.167  0.00  0.00    -0.153 OA
ATOM     17  O   UNL     1      -0.572   0.049  -2.401  0.00  0.00    -0.153 OA
BRANCH  15  19
ATOM     18  C   UNL     1      -0.018   1.461   0.010  0.00  0.00    +0.131 C 
ATOM     19  N   UNL     1       0.002  -0.004   0.002  0.00  0.00    -0.183 NA
ATOM     20  C   UNL     1       0.024  -0.743   1.267  0.00  0.00    +0.131 C 
ENDBRANCH  15  19
ENDBRANCH   1  15
BRANCH   9  21
ATOM     21  S   UNL     1       5.316  -7.226  -0.816  0.00  0.00    +0.060 S 
ATOM     22  O   UNL     1       4.112  -7.321  -0.068  0.00  0.00    -0.153 OA
ATOM     23  O   UNL     1       5.639  -8.136  -1.859  0.00  0.00    -0.153 OA
BRANCH  21  24
ATOM     24  N   UNL     1       6.559  -7.297   0.276  0.00  0.00    -0.183 NA
ATOM     25  C   UNL     1       6.330  -6.914   1.672  0.00  0.00    +0.131 C 
ATOM     26  C   UNL     1       7.886  -7.744  -0.153  0.00  0.00    +0.131 C 
ENDBRANCH  21  24
ENDBRANCH   9  21
BRANCH   7  27
ATOM     27  S   UNL     1       7.775  -3.708  -4.127  0.00  0.00    +0.059 S 
ATOM     28  O   UNL     1       8.100  -4.966  -4.704  0.00  0.00    -0.153 OA
ATOM     29  O   UNL     1       7.260  -2.629  -4.894  0.00  0.00    -0.153 OA
BRANCH  27  30
ATOM     30  N   UNL     1       9.153  -3.154  -3.395  0.00  0.00    -0.183 NA
ATOM     31  C   UNL     1      10.191  -4.099  -2.975  0.00  0.00    +0.131 C 
ATOM     32  C   UNL     1       9.335  -1.718  -3.168  0.00  0.00    +0.131 C 
ENDBRANCH  27  30
ENDBRANCH   7  27
TORSDOF 6
