REMARK  Name = ZINC43467882
REMARK  7 active torsions:
REMARK  status: ('A' for Active; 'I' for Inactive)
REMARK    1  A    between atoms: C_1  and  C_2
REMARK    2  A    between atoms: C_2  and  C_3
REMARK    3  A    between atoms: C_3  and  N_4
REMARK    4  A    between atoms: C_6  and  C_9
REMARK    5  A    between atoms: C_9  and  C_10
REMARK    6  A    between atoms: C_9  and  C_11
REMARK    7  A    between atoms: C_9  and  N_18
REMARK                            x       y       z     vdW  Elec       q    Type
REMARK                         _______ _______ _______ _____ _____    ______ ____
ROOT
ATOM      1  C   UNL     1      -2.248  -5.320   1.257  0.00  0.00    -0.019 C 
ATOM      2  C   UNL     1      -3.590  -5.577   0.568  0.00  0.00    -0.001 C 
ENDROOT
BRANCH   1   3
ATOM      3  C   UNL     1      -1.310  -6.465   0.973  0.00  0.00    -0.055 A 
ATOM      4  C   UNL     1      -0.734  -7.161   2.019  0.00  0.00    +0.003 A 
ATOM      5  C   UNL     1       0.127  -8.211   1.760  0.00  0.00    +0.015 A 
ATOM      6  C   UNL     1       0.411  -8.566   0.453  0.00  0.00    +0.018 A 
ATOM      7  C   UNL     1      -0.167  -7.869  -0.593  0.00  0.00    +0.015 A 
ATOM      8  C   UNL     1      -1.031  -6.822  -0.333  0.00  0.00    +0.003 A 
ATOM      9 BR   UNL     1       1.588 -10.002   0.097  0.00  0.00    -0.050 Br
ENDBRANCH   1   3
BRANCH   1  12
ATOM     10  N   UNL     1      -0.611  -2.124   0.625  0.00  0.00    -0.271 N 
ATOM     11  C   UNL     1      -0.982  -3.117   1.460  0.00  0.00    +0.110 A 
ATOM     12  C   UNL     1      -1.652  -4.040   0.732  0.00  0.00    -0.017 A 
ATOM     13  C   UNL     1      -1.692  -3.596  -0.594  0.00  0.00    +0.136 A 
ATOM     14  N   UNL     1      -1.074  -2.444  -0.658  0.00  0.00    -0.179 NA
BRANCH  10  15
ATOM     15  C   UNL     1       0.138  -0.920   0.995  0.00  0.00    +0.143 C 
BRANCH  15  17
ATOM     16  C   UNL     1       2.165   0.454   0.500  0.00  0.00    +0.005 C 
ATOM     17  C   UNL     1       1.383  -0.803   0.114  0.00  0.00    +0.020 C 
ENDBRANCH  15  17
ENDBRANCH  10  15
ENDBRANCH   1  12
BRANCH   1  18
ATOM     18  N   UNL     1      -2.457  -5.205   2.707  0.00  0.00    +0.387 N 
ATOM     19  H   UNL     1      -3.085  -4.439   2.896  0.00  0.00    -0.088 HD
ATOM     20  H   UNL     1      -2.856  -6.062   3.058  0.00  0.00    -0.088 HD
ATOM     21  H   UNL     1      -1.572  -5.035   3.161  0.00  0.00    -0.088 HD
ENDBRANCH   1  18
TORSDOF 5
