REMARK  Name = ZINC35453950
REMARK  4 active torsions:
REMARK  status: ('A' for Active; 'I' for Inactive)
REMARK    1  A    between atoms: C_1  and  C_2
REMARK    2  A    between atoms: C_13  and  S_24
REMARK    3  A    between atoms: C_14  and  N_18
REMARK    4  A    between atoms: S_24  and  N_27
REMARK                            x       y       z     vdW  Elec       q    Type
REMARK                         _______ _______ _______ _____ _____    ______ ____
ROOT
ATOM      1  C   UNL     1       1.743   1.940   0.333  0.00  0.00    +0.044 C 
ATOM      2  C   UNL     1       1.448   0.464   0.276  0.00  0.00    -0.048 A 
ATOM      3  C   UNL     1       1.336  -0.171  -0.947  0.00  0.00    +0.007 A 
ATOM      4  C   UNL     1       1.078  -1.528  -1.000  0.00  0.00    +0.048 A 
ATOM      5  C   UNL     1       0.924  -2.256   0.172  0.00  0.00    +0.150 A 
ATOM      6  C   UNL     1       1.016  -1.617   1.401  0.00  0.00    +0.077 A 
ATOM      7  C   UNL     1       1.296  -0.255   1.446  0.00  0.00    +0.030 A 
ATOM      8  N   UNL     1       0.803  -2.300   2.598  0.00  0.00    -0.278 N 
ATOM      9  C   UNL     1       1.212  -3.528   2.881  0.00  0.00    +0.252 C 
ATOM     10  O   UNL     1       0.954  -3.965   3.987  0.00  0.00    -0.270 OA
ATOM     11  C   UNL     1       1.950  -4.401   1.964  0.00  0.00    +0.081 A 
ATOM     12  C   UNL     1       2.973  -5.221   2.457  0.00  0.00    +0.047 A 
ATOM     13  C   UNL     1       3.645  -6.061   1.617  0.00  0.00    +0.127 A 
ATOM     14  C   UNL     1       3.318  -6.114   0.264  0.00  0.00    +0.060 A 
ATOM     15  C   UNL     1       2.314  -5.298  -0.243  0.00  0.00    +0.072 A 
ATOM     16  C   UNL     1       1.638  -4.430   0.598  0.00  0.00    +0.142 A 
ATOM     17  O   UNL     1       0.705  -3.592   0.089  0.00  0.00    -0.453 OA
ATOM     18  H   UNL     1       0.309  -1.831   3.288  0.00  0.00    +0.155 HD
ENDROOT
BRANCH  14  19
ATOM     19  N   UNL     1       3.998  -6.984  -0.581  0.00  0.00    -0.328 N 
ATOM     20  C   UNL     1       3.583  -8.389  -0.700  0.00  0.00    +0.105 C 
ATOM     21  C   UNL     1       3.357  -8.713  -2.180  0.00  0.00    +0.019 C 
ATOM     22  C   UNL     1       4.617  -8.360  -2.973  0.00  0.00    +0.003 C 
ATOM     23  C   UNL     1       4.901  -6.862  -2.844  0.00  0.00    +0.019 C 
ATOM     24  C   UNL     1       5.140  -6.515  -1.376  0.00  0.00    +0.105 C 
ENDBRANCH  14  19
BRANCH  13  25
ATOM     25  S   UNL     1       4.934  -7.084   2.248  0.00  0.00    +0.063 S 
ATOM     26  O   UNL     1       4.370  -8.374   2.442  0.00  0.00    -0.153 OA
ATOM     27  O   UNL     1       6.068  -6.865   1.420  0.00  0.00    -0.153 OA
BRANCH  25  28
ATOM     28  N   UNL     1       5.326  -6.507   3.750  0.00  0.00    -0.177 NA
ATOM     29  C   UNL     1       6.260  -5.383   3.900  0.00  0.00    +0.109 C 
ATOM     30  C   UNL     1       5.593  -4.298   4.751  0.00  0.00    +0.017 C 
ATOM     31  C   UNL     1       5.126  -4.909   6.075  0.00  0.00    +0.003 C 
ATOM     32  C   UNL     1       4.096  -6.006   5.797  0.00  0.00    +0.017 C 
ATOM     33  C   UNL     1       4.741  -7.106   4.958  0.00  0.00    +0.109 C 
ENDBRANCH  25  28
ENDBRANCH  13  25
TORSDOF 3
