REMARK  Name = ZINC36624744
REMARK  6 active torsions:
REMARK  status: ('A' for Active; 'I' for Inactive)
REMARK    1  A    between atoms: C_1  and  C_2
REMARK    2  A    between atoms: C_5  and  N_8
REMARK    3  A    between atoms: C_9  and  C_10
REMARK    4  A    between atoms: N_12  and  C_27
REMARK    5  A    between atoms: C_20  and  O_25
REMARK    6  A    between atoms: O_25  and  C_26
REMARK                            x       y       z     vdW  Elec       q    Type
REMARK                         _______ _______ _______ _____ _____    ______ ____
ROOT
ATOM      1  C   UNL     1       1.855  -4.044   1.570  0.00  0.00    +0.035 A 
ATOM      2  C   UNL     1       1.704  -2.701   1.744  0.00  0.00    +0.100 A 
ATOM      3  N   UNL     1       2.486  -1.985   2.589  0.00  0.00    -0.317 N 
ATOM      4  C   UNL     1       3.467  -2.550   3.318  0.00  0.00    +0.260 A 
ATOM      5  O   UNL     1       4.144  -1.868   4.064  0.00  0.00    -0.267 OA
ATOM      6  C   UNL     1       3.717  -3.994   3.207  0.00  0.00    +0.066 A 
ATOM      7  C   UNL     1       2.902  -4.758   2.330  0.00  0.00    +0.087 A 
ATOM      8  N   UNL     1       3.071  -6.059   2.187  0.00  0.00    -0.246 NA
ATOM      9  C   UNL     1       4.013  -6.715   2.868  0.00  0.00    +0.075 A 
ATOM     10  C   UNL     1       4.193  -8.100   2.716  0.00  0.00    +0.074 A 
ATOM     11  C   UNL     1       5.176  -8.738   3.437  0.00  0.00    +0.122 A 
ATOM     12  C   UNL     1       6.005  -8.039   4.321  0.00  0.00    +0.046 A 
ATOM     13  C   UNL     1       5.873  -6.699   4.505  0.00  0.00    +0.013 A 
ATOM     14  C   UNL     1       4.886  -5.993   3.796  0.00  0.00    +0.001 A 
ATOM     15  C   UNL     1       4.720  -4.608   3.944  0.00  0.00    +0.025 A 
ATOM     16  C   UNL     1       2.255  -0.544   2.715  0.00  0.00    +0.152 C 
ENDROOT
BRANCH   1  18
ATOM     17  N   UNL     1      -0.220  -4.334   0.395  0.00  0.00    -0.255 NA
ATOM     18  C   UNL     1       0.985  -4.774   0.643  0.00  0.00    +0.122 C 
BRANCH  17  23
ATOM     19  C   UNL     1      -2.399  -0.162   3.510  0.00  0.00    +0.044 C 
ATOM     20  C   UNL     1      -1.817  -1.276   2.679  0.00  0.00    -0.050 A 
ATOM     21  C   UNL     1      -1.766  -1.152   1.301  0.00  0.00    +0.005 A 
ATOM     22  C   UNL     1      -1.235  -2.168   0.534  0.00  0.00    +0.028 A 
ATOM     23  C   UNL     1      -0.748  -3.322   1.150  0.00  0.00    +0.064 A 
ATOM     24  C   UNL     1      -0.802  -3.440   2.541  0.00  0.00    +0.028 A 
ATOM     25  C   UNL     1      -1.331  -2.415   3.296  0.00  0.00    +0.005 A 
ENDBRANCH  17  23
ENDBRANCH   1  18
BRANCH  11  26
ATOM     26  O   UNL     1       5.346 -10.076   3.288  0.00  0.00    -0.495 OA
ATOM     27  C   UNL     1       6.381 -10.690   4.059  0.00  0.00    +0.277 C 
ENDBRANCH  11  26
TORSDOF 3
