REMARK  Name = ZINC63612473
REMARK  14 active torsions:
REMARK  status: ('A' for Active; 'I' for Inactive)
REMARK    1  A    between atoms: C_1  and  C_2
REMARK    2  A    between atoms: C_2  and  O_3
REMARK    3  A    between atoms: O_3  and  C_4
REMARK    4  A    between atoms: C_4  and  C_6
REMARK    5  A    between atoms: C_7  and  C_38
REMARK    6  A    between atoms: C_9  and  C_14
REMARK    7  A    between atoms: C_11  and  C_13
REMARK    8  A    between atoms: C_14  and  N_15
REMARK    9  A    between atoms: N_15  and  C_16
REMARK   10  A    between atoms: C_16  and  C_17
REMARK   11  A    between atoms: C_20  and  C_23
REMARK   12  A    between atoms: C_24  and  C_26
REMARK   13  A    between atoms: C_32  and  O_36
REMARK   14  A    between atoms: O_36  and  C_37
REMARK                            x       y       z     vdW  Elec       q    Type
REMARK                         _______ _______ _______ _____ _____    ______ ____
ROOT
ATOM      1  N   UNL     1       2.584  -3.776   6.469  0.00  0.00    -0.293 N 
ATOM      2  C   UNL     1       1.657  -4.732   6.673  0.00  0.00    +0.242 C 
ATOM      3  O   UNL     1       1.822  -5.562   7.542  0.00  0.00    -0.273 OA
ENDROOT
BRANCH   2   4
ATOM      4  C   UNL     1       0.414  -4.770   5.822  0.00  0.00    +0.190 C 
ATOM      5  C   UNL     1      -0.490  -3.609   6.168  0.00  0.00    +0.016 C 
ATOM      6  C   UNL     1      -1.649  -4.152   6.603  0.00  0.00    -0.003 A 
ATOM      7  C   UNL     1      -2.905  -3.559   7.081  0.00  0.00    +0.013 A 
ATOM      8  C   UNL     1      -3.913  -4.373   7.460  0.00  0.00    +0.046 A 
ATOM      9  C   UNL     1      -3.789  -5.775   7.408  0.00  0.00    +0.122 A 
ATOM     10  C   UNL     1      -2.659  -6.392   6.978  0.00  0.00    +0.071 A 
ATOM     11  C   UNL     1      -1.541  -5.628   6.558  0.00  0.00    +0.047 A 
ATOM     12  N   UNL     1      -0.358  -5.984   6.108  0.00  0.00    -0.370 N 
ATOM     13  H   UNL     1      -0.048  -6.895   5.987  0.00  0.00    +0.161 HD
BRANCH   9  14
ATOM     14  O   UNL     1      -4.838  -6.538   7.803  0.00  0.00    -0.495 OA
ATOM     15  C   UNL     1      -6.009  -5.850   8.248  0.00  0.00    +0.277 C 
ENDBRANCH   9  14
ENDBRANCH   2   4
BRANCH   1  16
ATOM     16  C   UNL     1       2.336  -2.709   5.496  0.00  0.00    +0.131 C 
BRANCH  16  20
ATOM     17  C   UNL     1       1.824  -2.954   2.053  0.00  0.00    +0.058 C 
ATOM     18  C   UNL     1       1.833  -4.221   2.499  0.00  0.00    +0.011 C 
ATOM     19  N   UNL     1       2.467  -4.378   3.688  0.00  0.00    -0.342 N 
ATOM     20  C   UNL     1       2.975  -3.081   4.157  0.00  0.00    +0.095 C 
ATOM     21  C   UNL     1       2.555  -2.089   3.056  0.00  0.00    +0.046 C 
ATOM     22  C   UNL     1       3.784  -1.443   2.413  0.00  0.00    +0.014 C 
ATOM     23  C   UNL     1       1.198  -5.363   1.748  0.00  0.00    +0.061 C 
ATOM     24  H   UNL     1       2.571  -5.220   4.158  0.00  0.00    +0.146 HD
BRANCH  17  25
ATOM     25  C   UNL     1       1.236  -2.507   0.850  0.00  0.00    +0.337 C 
ATOM     26  O   UNL     1       0.671  -3.298   0.117  0.00  0.00    -0.245 OA
BRANCH  25  27
ATOM     27  O   UNL     1       1.301  -1.202   0.511  0.00  0.00    -0.462 OA
BRANCH  27  29
ATOM     28  C   UNL     1       0.860   0.685  -0.932  0.00  0.00    +0.048 C 
ATOM     29  C   UNL     1       0.685  -0.820  -0.720  0.00  0.00    +0.229 C 
ENDBRANCH  27  29
ENDBRANCH  25  27
ENDBRANCH  17  25
ENDBRANCH  16  20
ENDBRANCH   1  16
BRANCH   1  30
ATOM     30  C   UNL     1       3.842  -3.803   7.221  0.00  0.00    +0.143 C 
BRANCH  30  31
ATOM     31  C   UNL     1       3.665  -3.066   8.523  0.00  0.00    -0.030 A 
ATOM     32  C   UNL     1       3.980  -1.723   8.605  0.00  0.00    +0.005 A 
ATOM     33  C   UNL     1       3.817  -1.047   9.800  0.00  0.00    +0.003 A 
ATOM     34  C   UNL     1       3.340  -1.714  10.913  0.00  0.00    -0.050 A 
ATOM     35  C   UNL     1       3.024  -3.058  10.830  0.00  0.00    +0.003 A 
ATOM     36  C   UNL     1       3.182  -3.733   9.634  0.00  0.00    +0.005 A 
ATOM     37  C   UNL     1       3.164  -0.978  12.215  0.00  0.00    +0.044 C 
ENDBRANCH  30  31
ENDBRANCH   1  30
TORSDOF 9
