REMARK  Name = ZINC13051188
REMARK  13 active torsions:
REMARK  status: ('A' for Active; 'I' for Inactive)
REMARK    1  A    between atoms: C_1  and  C_2
REMARK    2  A    between atoms: C_2  and  C_4
REMARK    3  A    between atoms: C_2  and  N_12
REMARK    4  A    between atoms: C_4  and  C_5
REMARK    5  A    between atoms: C_5  and  C_6
REMARK    6  A    between atoms: C_13  and  C_15
REMARK    7  A    between atoms: C_15  and  S_16
REMARK    8  A    between atoms: S_16  and  C_17
REMARK    9  A    between atoms: C_21  and  C_33
REMARK   10  A    between atoms: N_27  and  C_28
REMARK   11  A    between atoms: C_28  and  C_29
REMARK   12  A    between atoms: C_29  and  C_31
REMARK   13  A    between atoms: C_29  and  O_32
REMARK                            x       y       z     vdW  Elec       q    Type
REMARK                         _______ _______ _______ _____ _____    ______ ____
ROOT
ATOM      1  C   UNL     1      -5.218   0.872   0.032  0.00  0.00    +0.173 A 
ATOM      2  N   UNL     1      -4.951  -0.411   0.023  0.00  0.00    -0.223 NA
ATOM      3  C   UNL     1      -5.936  -1.340   0.023  0.00  0.00    +0.080 A 
ATOM      4  C   UNL     1      -5.648  -2.708   0.015  0.00  0.00    +0.043 A 
ATOM      5  C   UNL     1      -6.691  -3.625   0.016  0.00  0.00    +0.065 A 
ATOM      6  C   UNL     1      -8.022  -3.188   0.025  0.00  0.00    +0.016 A 
ATOM      7  C   UNL     1      -8.315  -1.854   0.033  0.00  0.00    +0.016 A 
ATOM      8  C   UNL     1      -7.284  -0.916   0.033  0.00  0.00    +0.065 A 
ATOM      9  C   UNL     1      -7.554   0.531   0.042  0.00  0.00    +0.262 A 
ATOM     10  O   UNL     1      -8.694   0.959   0.049  0.00  0.00    -0.267 OA
ATOM     11  N   UNL     1      -6.491   1.367   0.046  0.00  0.00    -0.285 N 
ENDROOT
BRANCH   5  12
ATOM     12  C   UNL     1      -6.395  -5.075   0.008  0.00  0.00    +0.387 C 
ATOM     13  O   UNL     1      -5.243  -5.459   0.000  0.00  0.00    -0.241 OA
ATOM     14  O   UNL     1      -7.403  -5.968   0.008  0.00  0.00    -0.241 OA
ENDBRANCH   5  12
BRANCH   1  15
ATOM     15  S   UNL     1      -3.874   2.010   0.031  0.00  0.00    -0.078 S 
BRANCH  15  16
ATOM     16  C   UNL     1      -2.482   0.853   0.018  0.00  0.00    +0.173 C 
BRANCH  16  18
ATOM     17  N   UNL     1      -0.011   0.966   0.007  0.00  0.00    -0.312 N 
ATOM     18  C   UNL     1      -1.187   1.624   0.017  0.00  0.00    +0.224 C 
ATOM     19  O   UNL     1      -1.204   2.837   0.023  0.00  0.00    -0.275 OA
ATOM     20  H   UNL     1       0.002  -0.004   0.002  0.00  0.00    +0.149 HD
BRANCH  17  22
ATOM     21  C   UNL     1       1.635   2.077   1.435  0.00  0.00    +0.028 C 
ATOM     22  C   UNL     1       1.248   1.716  -0.001  0.00  0.00    +0.070 C 
BRANCH  22  23
ATOM     23  C   UNL     1       2.349   0.857  -0.625  0.00  0.00    +0.026 C 
BRANCH  23  24
ATOM     24  C   UNL     1       2.022   0.599  -2.098  0.00  0.00    +0.037 C 
BRANCH  24  25
ATOM     25  C   UNL     1       3.106  -0.247  -2.713  0.00  0.00    -0.047 A 
ATOM     26  C   UNL     1       4.200   0.356  -3.307  0.00  0.00    +0.003 A 
ATOM     27  C   UNL     1       5.197  -0.420  -3.866  0.00  0.00    +0.000 A 
ATOM     28  C   UNL     1       5.096  -1.799  -3.842  0.00  0.00    +0.000 A 
ATOM     29  C   UNL     1       4.000  -2.401  -3.254  0.00  0.00    +0.000 A 
ATOM     30  C   UNL     1       3.005  -1.625  -2.689  0.00  0.00    +0.003 A 
ENDBRANCH  24  25
ENDBRANCH  23  24
ENDBRANCH  22  23
ENDBRANCH  17  22
ENDBRANCH  16  18
ENDBRANCH  15  16
ENDBRANCH   1  15
BRANCH  11  31
ATOM     31  C   UNL     1      -6.706   2.816   0.061  0.00  0.00    +0.158 C 
BRANCH  31  32
ATOM     32  C   UNL     1      -6.792   3.333  -1.377  0.00  0.00    +0.131 C 
ATOM     33  C   UNL     1      -6.892   4.860  -1.364  0.00  0.00    +0.039 C 
BRANCH  32  34
ATOM     34  O   UNL     1      -7.949   2.786  -2.011  0.00  0.00    -0.390 OA
ATOM     35  H   UNL     1      -8.782   3.014  -1.576  0.00  0.00    +0.210 HD
ENDBRANCH  32  34
ENDBRANCH  31  32
ENDBRANCH  11  31
TORSDOF 11
