REMARK  Name = ZINC12494935
REMARK  5 active torsions:
REMARK  status: ('A' for Active; 'I' for Inactive)
REMARK    1  A    between atoms: C_1  and  S_2
REMARK    2  A    between atoms: S_2  and  C_3
REMARK    3  A    between atoms: C_18  and  C_20
REMARK    4  A    between atoms: C_23  and  S_26
REMARK    5  A    between atoms: S_26  and  N_29
REMARK                            x       y       z     vdW  Elec       q    Type
REMARK                         _______ _______ _______ _____ _____    ______ ____
ROOT
ATOM      1  C   UNL     1      -0.391   5.913   3.758  0.00  0.00    +0.009 A 
ATOM      2  C   UNL     1       0.233   6.983   3.119  0.00  0.00    +0.017 A 
ATOM      3  C   UNL     1       1.462   6.855   2.553  0.00  0.00    +0.030 A 
ATOM      4  C   UNL     1       2.156   5.624   2.591  0.00  0.00    +0.080 A 
ATOM      5  C   UNL     1       1.501   4.556   3.244  0.00  0.00    +0.042 A 
ATOM      6  C   UNL     1       0.260   4.687   3.816  0.00  0.00    +0.032 A 
ATOM      7  S   UNL     1       2.673   3.232   3.076  0.00  0.00    -0.052 S 
ATOM      8  C   UNL     1       3.919   4.147   2.178  0.00  0.00    +0.162 A 
ATOM      9  N   UNL     1       3.375   5.337   2.079  0.00  0.00    -0.225 NA
ATOM     10  N   UNL     1       5.143   3.712   1.710  0.00  0.00    -0.307 N 
ATOM     11  C   UNL     1       5.952   3.146   2.797  0.00  0.00    +0.126 C 
ATOM     12  C   UNL     1       7.219   2.514   2.211  0.00  0.00    +0.127 C 
ATOM     13  N   UNL     1       7.904   3.520   1.385  0.00  0.00    -0.295 N 
ATOM     14  C   UNL     1       7.121   4.231   0.362  0.00  0.00    +0.127 C 
ATOM     15  C   UNL     1       5.858   4.795   1.022  0.00  0.00    +0.126 C 
ATOM     16  C   UNL     1       9.214   3.783   1.560  0.00  0.00    +0.247 C 
ATOM     17  O   UNL     1       9.780   4.567   0.824  0.00  0.00    -0.270 OA
ENDROOT
BRANCH  16  18
ATOM     18  C   UNL     1       9.963   3.118   2.648  0.00  0.00    +0.037 A 
ATOM     19  C   UNL     1       9.880   1.735   2.812  0.00  0.00    +0.015 A 
ATOM     20  C   UNL     1      10.585   1.120   3.827  0.00  0.00    +0.029 A 
ATOM     21  C   UNL     1      11.364   1.873   4.687  0.00  0.00    +0.106 A 
ATOM     22  C   UNL     1      11.446   3.246   4.533  0.00  0.00    +0.029 A 
ATOM     23  C   UNL     1      10.750   3.872   3.519  0.00  0.00    +0.015 A 
BRANCH  21  24
ATOM     24  S   UNL     1      12.256   1.081   5.983  0.00  0.00    +0.061 S 
ATOM     25  O   UNL     1      12.447  -0.268   5.580  0.00  0.00    -0.153 OA
ATOM     26  O   UNL     1      13.341   1.939   6.312  0.00  0.00    -0.153 OA
BRANCH  24  27
ATOM     27  N   UNL     1      11.264   1.043   7.308  0.00  0.00    -0.177 NA
ATOM     28  C   UNL     1      11.184   2.079   8.349  0.00  0.00    +0.109 C 
ATOM     29  C   UNL     1      10.148   1.604   9.389  0.00  0.00    +0.018 C 
ATOM     30  C   UNL     1      10.124   0.067   9.177  0.00  0.00    +0.018 C 
ATOM     31  C   UNL     1      10.319  -0.038   7.644  0.00  0.00    +0.109 C 
ENDBRANCH  24  27
ENDBRANCH  21  24
ENDBRANCH  16  18
BRANCH   1  33
ATOM     32  C   UNL     1      -2.403   7.847   4.153  0.00  0.00    +0.090 C 
ATOM     33  S   UNL     1      -1.985   6.113   4.483  0.00  0.00    -0.129 S 
ENDBRANCH   1  33
TORSDOF 4
