REMARK  Name = ZINC26103923
REMARK  14 active torsions:
REMARK  status: ('A' for Active; 'I' for Inactive)
REMARK    1  A    between atoms: C_1  and  C_2
REMARK    2  A    between atoms: C_2  and  C_3
REMARK    3  A    between atoms: C_2  and  C_4
REMARK    4  A    between atoms: C_4  and  N_5
REMARK    5  A    between atoms: C_6  and  N_34
REMARK    6  A    between atoms: C_7  and  N_14
REMARK    7  A    between atoms: N_14  and  C_15
REMARK    8  A    between atoms: C_15  and  C_16
REMARK    9  A    between atoms: C_16  and  C_17
REMARK   10  A    between atoms: C_16  and  C_18
REMARK   11  A    between atoms: C_19  and  C_21
REMARK   12  A    between atoms: C_21  and  S_22
REMARK   13  A    between atoms: S_22  and  C_23
REMARK   14  A    between atoms: N_32  and  C_33
REMARK                            x       y       z     vdW  Elec       q    Type
REMARK                         _______ _______ _______ _____ _____    ______ ____
ROOT
ATOM      1  N   UNL     1       0.581  -3.194   1.804  0.00  0.00    -0.263 N 
ATOM      2  C   UNL     1       0.439  -2.538   2.975  0.00  0.00    +0.230 C 
ATOM      3  O   UNL     1       0.476  -1.326   2.999  0.00  0.00    -0.274 OA
ENDROOT
BRANCH   1   6
ATOM      4  N   UNL     1      -0.243  -0.960  -0.995  0.00  0.00    -0.280 N 
ATOM      5  C   UNL     1      -0.362  -1.654   0.187  0.00  0.00    +0.127 A 
ATOM      6  C   UNL     1       0.672  -2.470   0.597  0.00  0.00    +0.140 A 
ATOM      7  C   UNL     1       1.821  -2.567  -0.211  0.00  0.00    +0.277 A 
ATOM      8  O   UNL     1       2.750  -3.281   0.127  0.00  0.00    -0.266 OA
ATOM      9  N   UNL     1       1.887  -1.867  -1.360  0.00  0.00    -0.273 N 
ATOM     10  H   UNL     1       2.783  -1.934  -1.995  0.00  0.00    +0.173 HD
ATOM     11  C   UNL     1       0.867  -1.080  -1.746  0.00  0.00    +0.331 A 
ATOM     12  O   UNL     1       0.950  -0.463  -2.790  0.00  0.00    -0.246 OA
BRANCH   5  13
ATOM     13  N   UNL     1      -1.498  -1.535   0.952  0.00  0.00    -0.343 N 
ATOM     14  H   UNL     1      -1.587  -2.093   1.896  0.00  0.00    +0.144 HD
ATOM     15  H   UNL     1      -2.319  -0.883   0.619  0.00  0.00    +0.144 HD
ENDBRANCH   5  13
BRANCH   4  16
ATOM     16  C   UNL     1      -1.334  -0.091  -1.442  0.00  0.00    +0.131 C 
BRANCH  16  18
ATOM     17  C   UNL     1       0.148   1.920  -1.494  0.00  0.00    +0.009 C 
ATOM     18  C   UNL     1      -1.122   1.319  -0.888  0.00  0.00    +0.003 C 
ATOM     19  C   UNL     1      -2.323   2.196  -1.250  0.00  0.00    +0.009 C 
ENDBRANCH  16  18
ENDBRANCH   4  16
ENDBRANCH   1   6
BRANCH   1  20
ATOM     20  C   UNL     1       0.640  -4.658   1.787  0.00  0.00    +0.117 C 
BRANCH  20  21
ATOM     21  C   UNL     1      -0.781  -5.225   1.746  0.00  0.00    +0.001 C 
ATOM     22  C   UNL     1      -1.440  -4.853   0.415  0.00  0.00    +0.009 C 
ATOM     23  C   UNL     1      -0.726  -6.748   1.880  0.00  0.00    +0.009 C 
ENDBRANCH  20  21
ENDBRANCH   1  20
BRANCH   2  24
ATOM     24  C   UNL     1       0.234  -3.312   4.252  0.00  0.00    +0.173 C 
BRANCH  24  25
ATOM     25  S   UNL     1      -0.006  -2.157   5.625  0.00  0.00    -0.078 S 
BRANCH  25  26
ATOM     26  C   UNL     1      -0.216  -3.298   6.951  0.00  0.00    +0.172 A 
ATOM     27  N   UNL     1      -0.160  -4.576   6.689  0.00  0.00    -0.223 NA
ATOM     28  C   UNL     1      -0.312  -5.521   7.665  0.00  0.00    +0.086 A 
ATOM     29  C   UNL     1      -0.278  -6.917   7.538  0.00  0.00    +0.036 A 
ATOM     30  C   UNL     1      -0.451  -7.702   8.623  0.00  0.00    +0.048 A 
ATOM     31  S   UNL     1      -0.681  -6.514   9.936  0.00  0.00    -0.090 S 
ATOM     32  C   UNL     1      -0.533  -5.036   8.966  0.00  0.00    +0.102 A 
ATOM     33  C   UNL     1      -0.592  -3.671   9.237  0.00  0.00    +0.269 A 
ATOM     34  O   UNL     1      -0.784  -3.266  10.371  0.00  0.00    -0.266 OA
ATOM     35  N   UNL     1      -0.424  -2.806   8.208  0.00  0.00    -0.290 N 
ATOM     36  C   UNL     1      -0.471  -1.361   8.440  0.00  0.00    +0.154 C 
ENDBRANCH  25  26
ENDBRANCH  24  25
ENDBRANCH   2  24
TORSDOF 9
