REMARK  Name = ZINC04597583
REMARK  3 active torsions:
REMARK  status: ('A' for Active; 'I' for Inactive)
REMARK    1  A    between atoms: C_4  and  C_7
REMARK    2  A    between atoms: C_12  and  C_25
REMARK    3  A    between atoms: C_29  and  O_31
REMARK                            x       y       z     vdW  Elec       q    Type
REMARK                         _______ _______ _______ _____ _____    ______ ____
ROOT
ATOM      1  C   UNL     1      -0.138   4.229   0.725  0.00  0.00    +0.032 C 
ATOM      2  C   UNL     1       1.104   3.726  -0.015  0.00  0.00    +0.059 C 
ATOM      3  C   UNL     1       1.128   2.217   0.003  0.00  0.00    +0.016 C 
ATOM      4  C   UNL     1      -0.018   1.503   0.010  0.00  0.00    +0.024 C 
ATOM      5  C   UNL     1       0.002  -0.004   0.002  0.00  0.00    +0.086 C 
ATOM      6  C   UNL     1       1.333  -0.538   0.453  0.00  0.00    -0.014 A 
ATOM      7  C   UNL     1       1.431  -1.857   0.892  0.00  0.00    +0.008 A 
ATOM      8  C   UNL     1       2.617  -2.379   1.307  0.00  0.00    +0.029 A 
ATOM      9  C   UNL     1       3.778  -1.587   1.298  0.00  0.00    +0.073 A 
ATOM     10  C   UNL     1       3.692  -0.244   0.855  0.00  0.00    +0.022 A 
ATOM     11  C   UNL     1       2.449   0.271   0.434  0.00  0.00    +0.045 A 
ATOM     12  N   UNL     1       2.341   1.589   0.008  0.00  0.00    -0.317 N 
ATOM     13  C   UNL     1       4.854   0.546   0.843  0.00  0.00    +0.013 A 
ATOM     14  C   UNL     1       6.024  -0.021   1.266  0.00  0.00    +0.020 A 
ATOM     15  C   UNL     1       6.040  -1.346   1.693  0.00  0.00    +0.111 A 
ATOM     16  N   UNL     1       4.953  -2.080   1.702  0.00  0.00    -0.255 NA
ATOM     17  C   UNL     1      -1.269   2.143   0.032  0.00  0.00    +0.162 C 
ATOM     18  O   UNL     1      -2.282   1.472   0.039  0.00  0.00    -0.292 OA
ATOM     19  C   UNL     1      -1.379   3.643   0.043  0.00  0.00    +0.088 C 
ATOM     20  H   UNL     1       3.240   2.127  -0.327  0.00  0.00    +0.152 HD
ENDROOT
BRANCH   1  24
ATOM     21  C   UNL     1      -0.283   8.494   0.553  0.00  0.00    +0.000 A 
ATOM     22  C   UNL     1      -0.223   7.854   1.776  0.00  0.00    +0.000 A 
ATOM     23  C   UNL     1      -0.176   6.473   1.832  0.00  0.00    +0.004 A 
ATOM     24  C   UNL     1      -0.190   5.734   0.664  0.00  0.00    -0.044 A 
ATOM     25  C   UNL     1      -0.245   6.374  -0.559  0.00  0.00    +0.004 A 
ATOM     26  C   UNL     1      -0.297   7.755  -0.615  0.00  0.00    +0.000 A 
ENDBRANCH   1  24
BRANCH   5  27
ATOM     27  C   UNL     1      -0.277  -0.493  -1.396  0.00  0.00    -0.032 A 
ATOM     28  C   UNL     1       0.565  -0.136  -2.433  0.00  0.00    +0.005 A 
ATOM     29  C   UNL     1       0.312  -0.583  -3.717  0.00  0.00    +0.004 A 
ATOM     30  C   UNL     1      -0.782  -1.389  -3.966  0.00  0.00    +0.045 A 
ATOM     31  C   UNL     1      -1.628  -1.749  -2.927  0.00  0.00    +0.117 A 
ATOM     32  C   UNL     1      -1.369  -1.302  -1.639  0.00  0.00    +0.050 A 
BRANCH  31  33
ATOM     33  O   UNL     1      -2.705  -2.542  -3.169  0.00  0.00    -0.507 OA
ATOM     34  H   UNL     1      -3.375  -2.826  -2.344  0.00  0.00    +0.292 HD
ENDBRANCH  31  33
ENDBRANCH   5  27
TORSDOF 3
