REMARK  Name = ZINC59019616
REMARK  10 active torsions:
REMARK  status: ('A' for Active; 'I' for Inactive)
REMARK    1  A    between atoms: C_1  and  C_2
REMARK    2  A    between atoms: C_2  and  S_3
REMARK    3  A    between atoms: S_3  and  C_4
REMARK    4  A    between atoms: C_9  and  N_13
REMARK    5  A    between atoms: C_14  and  C_16
REMARK    6  A    between atoms: C_16  and  S_17
REMARK    7  A    between atoms: S_17  and  C_18
REMARK    8  A    between atoms: N_23  and  N_24
REMARK    9  A    between atoms: C_25  and  C_26
REMARK   10  A    between atoms: C_29  and  C_32
REMARK                            x       y       z     vdW  Elec       q    Type
REMARK                         _______ _______ _______ _____ _____    ______ ____
ROOT
ATOM      1  S   UNL     1      -0.286 -11.751   1.389  0.00  0.00    -0.075 S 
ENDROOT
BRANCH   1   2
ATOM      2  C   UNL     1       0.041 -13.459   1.102  0.00  0.00    +0.211 A 
ATOM      3  N   UNL     1      -0.295 -14.462   1.920  0.00  0.00    -0.186 NA
ATOM      4  C   UNL     1       0.099 -15.606   1.402  0.00  0.00    +0.232 A 
ATOM      5  N   UNL     1       0.702 -15.344   0.223  0.00  0.00    -0.245 N 
ATOM      6  N   UNL     1       0.647 -13.952   0.049  0.00  0.00    -0.144 NA
ATOM      7  N   UNL     1      -0.076 -16.857   1.966  0.00  0.00    -0.205 N 
ATOM      8  H   UNL     1       0.251 -17.646   1.506  0.00  0.00    +0.177 HD
ATOM      9  H   UNL     1       1.094 -15.991  -0.385  0.00  0.00    +0.192 HD
BRANCH   7  10
ATOM     10  N   UNL     1      -0.724 -16.984   3.201  0.00  0.00    -0.188 NA
ATOM     11  C   UNL     1      -0.888 -18.158   3.731  0.00  0.00    +0.138 C 
BRANCH  11  12
ATOM     12  C   UNL     1      -1.570 -18.292   5.031  0.00  0.00    -0.005 A 
ATOM     13  C   UNL     1      -2.047 -17.158   5.693  0.00  0.00    +0.010 A 
ATOM     14  C   UNL     1      -2.684 -17.291   6.909  0.00  0.00    +0.004 A 
ATOM     15  C   UNL     1      -2.853 -18.543   7.473  0.00  0.00    -0.050 A 
ATOM     16  C   UNL     1      -2.383 -19.671   6.822  0.00  0.00    +0.004 A 
ATOM     17  C   UNL     1      -1.748 -19.554   5.604  0.00  0.00    +0.010 A 
ATOM     18  C   UNL     1      -3.550 -18.680   8.802  0.00  0.00    +0.044 C 
ENDBRANCH  11  12
ENDBRANCH   7  10
ENDBRANCH   1   2
BRANCH   1  19
ATOM     19  C   UNL     1       0.400 -10.922  -0.071  0.00  0.00    +0.173 C 
BRANCH  19  21
ATOM     20  N   UNL     1       0.616  -8.611  -0.927  0.00  0.00    -0.285 N 
ATOM     21  C   UNL     1       0.185  -9.435   0.048  0.00  0.00    +0.227 C 
ATOM     22  O   UNL     1      -0.377  -8.980   1.022  0.00  0.00    -0.275 OA
ATOM     23  H   UNL     1       1.004  -8.979  -1.737  0.00  0.00    +0.155 HD
BRANCH  20  29
ATOM     24  C   UNL     1      -0.996  -2.683   0.392  0.00  0.00    +0.136 A 
ATOM     25  N   UNL     1       0.065  -3.112  -0.254  0.00  0.00    -0.233 NA
ATOM     26  C   UNL     1       0.298  -4.426  -0.474  0.00  0.00    +0.080 A 
ATOM     27  C   UNL     1       1.391  -5.015  -1.150  0.00  0.00    +0.031 A 
ATOM     28  C   UNL     1       1.481  -6.375  -1.289  0.00  0.00    +0.025 A 
ATOM     29  C   UNL     1       0.504  -7.223  -0.773  0.00  0.00    +0.035 A 
ATOM     30  C   UNL     1      -0.583  -6.676  -0.103  0.00  0.00    +0.040 A 
ATOM     31  C   UNL     1      -0.675  -5.314   0.038  0.00  0.00    +0.042 A 
ATOM     32  S   UNL     1      -1.839  -4.206   0.795  0.00  0.00    -0.061 S 
BRANCH  24  33
ATOM     33  S   UNL     1      -1.463  -1.027   0.771  0.00  0.00    -0.099 S 
BRANCH  33  35
ATOM     34  C   UNL     1      -0.422   1.460   0.311  0.00  0.00    +0.016 C 
ATOM     35  C   UNL     1      -0.138  -0.021   0.051  0.00  0.00    +0.073 C 
ENDBRANCH  33  35
ENDBRANCH  24  33
ENDBRANCH  20  29
ENDBRANCH  19  21
ENDBRANCH   1  19
TORSDOF 8
