REMARK  Name = ZINC06603560
REMARK  9 active torsions:
REMARK  status: ('A' for Active; 'I' for Inactive)
REMARK    1  A    between atoms: C_1  and  C_2
REMARK    2  A    between atoms: C_2  and  C_3
REMARK    3  A    between atoms: N_9  and  C_10
REMARK    4  A    between atoms: C_10  and  N_12
REMARK    5  A    between atoms: N_12  and  C_13
REMARK    6  A    between atoms: C_14  and  C_24
REMARK    7  A    between atoms: C_24  and  O_26
REMARK    8  A    between atoms: O_26  and  C_27
REMARK    9  A    between atoms: C_27  and  C_28
REMARK                            x       y       z     vdW  Elec       q    Type
REMARK                         _______ _______ _______ _____ _____    ______ ____
ROOT
ATOM      1  C   UNL     1      -2.006  -1.465   2.642  0.00  0.00    +0.086 A 
ATOM      2  C   UNL     1      -2.015  -2.847   2.609  0.00  0.00    +0.091 A 
ATOM      3  C   UNL     1      -2.626  -3.567   3.733  0.00  0.00    -0.021 A 
ATOM      4  C   UNL     1      -3.162  -2.763   4.668  0.00  0.00    -0.004 A 
ATOM      5  S   UNL     1      -2.803  -1.108   4.137  0.00  0.00    -0.077 S 
ATOM      6  C   UNL     1      -3.926  -3.145   5.904  0.00  0.00    +0.043 C 
ATOM      7  C   UNL     1      -5.361  -3.485   5.463  0.00  0.00    +0.005 C 
ATOM      8  C   UNL     1      -5.284  -4.544   4.357  0.00  0.00    +0.000 C 
ATOM      9  C   UNL     1      -4.632  -5.751   5.001  0.00  0.00    +0.000 C 
ATOM     10  C   UNL     1      -3.116  -5.685   5.039  0.00  0.00    +0.005 C 
ATOM     11  C   UNL     1      -2.531  -5.092   3.764  0.00  0.00    +0.037 C 
ENDROOT
BRANCH   1  12
ATOM     12  N   UNL     1      -1.483  -0.582   1.712  0.00  0.00    -0.291 N 
ATOM     13  H   UNL     1      -1.054  -0.920   0.910  0.00  0.00    +0.154 HD
BRANCH  12  14
ATOM     14  C   UNL     1      -1.570   0.747   1.920  0.00  0.00    +0.138 C 
ATOM     15  S   UNL     1      -2.445   1.347   3.263  0.00  0.00    -0.018 S 
BRANCH  14  21
ATOM     16  C   UNL     1      -0.945   3.045   1.351  0.00  0.00    +0.075 C 
ATOM     17  C   UNL     1      -1.501   3.796   0.137  0.00  0.00    +0.022 C 
ATOM     18  C   UNL     1      -0.719   3.386  -1.113  0.00  0.00    +0.003 C 
ATOM     19  C   UNL     1      -0.889   1.884  -1.354  0.00  0.00    +0.019 C 
ATOM     20  C   UNL     1      -0.326   1.112  -0.157  0.00  0.00    +0.107 C 
ATOM     21  N   UNL     1      -0.968   1.603   1.070  0.00  0.00    -0.309 N 
BRANCH  16  23
ATOM     22  C   UNL     1      -1.819   4.853   2.837  0.00  0.00    +0.006 C 
ATOM     23  C   UNL     1      -1.807   3.345   2.579  0.00  0.00    +0.019 C 
ENDBRANCH  16  23
ENDBRANCH  14  21
ENDBRANCH  12  14
ENDBRANCH   1  12
BRANCH   2  24
ATOM     24  C   UNL     1      -1.430  -3.574   1.481  0.00  0.00    +0.342 C 
ATOM     25  O   UNL     1      -0.257  -3.895   1.506  0.00  0.00    -0.245 OA
BRANCH  24  26
ATOM     26  O   UNL     1      -2.192  -3.889   0.413  0.00  0.00    -0.461 OA
BRANCH  26  27
ATOM     27  C   UNL     1      -1.546  -4.611  -0.668  0.00  0.00    +0.229 C 
ATOM     28  C   UNL     1      -2.561  -4.876  -1.782  0.00  0.00    +0.048 C 
ENDBRANCH  26  27
ENDBRANCH  24  26
ENDBRANCH   2  24
TORSDOF 7
