REMARK  Name = ZINC06681987
REMARK  2 active torsions:
REMARK  status: ('A' for Active; 'I' for Inactive)
REMARK    1  A    between atoms: C_11  and  N_16
REMARK    2  A    between atoms: N_16  and  C_17
REMARK                            x       y       z     vdW  Elec       q    Type
REMARK                         _______ _______ _______ _____ _____    ______ ____
ROOT
ATOM      1  C   UNL     1       0.023  -0.086   4.545  0.00  0.00    +0.001 A 
ATOM      2  C   UNL     1      -0.844   0.684   5.303  0.00  0.00    +0.002 A 
ATOM      3  C   UNL     1      -1.621   1.685   4.747  0.00  0.00    +0.026 A 
ATOM      4  C   UNL     1      -1.496   1.892   3.374  0.00  0.00    +0.047 A 
ATOM      5  C   UNL     1      -0.607   1.101   2.603  0.00  0.00    +0.003 A 
ATOM      6  C   UNL     1       0.167   0.096   3.191  0.00  0.00    +0.010 A 
ATOM      7  C   UNL     1      -0.726   1.576   1.243  0.00  0.00    -0.017 A 
ATOM      8  C   UNL     1      -1.635   2.578   1.249  0.00  0.00    +0.041 A 
ATOM      9  N   UNL     1      -2.098   2.774   2.523  0.00  0.00    -0.356 N 
ATOM     10  H   UNL     1      -2.835   3.494   2.909  0.00  0.00    +0.166 HD
ATOM     11  C   UNL     1      -2.048   3.345   0.015  0.00  0.00    +0.117 C 
ATOM     12  C   UNL     1      -1.008   3.102  -1.084  0.00  0.00    +0.029 C 
ATOM     13  C   UNL     1      -0.762   1.597  -1.228  0.00  0.00    +0.007 C 
ATOM     14  C   UNL     1      -0.013   1.086   0.008  0.00  0.00    +0.037 C 
ENDROOT
BRANCH  11  15
ATOM     15  N   UNL     1      -3.361   2.878  -0.438  0.00  0.00    -0.341 N 
ATOM     16  H   UNL     1      -3.706   1.868  -0.174  0.00  0.00    +0.146 HD
BRANCH  15  17
ATOM     17  C   UNL     1      -4.153   3.695  -1.185  0.00  0.00    +0.081 C 
ATOM     18  C   UNL     1      -5.375   3.260  -1.607  0.00  0.00    +0.059 C 
ATOM     19  C   UNL     1      -6.368   4.005  -2.416  0.00  0.00    +0.009 A 
ATOM     20  C   UNL     1      -6.378   5.277  -2.977  0.00  0.00    +0.010 A 
ATOM     21  C   UNL     1      -7.474   5.697  -3.703  0.00  0.00    +0.001 A 
ATOM     22  C   UNL     1      -8.556   4.850  -3.877  0.00  0.00    +0.002 A 
ATOM     23  C   UNL     1      -8.553   3.584  -3.330  0.00  0.00    +0.024 A 
ATOM     24  C   UNL     1      -7.458   3.144  -2.595  0.00  0.00    +0.042 A 
ATOM     25  N   UNL     1      -7.200   1.942  -1.947  0.00  0.00    -0.281 N 
ATOM     26  C   UNL     1      -5.995   1.954  -1.352  0.00  0.00    +0.250 C 
ATOM     27  O   UNL     1      -5.503   1.041  -0.713  0.00  0.00    -0.270 OA
ATOM     28  H   UNL     1      -7.946   1.134  -1.970  0.00  0.00    +0.155 HD
ENDBRANCH  15  17
ENDBRANCH  11  15
TORSDOF 2
