REMARK  Name = ZINC09436794
REMARK  15 active torsions:
REMARK  status: ('A' for Active; 'I' for Inactive)
REMARK    1  A    between atoms: C_1  and  C_2
REMARK    2  A    between atoms: C_2  and  N_64
REMARK    3  A    between atoms: C_3  and  C_4
REMARK    4  A    between atoms: C_3  and  N_64
REMARK    5  A    between atoms: C_5  and  C_6
REMARK    6  A    between atoms: C_5  and  N_64
REMARK    7  A    between atoms: C_6  and  N_7
REMARK    8  A    between atoms: C_8  and  C_28
REMARK    9  A    between atoms: C_11  and  C_12
REMARK   10  A    between atoms: C_11  and  O_23
REMARK   11  A    between atoms: C_15  and  O_18
REMARK   12  A    between atoms: O_18  and  C_19
REMARK   13  A    between atoms: C_19  and  C_20
REMARK   14  A    between atoms: C_20  and  C_21
REMARK   15  A    between atoms: C_20  and  C_22
REMARK                            x       y       z     vdW  Elec       q    Type
REMARK                         _______ _______ _______ _____ _____    ______ ____
ROOT
ATOM      1  N   UNL     1       5.943   2.369  -0.343  0.00  0.00    -0.285 N 
ATOM      2  C   UNL     1       5.028   1.228  -0.248  0.00  0.00    +0.151 C 
ATOM      3  C   UNL     1       3.635   1.799  -0.120  0.00  0.00    +0.072 C 
ATOM      4  C   UNL     1       2.455   1.090  -0.002  0.00  0.00    +0.133 C 
ATOM      5  C   UNL     1       3.781   3.194  -0.149  0.00  0.00    +0.249 C 
ATOM      6  O   UNL     1       2.878   4.008  -0.075  0.00  0.00    -0.282 OA
ATOM      7  C   UNL     1       5.229   3.506  -0.283  0.00  0.00    +0.288 C 
ATOM      8  O   UNL     1       5.697   4.625  -0.336  0.00  0.00    -0.266 OA
ENDROOT
BRANCH   4   9
ATOM      9  C   UNL     1       1.192   1.801   0.248  0.00  0.00    +0.017 A 
ATOM     10  C   UNL     1       0.087   1.585  -0.585  0.00  0.00    +0.015 A 
ATOM     11  C   UNL     1      -1.091   2.256  -0.349  0.00  0.00    +0.046 A 
ATOM     12  C   UNL     1      -1.188   3.139   0.721  0.00  0.00    +0.121 A 
ATOM     13  C   UNL     1      -0.094   3.357   1.551  0.00  0.00    +0.046 A 
ATOM     14  C   UNL     1       1.090   2.695   1.321  0.00  0.00    +0.015 A 
BRANCH  12  15
ATOM     15  O   UNL     1      -2.354   3.795   0.952  0.00  0.00    -0.492 OA
BRANCH  15  16
ATOM     16  C   UNL     1      -3.438   3.525   0.061  0.00  0.00    +0.232 C 
BRANCH  16  17
ATOM     17  C   UNL     1      -4.657   4.350   0.477  0.00  0.00    +0.020 C 
ATOM     18  C   UNL     1      -5.777   4.157  -0.547  0.00  0.00    +0.010 C 
ATOM     19  C   UNL     1      -5.140   3.888   1.853  0.00  0.00    +0.010 C 
ENDBRANCH  16  17
ENDBRANCH  15  16
ENDBRANCH  12  15
ENDBRANCH   4   9
BRANCH   2  20
ATOM     20  C   UNL     1       5.127   0.383  -1.492  0.00  0.00    +0.015 A 
ATOM     21  C   UNL     1       5.098  -0.967  -1.612  0.00  0.00    +0.013 A 
ATOM     22  C   UNL     1       5.202  -1.531  -2.869  0.00  0.00    +0.008 A 
ATOM     23  C   UNL     1       5.341  -0.718  -3.945  0.00  0.00    +0.045 A 
ATOM     24  S   UNL     1       5.319   0.900  -3.190  0.00  0.00    -0.099 S 
ENDBRANCH   2  20
BRANCH   4  25
ATOM     25  O   UNL     1       2.461  -0.255  -0.118  0.00  0.00    -0.506 OA
ATOM     26  H   UNL     1       1.530  -0.604  -0.007  0.00  0.00    +0.292 HD
ENDBRANCH   4  25
BRANCH   1  27
ATOM     27  C   UNL     1       7.399   2.284  -0.481  0.00  0.00    +0.090 C 
BRANCH  27  28
ATOM     28  C   UNL     1       7.769   2.245  -1.965  0.00  0.00    -0.060 C 
BRANCH  28  29
ATOM     29  N   UNL     1       9.240   2.181  -2.088  0.00  0.00    +0.380 N 
ATOM     30  H   UNL     1       9.655   2.935  -1.528  0.00  0.00    -0.082 HD
BRANCH  29  32
ATOM     31  C   UNL     1       9.179  -0.267  -2.429  0.00  0.00    -0.017 C 
ATOM     32  C   UNL     1       9.733   0.882  -1.584  0.00  0.00    -0.082 C 
ENDBRANCH  29  32
BRANCH  29  33
ATOM     33  C   UNL     1       9.638   2.358  -3.501  0.00  0.00    -0.082 C 
ATOM     34  C   UNL     1      11.140   2.643  -3.557  0.00  0.00    -0.017 C 
ENDBRANCH  29  33
ENDBRANCH  28  29
ENDBRANCH  27  28
ENDBRANCH   1  27
TORSDOF 11
