REMARK  Name = ZINC27697371
REMARK  9 active torsions:
REMARK  status: ('A' for Active; 'I' for Inactive)
REMARK    1  A    between atoms: C_4  and  C_7
REMARK    2  A    between atoms: C_7  and  C_9
REMARK    3  A    between atoms: C_7  and  S_29
REMARK    4  A    between atoms: N_17  and  C_18
REMARK    5  A    between atoms: C_18  and  C_19
REMARK    6  A    between atoms: C_19  and  C_21
REMARK    7  A    between atoms: C_19  and  O_28
REMARK    8  A    between atoms: C_21  and  N_22
REMARK    9  A    between atoms: S_29  and  C_30
REMARK                            x       y       z     vdW  Elec       q    Type
REMARK                         _______ _______ _______ _____ _____    ______ ____
ROOT
ATOM      1  C   UNL     1      -5.612   1.433   0.339  0.00  0.00    +0.129 A 
ATOM      2  N   UNL     1      -6.045   0.320  -0.177  0.00  0.00    -0.231 NA
ATOM      3  C   UNL     1      -7.355   0.151   0.137  0.00  0.00    +0.089 A 
ATOM      4  C   UNL     1      -8.295  -0.843  -0.150  0.00  0.00    +0.030 A 
ATOM      5  C   UNL     1      -9.572  -0.728   0.319  0.00  0.00    +0.002 A 
ATOM      6  C   UNL     1      -9.951   0.368   1.081  0.00  0.00    +0.002 A 
ATOM      7  C   UNL     1      -9.041   1.361   1.377  0.00  0.00    +0.028 A 
ATOM      8  C   UNL     1      -7.738   1.261   0.908  0.00  0.00    +0.069 A 
ATOM      9  N   UNL     1      -6.612   2.051   1.024  0.00  0.00    -0.324 N 
ENDROOT
BRANCH   1  10
ATOM     10  C   UNL     1      -4.205   1.957   0.204  0.00  0.00    +0.147 C 
BRANCH  10  14
ATOM     11  C   UNL     1      -3.305   2.568  -3.927  0.00  0.00    +0.000 A 
ATOM     12  C   UNL     1      -3.437   3.653  -3.080  0.00  0.00    +0.000 A 
ATOM     13  C   UNL     1      -3.728   3.455  -1.743  0.00  0.00    +0.005 A 
ATOM     14  C   UNL     1      -3.888   2.173  -1.253  0.00  0.00    -0.027 A 
ATOM     15  C   UNL     1      -3.751   1.088  -2.099  0.00  0.00    +0.005 A 
ATOM     16  C   UNL     1      -3.464   1.286  -3.436  0.00  0.00    +0.000 A 
ENDBRANCH  10  14
BRANCH  10  17
ATOM     17  S   UNL     1      -3.042   0.755   0.905  0.00  0.00    -0.109 S 
BRANCH  17  18
ATOM     18  C   UNL     1      -1.481   1.567   0.808  0.00  0.00    +0.009 A 
ATOM     19  C   UNL     1      -0.334   0.928   1.265  0.00  0.00    +0.015 A 
ATOM     20  C   UNL     1       0.888   1.565   1.183  0.00  0.00    +0.001 A 
ATOM     21  C   UNL     1       0.972   2.838   0.650  0.00  0.00    +0.000 A 
ATOM     22  C   UNL     1      -0.168   3.479   0.199  0.00  0.00    +0.001 A 
ATOM     23  C   UNL     1      -1.394   2.848   0.278  0.00  0.00    +0.015 A 
ENDBRANCH  17  18
ENDBRANCH  10  17
ENDBRANCH   1  10
BRANCH   9  24
ATOM     24  C   UNL     1      -6.512   3.322   1.747  0.00  0.00    +0.153 C 
BRANCH  24  25
ATOM     25  C   UNL     1      -6.989   4.461   0.843  0.00  0.00    +0.118 C 
BRANCH  25  26
ATOM     26  O   UNL     1      -6.102   4.589  -0.270  0.00  0.00    -0.392 OA
ATOM     27  H   UNL     1      -6.285   5.360  -1.033  0.00  0.00    +0.210 HD
ENDBRANCH  25  26
BRANCH  25  28
ATOM     28  C   UNL     1      -7.004   5.769   1.637  0.00  0.00    -0.045 C 
BRANCH  28  29
ATOM     29  N   UNL     1      -7.521   6.851   0.788  0.00  0.00    +0.381 N 
ATOM     30  C   UNL     1      -7.127   8.165   1.311  0.00  0.00    -0.079 C 
ATOM     31  C   UNL     1      -7.556   9.256   0.329  0.00  0.00    -0.019 C 
ATOM     32  C   UNL     1      -9.075   9.197   0.139  0.00  0.00    -0.004 C 
ATOM     33  C   UNL     1      -9.464   7.803  -0.360  0.00  0.00    -0.019 C 
ATOM     34  C   UNL     1      -8.979   6.753   0.642  0.00  0.00    -0.079 C 
ATOM     35  H   UNL     1      -7.076   6.740  -0.212  0.00  0.00    -0.082 HD
ENDBRANCH  28  29
ENDBRANCH  25  28
ENDBRANCH  24  25
ENDBRANCH   9  24
TORSDOF 9
