REMARK  Name = ZINC15068578
REMARK  8 active torsions:
REMARK  status: ('A' for Active; 'I' for Inactive)
REMARK    1  A    between atoms: C_1  and  C_2
REMARK    2  A    between atoms: C_3  and  C_8
REMARK    3  A    between atoms: C_4  and  C_7
REMARK    4  A    between atoms: C_13  and  C_16
REMARK    5  A    between atoms: C_16  and  C_30
REMARK    6  A    between atoms: N_19  and  C_23
REMARK    7  A    between atoms: C_23  and  C_24
REMARK    8  A    between atoms: C_24  and  C_25
REMARK                            x       y       z     vdW  Elec       q    Type
REMARK                         _______ _______ _______ _____ _____    ______ ____
ROOT
ATOM      1  C   UNL     1       1.181   2.140   0.002  0.00  0.00    +0.142 C 
ATOM      2  C   UNL     1      -0.014   1.208   0.009  0.00  0.00    +0.251 C 
ATOM      3  O   UNL     1       0.002  -0.004   0.002  0.00  0.00    -0.272 OA
ATOM      4  N   UNL     1      -1.099   2.007   0.017  0.00  0.00    -0.224 N 
ATOM      5  C   UNL     1      -0.759   3.301   0.026  0.00  0.00    +0.310 C 
ATOM      6  O   UNL     1      -1.564   4.212   0.038  0.00  0.00    -0.252 OA
ATOM      7  N   UNL     1       0.574   3.482   0.015  0.00  0.00    -0.281 N 
ATOM      8  H   UNL     1       1.044   4.331   0.014  0.00  0.00    +0.152 HD
ENDROOT
BRANCH   1  14
ATOM      9  C   UNL     1       3.517   3.634  -4.691  0.00  0.00    +0.252 C 
ATOM     10  O   UNL     1       2.797   3.724  -5.667  0.00  0.00    -0.270 OA
ATOM     11  N   UNL     1       3.194   2.792  -3.690  0.00  0.00    -0.297 N 
ATOM     12  C   UNL     1       1.974   1.976  -3.762  0.00  0.00    +0.108 C 
ATOM     13  C   UNL     1       1.147   2.213  -2.495  0.00  0.00    +0.025 C 
ATOM     14  C   UNL     1       2.014   1.938  -1.265  0.00  0.00    +0.029 C 
ATOM     15  C   UNL     1       3.204   2.901  -1.252  0.00  0.00    +0.025 C 
ATOM     16  C   UNL     1       4.055   2.672  -2.505  0.00  0.00    +0.108 C 
BRANCH   9  19
ATOM     17  C   UNL     1       3.856   6.657  -3.402  0.00  0.00    +0.070 C 
ATOM     18  C   UNL     1       4.915   5.792  -4.034  0.00  0.00    +0.093 A 
ATOM     19  C   UNL     1       4.744   4.446  -4.604  0.00  0.00    +0.101 A 
ATOM     20  C   UNL     1       6.012   4.131  -5.029  0.00  0.00    +0.147 A 
ATOM     21  O   UNL     1       6.780   5.182  -4.734  0.00  0.00    -0.359 OA
ATOM     22  N   UNL     1       6.174   6.075  -4.193  0.00  0.00    -0.083 NA
ATOM     23  C   UNL     1       6.449   2.853  -5.697  0.00  0.00    +0.090 C 
ENDBRANCH   9  19
ENDBRANCH   1  14
BRANCH   1  24
ATOM     24  C   UNL     1       2.027   1.926   1.231  0.00  0.00    +0.003 A 
ATOM     25  C   UNL     1       1.772   2.640   2.392  0.00  0.00    +0.009 A 
ATOM     26  C   UNL     1       2.576   2.410   3.498  0.00  0.00    +0.020 A 
ATOM     27  C   UNL     1       3.598   1.483   3.407  0.00  0.00    +0.111 A 
ATOM     28  N   UNL     1       3.811   0.822   2.286  0.00  0.00    -0.263 NA
ATOM     29  C   UNL     1       3.063   1.011   1.217  0.00  0.00    +0.117 A 
ENDBRANCH   1  24
BRANCH   4  30
ATOM     30  C   UNL     1      -2.481   1.520   0.020  0.00  0.00    +0.123 C 
BRANCH  30  31
ATOM     31  C   UNL     1      -2.956   1.342   1.463  0.00  0.00    +0.062 C 
BRANCH  31  32
ATOM     32  C   UNL     1      -4.377   0.840   1.466  0.00  0.00    -0.009 A 
ATOM     33  C   UNL     1      -4.832  -0.437   1.455  0.00  0.00    +0.011 A 
ATOM     34  C   UNL     1      -6.195  -0.663   1.464  0.00  0.00    +0.008 A 
ATOM     35  C   UNL     1      -7.038   0.399   1.473  0.00  0.00    +0.045 A 
ATOM     36  S   UNL     1      -5.899   1.774   1.477  0.00  0.00    -0.102 S 
ENDBRANCH  31  32
ENDBRANCH  30  31
ENDBRANCH   4  30
TORSDOF 6
