REMARK  Name = ZINC66952149
REMARK  9 active torsions:
REMARK  status: ('A' for Active; 'I' for Inactive)
REMARK    1  A    between atoms: C_1  and  C_2
REMARK    2  A    between atoms: C_2  and  N_3
REMARK    3  A    between atoms: N_3  and  C_4
REMARK    4  A    between atoms: C_4  and  C_5
REMARK    5  A    between atoms: C_10  and  N_11
REMARK    6  A    between atoms: N_14  and  C_15
REMARK    7  A    between atoms: C_15  and  C_16
REMARK    8  A    between atoms: C_16  and  O_26
REMARK    9  A    between atoms: C_27  and  C_29
REMARK                            x       y       z     vdW  Elec       q    Type
REMARK                         _______ _______ _______ _____ _____    ______ ____
ROOT
ATOM      1  N   UNL     1      -3.864  -2.591  -0.166  0.00  0.00    -0.269 N 
ATOM      2  C   UNL     1      -4.356  -3.612   0.564  0.00  0.00    +0.304 C 
ATOM      3  O   UNL     1      -3.929  -4.738   0.401  0.00  0.00    -0.253 OA
ATOM      4  N   UNL     1      -5.323  -3.384   1.475  0.00  0.00    -0.296 N 
ATOM      5  H   UNL     1      -4.146  -1.682   0.020  0.00  0.00    +0.156 HD
ATOM      6  H   UNL     1      -5.665  -2.485   1.605  0.00  0.00    +0.150 HD
ENDROOT
BRANCH   1  12
ATOM      7  C   UNL     1      -1.946  -1.924  -1.473  0.00  0.00    -0.009 A 
ATOM      8  C   UNL     1      -1.038  -2.179  -2.482  0.00  0.00    +0.007 A 
ATOM      9  C   UNL     1      -1.130  -3.347  -3.218  0.00  0.00    +0.000 A 
ATOM     10  C   UNL     1      -2.130  -4.262  -2.945  0.00  0.00    +0.002 A 
ATOM     11  C   UNL     1      -3.040  -4.013  -1.937  0.00  0.00    +0.023 A 
ATOM     12  C   UNL     1      -2.947  -2.844  -1.192  0.00  0.00    +0.039 A 
BRANCH   7  13
ATOM     13  C   UNL     1      -1.845  -0.651  -0.672  0.00  0.00    +0.144 C 
BRANCH  13  14
ATOM     14  N   UNL     1      -1.098  -0.908   0.562  0.00  0.00    -0.298 N 
ATOM     15  C   UNL     1      -1.758  -1.157   1.710  0.00  0.00    +0.213 C 
ATOM     16  O   UNL     1      -2.967  -1.247   1.707  0.00  0.00    -0.276 OA
ATOM     17  C   UNL     1      -0.993  -1.324   2.998  0.00  0.00    +0.109 C 
BRANCH  14  19
ATOM     18  C   UNL     1       0.867   0.530   0.791  0.00  0.00    +0.024 C 
ATOM     19  C   UNL     1       0.367  -0.895   0.547  0.00  0.00    +0.105 C 
ENDBRANCH  14  19
ENDBRANCH  13  14
ENDBRANCH   7  13
ENDBRANCH   1  12
BRANCH   4  20
ATOM     20  C   UNL     1      -5.858  -4.492   2.269  0.00  0.00    +0.145 C 
BRANCH  20  21
ATOM     21  C   UNL     1      -7.013  -3.988   3.137  0.00  0.00    +0.107 C 
ATOM     22  C   UNL     1      -6.524  -2.828   4.001  0.00  0.00    +0.041 C 
ATOM     23  C   UNL     1      -7.622  -2.481   5.013  0.00  0.00    +0.008 C 
ATOM     24  C   UNL     1      -7.718  -3.618   6.028  0.00  0.00    +0.035 C 
ATOM     25  C   UNL     1      -7.843  -4.945   5.326  0.00  0.00    -0.041 A 
ATOM     26  C   UNL     1      -7.516  -5.116   3.999  0.00  0.00    -0.011 A 
ATOM     27  C   UNL     1      -7.648  -6.368   3.414  0.00  0.00    +0.007 A 
ATOM     28  C   UNL     1      -8.107  -7.441   4.150  0.00  0.00    +0.000 A 
ATOM     29  C   UNL     1      -8.440  -7.269   5.481  0.00  0.00    +0.000 A 
ATOM     30  C   UNL     1      -8.307  -6.026   6.064  0.00  0.00    +0.004 A 
BRANCH  21  31
ATOM     31  O   UNL     1      -8.072  -3.532   2.293  0.00  0.00    -0.382 OA
ATOM     32  H   UNL     1      -8.430  -4.213   1.707  0.00  0.00    +0.211 HD
ENDBRANCH  21  31
ENDBRANCH  20  21
ENDBRANCH   4  20
TORSDOF 7
