REMARK  Name = ZINC27230108
REMARK  5 active torsions:
REMARK  status: ('A' for Active; 'I' for Inactive)
REMARK    1  A    between atoms: C_1  and  C_2
REMARK    2  A    between atoms: C_2  and  C_4
REMARK    3  A    between atoms: C_2  and  N_10
REMARK    4  A    between atoms: C_14  and  C_15
REMARK    5  A    between atoms: C_16  and  C_17
REMARK                            x       y       z     vdW  Elec       q    Type
REMARK                         _______ _______ _______ _____ _____    ______ ____
ROOT
ATOM      1  N   UNL     1       1.126   3.053  -1.377  0.00  0.00    -0.248 N 
ATOM      2  C   UNL     1       0.991   3.927  -2.359  0.00  0.00    +0.259 C 
ATOM      3  O   UNL     1       0.898   5.119  -2.129  0.00  0.00    -0.269 OA
ATOM      4  C   UNL     1       0.963   3.433  -3.698  0.00  0.00    +0.077 C 
ATOM      5  C   UNL     1       0.834   4.121  -4.884  0.00  0.00    +0.020 C 
ATOM      6  S   UNL     1       1.142   1.676  -3.416  0.00  0.00    -0.061 S 
ATOM      7  C   UNL     1       1.234   1.730  -1.633  0.00  0.00    +0.121 C 
ATOM      8  S   UNL     1       1.416   0.435  -0.528  0.00  0.00    -0.027 S 
ENDROOT
BRANCH   1  10
ATOM      9  C   UNL     1      -0.176   4.188   0.354  0.00  0.00    +0.033 C 
ATOM     10  C   UNL     1       1.159   3.525   0.009  0.00  0.00    +0.110 C 
BRANCH  10  11
ATOM     11  C   UNL     1       2.274   4.525   0.173  0.00  0.00    -0.027 A 
ATOM     12  C   UNL     1       3.486   4.319  -0.459  0.00  0.00    +0.005 A 
ATOM     13  C   UNL     1       4.507   5.239  -0.312  0.00  0.00    +0.000 A 
ATOM     14  C   UNL     1       4.319   6.360   0.475  0.00  0.00    +0.000 A 
ATOM     15  C   UNL     1       3.109   6.564   1.111  0.00  0.00    +0.000 A 
ATOM     16  C   UNL     1       2.086   5.646   0.960  0.00  0.00    +0.005 A 
ENDBRANCH  10  11
ENDBRANCH   1  10
BRANCH   5  17
ATOM     17  C   UNL     1       0.704   5.519  -4.873  0.00  0.00    +0.005 C 
ATOM     18  C   UNL     1       0.576   6.199  -6.045  0.00  0.00    +0.046 C 
BRANCH  18  19
ATOM     19  C   UNL     1       0.445   7.608  -6.034  0.00  0.00    +0.128 A 
ATOM     20  C   UNL     1       0.308   8.421  -7.142  0.00  0.00    +0.049 A 
ATOM     21  C   UNL     1       0.212   9.736  -6.662  0.00  0.00    +0.042 A 
ATOM     22  C   UNL     1       0.292   9.677  -5.314  0.00  0.00    +0.195 A 
ATOM     23  O   UNL     1       0.426   8.396  -4.939  0.00  0.00    -0.464 OA
ENDBRANCH  18  19
ENDBRANCH   5  17
TORSDOF 4
