REMARK  Name = ZINC38700492
REMARK  10 active torsions:
REMARK  status: ('A' for Active; 'I' for Inactive)
REMARK    1  A    between atoms: C_1  and  C_2
REMARK    2  A    between atoms: C_2  and  C_3
REMARK    3  A    between atoms: C_3  and  O_4
REMARK    4  A    between atoms: O_4  and  C_5
REMARK    5  A    between atoms: C_8  and  C_12
REMARK    6  A    between atoms: C_12  and  O_14
REMARK    7  A    between atoms: O_14  and  C_15
REMARK    8  A    between atoms: C_22  and  N_35
REMARK    9  A    between atoms: C_23  and  C_33
REMARK   10  A    between atoms: C_24  and  C_26
REMARK                            x       y       z     vdW  Elec       q    Type
REMARK                         _______ _______ _______ _____ _____    ______ ____
ROOT
ATOM      1  C   UNL     1       3.208  -5.446   7.677  0.00  0.00    +0.135 A 
ATOM      2  C   UNL     1       4.568  -5.722   7.667  0.00  0.00    +0.047 A 
ATOM      3  C   UNL     1       5.147  -6.378   8.735  0.00  0.00    +0.012 A 
ATOM      4  C   UNL     1       4.375  -6.763   9.818  0.00  0.00    +0.008 A 
ATOM      5  C   UNL     1       3.017  -6.490   9.833  0.00  0.00    +0.138 A 
ATOM      6  C   UNL     1       2.434  -5.825   8.762  0.00  0.00    +0.093 A 
ATOM      7  O   UNL     1       2.245  -6.859  10.885  0.00  0.00    -0.441 OA
ATOM      8  C   UNL     1       2.675  -7.809  11.732  0.00  0.00    +0.199 C 
ATOM      9  C   UNL     1       3.983  -8.150  11.821  0.00  0.00    +0.098 C 
ATOM     10  C   UNL     1       5.026  -7.477  10.973  0.00  0.00    +0.098 C 
ENDROOT
BRANCH  10  11
ATOM     11  C   UNL     1       5.786  -6.482  11.811  0.00  0.00    -0.032 A 
ATOM     12  C   UNL     1       5.118  -5.428  12.407  0.00  0.00    +0.005 A 
ATOM     13  C   UNL     1       5.814  -4.514  13.176  0.00  0.00    +0.003 A 
ATOM     14  C   UNL     1       7.178  -4.653  13.350  0.00  0.00    +0.038 A 
ATOM     15  C   UNL     1       7.848  -5.708  12.755  0.00  0.00    +0.124 A 
ATOM     16  C   UNL     1       7.148  -6.627  11.989  0.00  0.00    +0.043 A 
ATOM     17  F   UNL     1       9.181  -5.845  12.924  0.00  0.00    -0.205 F 
ENDBRANCH  10  11
BRANCH   8  18
ATOM     18  N   UNL     1       1.763  -8.453  12.530  0.00  0.00    -0.328 N 
ATOM     19  H   UNL     1       0.823  -8.220  12.477  0.00  0.00    +0.145 HD
ATOM     20  H   UNL     1       2.059  -9.141  13.146  0.00  0.00    +0.145 HD
ENDBRANCH   8  18
BRANCH   9  21
ATOM     21  C   UNL     1       4.380  -9.171  12.743  0.00  0.00    +0.101 C 
ATOM     22  N   UNL     1       4.695  -9.981  13.475  0.00  0.00    -0.191 NA
ENDBRANCH   9  21
BRANCH   1  23
ATOM     23  O   UNL     1       2.636  -4.801   6.626  0.00  0.00    -0.422 OA
BRANCH  23  24
ATOM     24  C   UNL     1       2.395  -5.508   5.505  0.00  0.00    +0.345 C 
ATOM     25  O   UNL     1       2.767  -6.662   5.422  0.00  0.00    -0.245 OA
BRANCH  24  29
ATOM     26  C   UNL     1       0.332  -3.705   2.260  0.00  0.00    +0.157 A 
ATOM     27  C   UNL     1       0.758  -5.025   2.163  0.00  0.00    +0.085 A 
ATOM     28  C   UNL     1       1.427  -5.614   3.214  0.00  0.00    +0.038 A 
ATOM     29  C   UNL     1       1.679  -4.882   4.378  0.00  0.00    +0.062 A 
ATOM     30  C   UNL     1       1.250  -3.555   4.471  0.00  0.00    +0.038 A 
ATOM     31  C   UNL     1       0.585  -2.971   3.414  0.00  0.00    +0.085 A 
ATOM     32 CL   UNL     1       0.057  -1.321   3.526  0.00  0.00    -0.080 Cl
ATOM     33 CL   UNL     1       0.445  -5.933   0.717  0.00  0.00    -0.080 Cl
BRANCH  26  34
ATOM     34  O   UNL     1      -0.328  -3.128   1.223  0.00  0.00    -0.489 OA
BRANCH  34  35
ATOM     35  C   UNL     1       0.466  -2.465   0.237  0.00  0.00    +0.229 C 
BRANCH  35  37
ATOM     36  C   UNL     1       0.404  -1.171  -1.899  0.00  0.00    +0.007 C 
ATOM     37  C   UNL     1      -0.446  -1.882  -0.844  0.00  0.00    +0.038 C 
ENDBRANCH  35  37
ENDBRANCH  34  35
ENDBRANCH  26  34
ENDBRANCH  24  29
ENDBRANCH  23  24
ENDBRANCH   1  23
TORSDOF 9
