REMARK  Name = ZINC16937133
REMARK  7 active torsions:
REMARK  status: ('A' for Active; 'I' for Inactive)
REMARK    1  A    between atoms: C_1  and  N_2
REMARK    2  A    between atoms: C_6  and  C_7
REMARK    3  A    between atoms: C_10  and  N_13
REMARK    4  A    between atoms: N_13  and  C_14
REMARK    5  A    between atoms: N_13  and  C_15
REMARK    6  A    between atoms: N_18  and  C_19
REMARK    7  A    between atoms: C_23  and  O_25
REMARK                            x       y       z     vdW  Elec       q    Type
REMARK                         _______ _______ _______ _____ _____    ______ ____
ROOT
ATOM      1  C   UNL     1       3.789   5.046  -2.237  0.00  0.00    +0.140 C 
ATOM      2  N   UNL     1       4.314   4.330  -1.072  0.00  0.00    -0.249 N 
ATOM      3  C   UNL     1       4.726   5.010  -0.016  0.00  0.00    +0.259 C 
ATOM      4  O   UNL     1       4.680   6.226   0.015  0.00  0.00    -0.269 OA
ATOM      5  C   UNL     1       5.250   4.229   1.121  0.00  0.00    +0.078 C 
ATOM      6  C   UNL     1       5.739   4.663   2.311  0.00  0.00    +0.028 C 
ATOM      7  S   UNL     1       5.070   2.560   0.509  0.00  0.00    -0.049 S 
ATOM      8  C   UNL     1       4.369   2.953  -1.085  0.00  0.00    +0.168 C 
ATOM      9  N   UNL     1       4.001   2.130  -2.041  0.00  0.00    -0.225 NA
ENDROOT
BRANCH   6  10
ATOM     10  C   UNL     1       6.081   3.695   3.360  0.00  0.00    -0.024 A 
ATOM     11  C   UNL     1       5.519   2.412   3.343  0.00  0.00    +0.010 A 
ATOM     12  C   UNL     1       5.845   1.510   4.322  0.00  0.00    +0.023 A 
ATOM     13  C   UNL     1       6.726   1.870   5.338  0.00  0.00    +0.029 A 
ATOM     14  C   UNL     1       7.283   3.146   5.363  0.00  0.00    +0.023 A 
ATOM     15  C   UNL     1       6.966   4.053   4.385  0.00  0.00    +0.010 A 
BRANCH  13  16
ATOM     16  N   UNL     1       7.050   0.952   6.334  0.00  0.00    -0.336 N 
ATOM     17  C   UNL     1       8.084   1.275   7.320  0.00  0.00    +0.129 C 
ATOM     18  C   UNL     1       6.358  -0.338   6.394  0.00  0.00    +0.129 C 
ENDBRANCH  13  16
ENDBRANCH   6  10
BRANCH   9  19
ATOM     19  C   UNL     1       4.139   0.779  -1.872  0.00  0.00    +0.070 A 
ATOM     20  C   UNL     1       5.321   0.256  -1.343  0.00  0.00    +0.028 A 
ATOM     21  C   UNL     1       5.457  -1.107  -1.174  0.00  0.00    +0.006 A 
ATOM     22  C   UNL     1       4.425  -1.958  -1.527  0.00  0.00    +0.045 A 
ATOM     23  C   UNL     1       3.246  -1.447  -2.054  0.00  0.00    +0.119 A 
ATOM     24  C   UNL     1       3.099  -0.082  -2.228  0.00  0.00    +0.073 A 
BRANCH  23  25
ATOM     25  O   UNL     1       2.236  -2.289  -2.399  0.00  0.00    -0.507 OA
ATOM     26  H   UNL     1       2.279  -2.600  -3.313  0.00  0.00    +0.292 HD
ENDBRANCH  23  25
ENDBRANCH   9  19
TORSDOF 4
