REMARK  Name = ZINC09298399
REMARK  5 active torsions:
REMARK  status: ('A' for Active; 'I' for Inactive)
REMARK    1  A    between atoms: C_1  and  O_2
REMARK    2  A    between atoms: O_2  and  C_3
REMARK    3  A    between atoms: C_6  and  C_8
REMARK    4  A    between atoms: C_12  and  N_13
REMARK    5  A    between atoms: C_14  and  C_16
REMARK                            x       y       z     vdW  Elec       q    Type
REMARK                         _______ _______ _______ _____ _____    ______ ____
ROOT
ATOM      1  C   UNL     1       1.309  -4.006  -2.238  0.00  0.00    +0.069 A 
ATOM      2  C   UNL     1       0.258  -4.773  -2.894  0.00  0.00    -0.023 A 
ATOM      3  C   UNL     1       0.459  -6.107  -2.872  0.00  0.00    -0.004 A 
ATOM      4  S   UNL     1       1.997  -6.318  -2.019  0.00  0.00    -0.077 S 
ATOM      5  C   UNL     1       2.368  -4.714  -1.694  0.00  0.00    +0.084 A 
ATOM      6  C   UNL     1      -0.427  -7.175  -3.432  0.00  0.00    +0.043 C 
ATOM      7  C   UNL     1      -0.816  -6.804  -4.869  0.00  0.00    +0.005 C 
ATOM      8  C   UNL     1      -2.091  -5.966  -4.828  0.00  0.00    +0.001 C 
ATOM      9  C   UNL     1      -2.119  -5.110  -3.564  0.00  0.00    +0.005 C 
ATOM     10  C   UNL     1      -0.951  -4.129  -3.557  0.00  0.00    +0.037 C 
ENDROOT
BRANCH   1  14
ATOM     11  C   UNL     1       0.600  -0.601  -1.046  0.00  0.00    +0.407 C 
ATOM     12  O   UNL     1       1.092   0.072  -1.929  0.00  0.00    -0.226 OA
ATOM     13  N   UNL     1       0.653  -1.946  -1.114  0.00  0.00    -0.217 N 
ATOM     14  C   UNL     1       1.252  -2.544  -2.163  0.00  0.00    +0.255 C 
ATOM     15  O   UNL     1       1.744  -1.870  -3.048  0.00  0.00    -0.270 OA
ATOM     16  H   UNL     1       0.260  -2.484  -0.409  0.00  0.00    +0.161 HD
BRANCH  11  18
ATOM     17  C   UNL     1      -0.017   1.425   0.010  0.00  0.00    +0.282 C 
ATOM     18  O   UNL     1       0.002  -0.004   0.002  0.00  0.00    -0.453 OA
ENDBRANCH  11  18
ENDBRANCH   1  14
BRANCH   5  19
ATOM     19  N   UNL     1       3.478  -4.213  -1.031  0.00  0.00    -0.279 N 
ATOM     20  C   UNL     1       4.420  -5.055  -0.562  0.00  0.00    +0.221 C 
ATOM     21  O   UNL     1       4.297  -6.251  -0.720  0.00  0.00    -0.275 OA
ATOM     22  H   UNL     1       3.576  -3.256  -0.904  0.00  0.00    +0.155 HD
BRANCH  20  23
ATOM     23  C   UNL     1       5.626  -4.510   0.159  0.00  0.00    +0.075 C 
ATOM     24  C   UNL     1       6.398  -3.574  -0.774  0.00  0.00    +0.013 C 
ATOM     25  C   UNL     1       7.622  -3.021  -0.043  0.00  0.00    +0.001 C 
ATOM     26  C   UNL     1       8.528  -4.178   0.383  0.00  0.00    +0.000 C 
ATOM     27  C   UNL     1       7.756  -5.114   1.315  0.00  0.00    +0.001 C 
ATOM     28  C   UNL     1       6.532  -5.667   0.584  0.00  0.00    +0.013 C 
ENDBRANCH  20  23
ENDBRANCH   5  19
TORSDOF 4
