REMARK  Name = ZINC05775457
REMARK  2 active torsions:
REMARK  status: ('A' for Active; 'I' for Inactive)
REMARK    1  A    between atoms: C_4  and  C_7
REMARK    2  A    between atoms: N_17  and  C_18
REMARK                            x       y       z     vdW  Elec       q    Type
REMARK                         _______ _______ _______ _____ _____    ______ ____
ROOT
ATOM      1  C   UNL     1       5.820   3.081  -0.038  0.00  0.00    +0.056 A 
ATOM      2  C   UNL     1       5.818   1.683  -0.045  0.00  0.00    +0.143 A 
ATOM      3  N   UNL     1       4.661   1.042  -0.037  0.00  0.00    -0.202 NA
ATOM      4  C   UNL     1       3.516   1.708  -0.022  0.00  0.00    +0.225 A 
ATOM      5  N   UNL     1       3.476   3.032  -0.020  0.00  0.00    -0.202 NA
ATOM      6  C   UNL     1       4.590   3.745  -0.022  0.00  0.00    +0.143 A 
ATOM      7 CL   UNL     1       4.525   5.480  -0.013  0.00  0.00    -0.061 Cl
ATOM      8  N   UNL     1       2.323   0.998  -0.015  0.00  0.00    -0.238 N 
ATOM      9  C   UNL     1       1.147   1.655   0.000  0.00  0.00    +0.306 C 
ATOM     10  O   UNL     1       1.130   2.871   0.007  0.00  0.00    -0.252 OA
ATOM     11  N   UNL     1      -0.011   0.966   0.007  0.00  0.00    -0.294 N 
ATOM     12 CL   UNL     1       7.313   0.799  -0.063  0.00  0.00    -0.061 Cl
ATOM     13  H   UNL     1       2.336   0.028  -0.020  0.00  0.00    +0.159 HD
ATOM     14  H   UNL     1       0.002  -0.004   0.002  0.00  0.00    +0.151 HD
ENDROOT
BRANCH  11  15
ATOM     15  C   UNL     1      -1.290   1.681   0.017  0.00  0.00    +0.037 C 
ATOM     16  C   UNL     1      -1.389   2.566  -1.227  0.00  0.00    +0.029 C 
ATOM     17  C   UNL     1      -2.724   3.313  -1.216  0.00  0.00    -0.008 C 
ATOM     18  C   UNL     1      -3.873   2.303  -1.216  0.00  0.00    +0.007 C 
ATOM     19  C   UNL     1      -3.774   1.418   0.028  0.00  0.00    -0.008 C 
ATOM     20  C   UNL     1      -2.439   0.671   0.017  0.00  0.00    +0.029 C 
ATOM     21  C   UNL     1      -3.861   2.290   1.282  0.00  0.00    +0.007 C 
ATOM     22  C   UNL     1      -2.712   3.300   1.282  0.00  0.00    -0.008 C 
ATOM     23  C   UNL     1      -2.811   4.185   0.038  0.00  0.00    +0.007 C 
ATOM     24  C   UNL     1      -1.377   2.553   1.272  0.00  0.00    +0.029 C 
ENDBRANCH  11  15
BRANCH   1  28
ATOM     25  C   UNL     1       9.473   5.256  -0.061  0.00  0.00    +0.000 A 
ATOM     26  C   UNL     1       8.612   5.345  -1.140  0.00  0.00    +0.001 A 
ATOM     27  C   UNL     1       7.425   4.641  -1.138  0.00  0.00    +0.009 A 
ATOM     28  C   UNL     1       7.095   3.840  -0.046  0.00  0.00    -0.012 A 
ATOM     29  C   UNL     1       7.964   3.759   1.040  0.00  0.00    +0.009 A 
ATOM     30  C   UNL     1       9.151   4.463   1.025  0.00  0.00    +0.001 A 
ENDBRANCH   1  28
TORSDOF 2
