REMARK  Name = ZINC66997533
REMARK  6 active torsions:
REMARK  status: ('A' for Active; 'I' for Inactive)
REMARK    1  A    between atoms: C_1  and  C_2
REMARK    2  A    between atoms: C_12  and  C_14
REMARK    3  A    between atoms: N_16  and  C_17
REMARK    4  A    between atoms: N_16  and  C_18
REMARK    5  A    between atoms: C_18  and  C_20
REMARK    6  A    between atoms: C_18  and  C_21
REMARK                            x       y       z     vdW  Elec       q    Type
REMARK                         _______ _______ _______ _____ _____    ______ ____
ROOT
ATOM      1  C   UNL     1      -1.328   1.720   0.805  0.00  0.00    +0.045 C 
ATOM      2  C   UNL     1      -1.316   0.228   0.599  0.00  0.00    -0.029 A 
ATOM      3  C   UNL     1      -2.108  -0.339  -0.380  0.00  0.00    +0.008 A 
ATOM      4  C   UNL     1      -2.097  -1.708  -0.570  0.00  0.00    +0.039 A 
ATOM      5  C   UNL     1      -1.295  -2.513   0.222  0.00  0.00    +0.128 A 
ATOM      6  C   UNL     1      -0.498  -1.951   1.208  0.00  0.00    +0.009 A 
ATOM      7  C   UNL     1      -0.504  -0.577   1.391  0.00  0.00    +0.045 A 
ATOM      8  N   UNL     1       0.301   0.020   2.368  0.00  0.00    -0.263 N 
ATOM      9  C   UNL     1       0.925  -0.831   3.391  0.00  0.00    +0.114 C 
ATOM     10  C   UNL     1       1.509  -2.061   2.685  0.00  0.00    +0.024 C 
ATOM     11  C   UNL     1       0.359  -2.854   2.055  0.00  0.00    +0.041 C 
ATOM     12  C   UNL     1       0.500   1.353   2.371  0.00  0.00    +0.306 C 
ATOM     13  O   UNL     1       0.494   1.970   1.326  0.00  0.00    -0.265 OA
ATOM     14  F   UNL     1      -1.289  -3.850   0.033  0.00  0.00    -0.205 F 
ENDROOT
BRANCH  12  15
ATOM     15  C   UNL     1       0.730   2.071   3.661  0.00  0.00    +0.302 C 
ATOM     16  O   UNL     1      -0.215   2.410   4.343  0.00  0.00    -0.265 OA
ATOM     17  N   UNL     1       1.986   2.343   4.066  0.00  0.00    -0.290 N 
ATOM     18  C   UNL     1       3.128   1.840   3.300  0.00  0.00    +0.133 C 
BRANCH  17  19
ATOM     19  C   UNL     1       2.209   3.141   5.274  0.00  0.00    +0.110 C 
ATOM     20  C   UNL     1       3.002   2.318   6.291  0.00  0.00    +0.034 C 
BRANCH  19  21
ATOM     21  C   UNL     1       2.984   4.384   4.919  0.00  0.00    +0.010 A 
ATOM     22  C   UNL     1       2.830   5.648   5.383  0.00  0.00    +0.013 A 
ATOM     23  C   UNL     1       3.667   6.642   4.911  0.00  0.00    +0.008 A 
ATOM     24  C   UNL     1       4.616   6.323   3.998  0.00  0.00    +0.045 A 
ATOM     25  S   UNL     1       4.349   4.571   3.784  0.00  0.00    -0.100 S 
ENDBRANCH  19  21
ENDBRANCH  17  19
ENDBRANCH  12  15
TORSDOF 3
