REMARK  Name = ZINC39522523
REMARK  11 active torsions:
REMARK  status: ('A' for Active; 'I' for Inactive)
REMARK    1  A    between atoms: C_1  and  C_2
REMARK    2  A    between atoms: C_2  and  N_3
REMARK    3  A    between atoms: N_3  and  C_4
REMARK    4  A    between atoms: N_3  and  C_6
REMARK    5  A    between atoms: C_4  and  C_5
REMARK    6  A    between atoms: C_6  and  C_7
REMARK    7  A    between atoms: C_10  and  C_13
REMARK    8  A    between atoms: C_13  and  N_14
REMARK    9  A    between atoms: C_15  and  C_17
REMARK   10  A    between atoms: C_17  and  N_18
REMARK   11  A    between atoms: C_26  and  C_28
REMARK                            x       y       z     vdW  Elec       q    Type
REMARK                         _______ _______ _______ _____ _____    ______ ____
ROOT
ATOM      1  N   UNL     1       4.278  -2.624  -6.660  0.00  0.00    -0.310 N 
ATOM      2  C   UNL     1       5.045  -2.788  -7.756  0.00  0.00    +0.231 C 
ATOM      3  O   UNL     1       5.199  -3.895  -8.227  0.00  0.00    -0.274 OA
ATOM      4  H   UNL     1       4.155  -1.738  -6.283  0.00  0.00    +0.149 HD
ENDROOT
BRANCH   1   5
ATOM      5  C   UNL     1       3.630  -3.781  -6.038  0.00  0.00    +0.139 C 
BRANCH   5   9
ATOM      6  C   UNL     1       1.382  -2.502  -2.639  0.00  0.00    -0.064 A 
ATOM      7  C   UNL     1       0.786  -2.545  -3.885  0.00  0.00    +0.002 A 
ATOM      8  C   UNL     1       1.514  -2.959  -4.986  0.00  0.00    +0.005 A 
ATOM      9  C   UNL     1       2.837  -3.329  -4.839  0.00  0.00    -0.030 A 
ATOM     10  C   UNL     1       3.433  -3.286  -3.593  0.00  0.00    +0.005 A 
ATOM     11  C   UNL     1       2.707  -2.868  -2.493  0.00  0.00    +0.002 A 
BRANCH   6  12
ATOM     12  C   UNL     1       0.589  -2.052  -1.439  0.00  0.00    -0.043 C 
BRANCH  12  13
ATOM     13  N   UNL     1       0.824  -0.620  -1.206  0.00  0.00    +0.382 N 
ATOM     14  H   UNL     1       1.815  -0.452  -1.121  0.00  0.00    -0.081 HD
BRANCH  13  16
ATOM     15  C   UNL     1       0.646   1.631  -2.154  0.00  0.00    -0.017 C 
ATOM     16  C   UNL     1       0.292   0.154  -2.336  0.00  0.00    -0.082 C 
ENDBRANCH  13  16
BRANCH  13  17
ATOM     17  C   UNL     1       0.149  -0.208   0.031  0.00  0.00    -0.082 C 
ATOM     18  C   UNL     1       0.811  -0.897   1.227  0.00  0.00    -0.017 C 
ENDBRANCH  13  17
ENDBRANCH  12  13
ENDBRANCH   6  12
ENDBRANCH   5   9
ENDBRANCH   1   5
BRANCH   2  19
ATOM     19  C   UNL     1       5.712  -1.598  -8.395  0.00  0.00    +0.213 C 
BRANCH  19  20
ATOM     20  N   UNL     1       6.482  -2.037  -9.561  0.00  0.00    -0.215 N 
ATOM     21  C   UNL     1       7.775  -2.422  -9.514  0.00  0.00    +0.247 C 
ATOM     22  O   UNL     1       8.492  -2.468  -8.538  0.00  0.00    -0.273 OA
ATOM     23  C   UNL     1       8.140  -2.783 -10.936  0.00  0.00    +0.115 C 
ATOM     24  C   UNL     1       9.262  -1.884 -11.441  0.00  0.00    +0.035 C 
ATOM     25  C   UNL     1       9.596  -2.246 -12.891  0.00  0.00    +0.003 C 
ATOM     26  C   UNL     1      10.023  -3.713 -12.964  0.00  0.00    +0.000 C 
ATOM     27  C   UNL     1       8.878  -4.604 -12.476  0.00  0.00    +0.006 C 
ATOM     28  C   UNL     1       8.543  -4.251 -11.024  0.00  0.00    +0.018 C 
ATOM     29  C   UNL     1       7.385  -5.127 -10.542  0.00  0.00    +0.010 C 
ATOM     30  N   UNL     1       6.906  -2.541 -11.693  0.00  0.00    -0.285 N 
ATOM     31  C   UNL     1       5.990  -2.112 -10.803  0.00  0.00    +0.310 C 
ATOM     32  O   UNL     1       4.847  -1.821 -11.096  0.00  0.00    -0.252 OA
ATOM     33  H   UNL     1       6.774  -2.669 -12.646  0.00  0.00    +0.151 HD
ENDBRANCH  19  20
ENDBRANCH   2  19
TORSDOF 8
