REMARK  Name = ZINC12146450
REMARK  7 active torsions:
REMARK  status: ('A' for Active; 'I' for Inactive)
REMARK    1  A    between atoms: C_4  and  N_7
REMARK    2  A    between atoms: C_11  and  C_16
REMARK    3  A    between atoms: C_16  and  N_46
REMARK    4  A    between atoms: C_17  and  C_18
REMARK    5  A    between atoms: C_17  and  N_46
REMARK    6  A    between atoms: C_18  and  O_19
REMARK    7  A    between atoms: C_20  and  C_22
REMARK                            x       y       z     vdW  Elec       q    Type
REMARK                         _______ _______ _______ _____ _____    ______ ____
ROOT
ATOM      1  N   UNL     1       0.608   5.684  -0.349  0.00  0.00    -0.215 N 
ATOM      2  C   UNL     1       1.727   5.755   0.419  0.00  0.00    +0.145 A 
ATOM      3  C   UNL     1       2.131   4.446   0.682  0.00  0.00    +0.045 A 
ATOM      4  C   UNL     1       3.279   4.211   1.467  0.00  0.00    +0.020 A 
ATOM      5  C   UNL     1       3.974   5.273   1.956  0.00  0.00    +0.001 A 
ATOM      6  C   UNL     1       3.543   6.582   1.676  0.00  0.00    +0.252 A 
ATOM      7  O   UNL     1       4.172   7.530   2.118  0.00  0.00    -0.268 OA
ATOM      8  N   UNL     1       2.447   6.803   0.926  0.00  0.00    -0.307 N 
ATOM      9  H   UNL     1       2.166   7.713   0.744  0.00  0.00    +0.170 HD
ATOM     10  C   UNL     1       1.167   3.570   0.010  0.00  0.00    +0.102 A 
ATOM     11  N   UNL     1       0.292   4.343  -0.589  0.00  0.00    -0.164 NA
ENDROOT
BRANCH  10  12
ATOM     12  C   UNL     1       1.182   2.088   0.002  0.00  0.00    +0.005 A 
ATOM     13  C   UNL     1      -0.017   1.376   0.010  0.00  0.00    +0.010 A 
ATOM     14  C   UNL     1       0.002  -0.004   0.002  0.00  0.00    +0.003 A 
ATOM     15  C   UNL     1       1.207  -0.683  -0.014  0.00  0.00    +0.038 A 
ATOM     16  C   UNL     1       2.402   0.018  -0.021  0.00  0.00    +0.124 A 
ATOM     17  C   UNL     1       2.395   1.401  -0.013  0.00  0.00    +0.048 A 
ATOM     18  F   UNL     1       3.576  -0.650  -0.036  0.00  0.00    -0.205 F 
ENDBRANCH  10  12
BRANCH   1  22
ATOM     19  C   UNL     1      -1.537   8.955  -1.786  0.00  0.00    +0.000 A 
ATOM     20  C   UNL     1      -1.425   7.812  -2.556  0.00  0.00    +0.002 A 
ATOM     21  C   UNL     1      -0.714   6.726  -2.083  0.00  0.00    +0.028 A 
ATOM     22  C   UNL     1      -0.112   6.783  -0.832  0.00  0.00    +0.068 A 
ATOM     23  C   UNL     1      -0.231   7.931  -0.059  0.00  0.00    +0.028 A 
ATOM     24  C   UNL     1      -0.939   9.015  -0.540  0.00  0.00    +0.002 A 
ENDBRANCH   1  22
BRANCH   5  25
ATOM     25  C   UNL     1       5.203   5.047   2.798  0.00  0.00    -0.041 C 
BRANCH  25  26
ATOM     26  N   UNL     1       6.398   5.108   1.935  0.00  0.00    +0.383 N 
ATOM     27  H   UNL     1       6.446   6.031   1.488  0.00  0.00    -0.085 HD
ATOM     28  H   UNL     1       6.331   4.381   1.212  0.00  0.00    -0.085 HD
BRANCH  26  29
ATOM     29  C   UNL     1       7.619   4.890   2.733  0.00  0.00    -0.054 C 
BRANCH  29  30
ATOM     30  C   UNL     1       8.839   4.958   1.813  0.00  0.00    +0.137 C 
BRANCH  30  31
ATOM     31  O   UNL     1       8.961   6.279   1.282  0.00  0.00    -0.397 OA
ATOM     32  H   UNL     1       9.716   6.396   0.688  0.00  0.00    +0.209 HD
ENDBRANCH  30  31
ENDBRANCH  29  30
ENDBRANCH  26  29
ENDBRANCH  25  26
ENDBRANCH   5  25
TORSDOF 7
