REMARK  Name = ZINC39237995
REMARK  7 active torsions:
REMARK  status: ('A' for Active; 'I' for Inactive)
REMARK    1  A    between atoms: C_5  and  C_7
REMARK    2  A    between atoms: C_7  and  N_8
REMARK    3  A    between atoms: N_13  and  C_14
REMARK    4  A    between atoms: C_14  and  N_16
REMARK    5  A    between atoms: N_16  and  N_17
REMARK    6  A    between atoms: C_18  and  C_20
REMARK    7  A    between atoms: C_23  and  C_26
REMARK                            x       y       z     vdW  Elec       q    Type
REMARK                         _______ _______ _______ _____ _____    ______ ____
ROOT
ATOM      1  C   UNL     1       2.577  -3.534   5.653  0.00  0.00    +0.152 C 
ATOM      2  S   UNL     1       1.194  -4.542   5.635  0.00  0.00    -0.017 S 
ENDROOT
BRANCH   1   8
ATOM      3  N   UNL     1       0.595  -3.496   1.934  0.00  0.00    -0.265 N 
ATOM      4  C   UNL     1       1.413  -2.623   1.309  0.00  0.00    +0.110 A 
ATOM      5  C   UNL     1       2.394  -2.282   2.174  0.00  0.00    +0.065 A 
ATOM      6  C   UNL     1       2.169  -2.972   3.376  0.00  0.00    +0.146 A 
ATOM      7  N   UNL     1       1.085  -3.697   3.231  0.00  0.00    -0.156 NA
ATOM      8  N   UNL     1       2.961  -2.897   4.529  0.00  0.00    -0.279 N 
ATOM      9  H   UNL     1       3.785  -2.385   4.519  0.00  0.00    +0.155 HD
BRANCH   3  10
ATOM     10  C   UNL     1      -0.600  -4.120   1.359  0.00  0.00    +0.181 C 
BRANCH  10  15
ATOM     11  C   UNL     1       0.101  -7.737   0.535  0.00  0.00    +0.000 A 
ATOM     12  C   UNL     1      -0.293  -8.368   1.700  0.00  0.00    +0.003 A 
ATOM     13  C   UNL     1      -0.786  -7.626   2.756  0.00  0.00    +0.039 A 
ATOM     14  C   UNL     1      -0.886  -6.249   2.647  0.00  0.00    +0.128 A 
ATOM     15  C   UNL     1      -0.491  -5.618   1.480  0.00  0.00    +0.009 A 
ATOM     16  C   UNL     1       0.002  -6.363   0.425  0.00  0.00    +0.008 A 
ATOM     17  F   UNL     1      -1.368  -5.522   3.679  0.00  0.00    -0.205 F 
ENDBRANCH  10  15
ENDBRANCH   3  10
ENDBRANCH   1   8
BRANCH   1  18
ATOM     18  N   UNL     1       3.283  -3.378   6.791  0.00  0.00    -0.246 N 
ATOM     19  H   UNL     1       3.006  -3.837   7.600  0.00  0.00    +0.172 HD
BRANCH  18  20
ATOM     20  N   UNL     1       4.415  -2.553   6.806  0.00  0.00    -0.233 N 
ATOM     21  C   UNL     1       5.120  -2.397   7.943  0.00  0.00    +0.259 C 
ATOM     22  O   UNL     1       4.775  -2.970   8.954  0.00  0.00    -0.272 OA
ATOM     23  H   UNL     1       4.691  -2.094   5.997  0.00  0.00    +0.173 HD
BRANCH  21  24
ATOM     24  C   UNL     1       6.338  -1.509   7.959  0.00  0.00    +0.239 C 
ATOM     25  C   UNL     1       7.553  -2.255   7.434  0.00  0.00    +0.036 C 
ATOM     26  C   UNL     1       8.397  -2.261   8.468  0.00  0.00    +0.065 C 
ATOM     27  N   UNL     1       7.858  -1.626   9.532  0.00  0.00    -0.158 NA
ATOM     28  N   UNL     1       6.721  -1.175   9.341  0.00  0.00    -0.170 NA
BRANCH  26  29
ATOM     29  C   UNL     1       9.766  -2.891   8.451  0.00  0.00    +0.039 C 
ATOM     30  C   UNL     1      10.518  -2.983   9.780  0.00  0.00    +0.010 C 
ATOM     31  C   UNL     1      10.966  -1.980   8.715  0.00  0.00    +0.010 C 
ENDBRANCH  26  29
ENDBRANCH  21  24
ENDBRANCH  18  20
ENDBRANCH   1  18
TORSDOF 7
