REMARK  Name = ZINC34910738
REMARK  10 active torsions:
REMARK  status: ('A' for Active; 'I' for Inactive)
REMARK    1  A    between atoms: C_1  and  C_2
REMARK    2  A    between atoms: C_2  and  C_3
REMARK    3  A    between atoms: C_2  and  C_4
REMARK    4  A    between atoms: C_4  and  N_5
REMARK    5  A    between atoms: N_5  and  C_6
REMARK    6  A    between atoms: C_6  and  C_7
REMARK    7  A    between atoms: C_12  and  C_15
REMARK    8  A    between atoms: C_15  and  C_16
REMARK    9  A    between atoms: N_18  and  C_19
REMARK   10  A    between atoms: C_28  and  C_30
REMARK                            x       y       z     vdW  Elec       q    Type
REMARK                         _______ _______ _______ _____ _____    ______ ____
ROOT
ATOM      1  C   UNL     1       1.132  -1.911   4.301  0.00  0.00    +0.236 C 
ATOM      2  O   UNL     1       2.219  -1.374   4.258  0.00  0.00    -0.274 OA
ATOM      3  N   UNL     1       0.919  -2.937   5.148  0.00  0.00    -0.263 N 
ATOM      4  C   UNL     1       1.946  -3.381   5.973  0.00  0.00    +0.165 A 
ATOM      5  N   UNL     1       1.924  -4.361   6.850  0.00  0.00    -0.229 NA
ATOM      6  C   UNL     1       2.993  -4.662   7.564  0.00  0.00    +0.059 A 
ATOM      7  C   UNL     1       4.105  -3.917   7.352  0.00  0.00    +0.072 A 
ATOM      8  S   UNL     1       3.521  -2.798   6.089  0.00  0.00    -0.060 S 
ATOM      9  H   UNL     1       0.050  -3.366   5.182  0.00  0.00    +0.157 HD
ENDROOT
BRANCH   1  10
ATOM     10  C   UNL     1       0.019  -1.430   3.406  0.00  0.00    +0.203 C 
BRANCH  10  11
ATOM     11  N   UNL     1       0.498  -0.314   2.586  0.00  0.00    -0.292 N 
ATOM     12  C   UNL     1       0.288   0.956   2.987  0.00  0.00    +0.219 C 
ATOM     13  O   UNL     1       0.604   1.879   2.267  0.00  0.00    -0.275 OA
BRANCH  12  14
ATOM     14  C   UNL     1      -0.339   1.228   4.330  0.00  0.00    +0.075 C 
ATOM     15  C   UNL     1      -1.835   0.909   4.268  0.00  0.00    +0.013 C 
ATOM     16  C   UNL     1      -2.472   1.186   5.631  0.00  0.00    +0.001 C 
ATOM     17  C   UNL     1      -2.279   2.659   5.995  0.00  0.00    +0.000 C 
ATOM     18  C   UNL     1      -0.783   2.977   6.057  0.00  0.00    +0.001 C 
ATOM     19  C   UNL     1      -0.146   2.701   4.694  0.00  0.00    +0.013 C 
ENDBRANCH  12  14
BRANCH  11  20
ATOM     20  C   UNL     1       1.207  -0.578   1.331  0.00  0.00    +0.111 C 
BRANCH  20  22
ATOM     21  C   UNL     1      -0.590   0.486  -0.041  0.00  0.00    +0.009 C 
ATOM     22  C   UNL     1       0.191  -0.806   0.210  0.00  0.00    +0.000 C 
ATOM     23  C   UNL     1       0.925  -1.215  -1.068  0.00  0.00    +0.009 C 
ENDBRANCH  20  22
ENDBRANCH  11  20
ENDBRANCH  10  11
ENDBRANCH   1  10
BRANCH   6  24
ATOM     24  C   UNL     1       2.977  -5.783   8.571  0.00  0.00    +0.151 C 
BRANCH  24  25
ATOM     25  C   UNL     1       1.851  -5.565   9.548  0.00  0.00    +0.219 C 
ATOM     26  O   UNL     1       1.132  -4.594   9.438  0.00  0.00    -0.275 OA
ATOM     27  N   UNL     1       1.642  -6.448  10.545  0.00  0.00    -0.304 N 
ATOM     28  H   UNL     1       2.217  -7.224  10.633  0.00  0.00    +0.149 HD
BRANCH  27  29
ATOM     29  C   UNL     1       0.547  -6.236  11.495  0.00  0.00    +0.159 C 
ATOM     30  C   UNL     1       0.126  -7.576  12.101  0.00  0.00    +0.032 C 
ATOM     31  C   UNL     1      -1.312  -7.519  12.585  0.00  0.00    +0.004 C 
ATOM     32  C   UNL     1      -1.527  -6.583  13.760  0.00  0.00    +0.019 C 
ATOM     33  C   UNL     1      -1.301  -5.128  13.347  0.00  0.00    +0.104 C 
ATOM     34  N   UNL     1       0.132  -4.819  13.475  0.00  0.00    -0.314 N 
ATOM     35  C   UNL     1       1.012  -5.324  12.610  0.00  0.00    +0.233 C 
ATOM     36  O   UNL     1       2.189  -5.055  12.721  0.00  0.00    -0.274 OA
ATOM     37  H   UNL     1       0.438  -4.241  14.192  0.00  0.00    +0.149 HD
ENDBRANCH  27  29
ENDBRANCH  24  25
ENDBRANCH   6  24
TORSDOF 8
