REMARK  Name = ZINC52430638
REMARK  6 active torsions:
REMARK  status: ('A' for Active; 'I' for Inactive)
REMARK    1  A    between atoms: C_1  and  C_2
REMARK    2  A    between atoms: C_2  and  C_4
REMARK    3  A    between atoms: C_2  and  N_10
REMARK    4  A    between atoms: C_11  and  C_13
REMARK    5  A    between atoms: C_13  and  N_14
REMARK    6  A    between atoms: C_15  and  C_17
REMARK                            x       y       z     vdW  Elec       q    Type
REMARK                         _______ _______ _______ _____ _____    ______ ____
ROOT
ATOM      1  N   UNL     1      -0.240  -1.150  -4.711  0.00  0.00    -0.302 N 
ATOM      2  C   UNL     1       0.170  -1.560  -5.928  0.00  0.00    +0.253 C 
ATOM      3  O   UNL     1       1.330  -1.882  -6.103  0.00  0.00    -0.270 OA
ATOM      4  H   UNL     1      -1.165  -0.893  -4.572  0.00  0.00    +0.150 HD
ENDROOT
BRANCH   2   5
ATOM      5  C   UNL     1      -0.783  -1.616  -7.043  0.00  0.00    +0.093 A 
ATOM      6  C   UNL     1      -0.562  -2.003  -8.329  0.00  0.00    +0.068 A 
ATOM      7  C   UNL     1      -1.620  -1.986  -9.258  0.00  0.00    +0.008 A 
ATOM      8  C   UNL     1      -1.590  -2.348 -10.629  0.00  0.00    +0.010 A 
ATOM      9  C   UNL     1      -2.710  -2.271 -11.393  0.00  0.00    +0.001 A 
ATOM     10  C   UNL     1      -3.922  -1.838 -10.867  0.00  0.00    +0.001 A 
ATOM     11  C   UNL     1      -3.995  -1.476  -9.538  0.00  0.00    +0.016 A 
ATOM     12  C   UNL     1      -2.866  -1.549  -8.750  0.00  0.00    +0.021 A 
ATOM     13  S   UNL     1      -2.519  -1.200  -7.045  0.00  0.00    -0.082 S 
ATOM     14 CL   UNL     1       1.021  -2.517  -8.823  0.00  0.00    -0.082 Cl
ENDBRANCH   2   5
BRANCH   1  15
ATOM     15  C   UNL     1       0.712  -1.094  -3.598  0.00  0.00    +0.200 C 
BRANCH  15  17
ATOM     16  N   UNL     1       0.688  -0.476  -1.203  0.00  0.00    -0.309 N 
ATOM     17  C   UNL     1       0.006  -0.608  -2.358  0.00  0.00    +0.230 C 
ATOM     18  O   UNL     1      -1.175  -0.336  -2.400  0.00  0.00    -0.274 OA
ATOM     19  H   UNL     1       1.632  -0.695  -1.170  0.00  0.00    +0.149 HD
BRANCH  16  21
ATOM     20  C   UNL     1      -0.019   1.526   0.010  0.00  0.00    +0.030 C 
ATOM     21  C   UNL     1       0.002  -0.004   0.002  0.00  0.00    +0.099 C 
BRANCH  21  22
ATOM     22  C   UNL     1       0.742  -0.511   1.242  0.00  0.00    +0.138 C 
ATOM     23  C   UNL     1      -0.040  -0.120   2.514  0.00  0.00    +0.035 C 
ATOM     24  C   UNL     1       1.101   0.265   3.496  0.00  0.00    +0.031 C 
ATOM     25  C   UNL     1       2.131   0.888   2.521  0.00  0.00    +0.160 C 
ATOM     26  O   UNL     1       2.034   0.102   1.320  0.00  0.00    -0.375 OA
ENDBRANCH  21  22
ENDBRANCH  16  21
ENDBRANCH  15  17
ENDBRANCH   1  15
TORSDOF 5
