REMARK  Name = ZINC00469260
REMARK  3 active torsions:
REMARK  status: ('A' for Active; 'I' for Inactive)
REMARK    1  A    between atoms: C_1  and  C_2
REMARK    2  A    between atoms: C_5  and  N_8
REMARK    3  A    between atoms: N_12  and  C_15
REMARK                            x       y       z     vdW  Elec       q    Type
REMARK                         _______ _______ _______ _____ _____    ______ ____
ROOT
ATOM      1  N   UNL     1      -0.020   0.047  -0.181  0.00  0.00    -0.273 N 
ATOM      2  C   UNL     1       0.004   1.491   0.108  0.00  0.00    +0.209 C 
ATOM      3  C   UNL     1       1.482   1.807   0.223  0.00  0.00    +0.243 C 
ATOM      4  O   UNL     1       1.984   2.886   0.455  0.00  0.00    -0.273 OA
ATOM      5  N   UNL     1       2.122   0.640   0.011  0.00  0.00    -0.220 N 
ATOM      6  C   UNL     1       1.262  -0.359  -0.218  0.00  0.00    +0.151 C 
ATOM      7  S   UNL     1       1.741  -1.974  -0.524  0.00  0.00    -0.017 S 
ENDROOT
BRANCH   1  12
ATOM      8  C   UNL     1      -4.620  -3.173  -0.987  0.00  0.00    +0.044 C 
ATOM      9  C   UNL     1      -3.398  -2.317  -0.773  0.00  0.00    -0.050 A 
ATOM     10  C   UNL     1      -3.147  -1.771   0.473  0.00  0.00    +0.005 A 
ATOM     11  C   UNL     1      -2.028  -0.987   0.672  0.00  0.00    +0.024 A 
ATOM     12  C   UNL     1      -1.154  -0.747  -0.380  0.00  0.00    +0.036 A 
ATOM     13  C   UNL     1      -1.411  -1.293  -1.631  0.00  0.00    +0.024 A 
ATOM     14  C   UNL     1      -2.529  -2.080  -1.822  0.00  0.00    +0.005 A 
ENDBRANCH   1  12
BRANCH   5  15
ATOM     15  C   UNL     1       3.515   0.492   0.029  0.00  0.00    +0.043 A 
ATOM     16  C   UNL     1       4.290   1.077  -0.964  0.00  0.00    +0.024 A 
ATOM     17  C   UNL     1       5.664   0.934  -0.940  0.00  0.00    +0.002 A 
ATOM     18  C   UNL     1       6.266   0.199   0.065  0.00  0.00    +0.000 A 
ATOM     19  C   UNL     1       5.497  -0.390   1.051  0.00  0.00    +0.002 A 
ATOM     20  C   UNL     1       4.124  -0.245   1.036  0.00  0.00    +0.024 A 
ENDBRANCH   5  15
TORSDOF 2
