REMARK  Name = ZINC04150078
REMARK  5 active torsions:
REMARK  status: ('A' for Active; 'I' for Inactive)
REMARK    1  A    between atoms: C_4  and  C_7
REMARK    2  A    between atoms: C_10  and  C_13
REMARK    3  A    between atoms: C_26  and  N_31
REMARK    4  A    between atoms: N_31  and  S_32
REMARK    5  A    between atoms: S_32  and  C_35
REMARK                            x       y       z     vdW  Elec       q    Type
REMARK                         _______ _______ _______ _____ _____    ______ ____
ROOT
ATOM      1  C   UNL     1       0.861   4.461  -3.183  0.00  0.00    +0.247 C 
ATOM      2  O   UNL     1       1.327   3.601  -3.905  0.00  0.00    -0.270 OA
ATOM      3  N   UNL     1       1.433   4.724  -1.992  0.00  0.00    -0.297 N 
ATOM      4  C   UNL     1       0.928   5.808  -1.140  0.00  0.00    +0.113 C 
ATOM      5  C   UNL     1       0.689   5.297   0.274  0.00  0.00    +0.027 C 
ATOM      6  C   UNL     1       1.915   4.551   0.802  0.00  0.00    +0.018 C 
ATOM      7  C   UNL     1       2.204   3.372  -0.131  0.00  0.00    +0.054 C 
ATOM      8  C   UNL     1       2.576   3.930  -1.515  0.00  0.00    +0.117 C 
ATOM      9  C   UNL     1       0.958   2.533  -0.291  0.00  0.00    +0.027 A 
ATOM     10  C   UNL     1       1.123   1.218  -0.591  0.00  0.00    +0.024 A 
ATOM     11  C   UNL     1       0.017   0.411  -0.883  0.00  0.00    +0.031 A 
ATOM     12  C   UNL     1      -1.230   0.973  -0.886  0.00  0.00    +0.112 A 
ATOM     13  C   UNL     1      -1.365   2.338  -0.561  0.00  0.00    +0.274 A 
ATOM     14  O   UNL     1      -2.464   2.867  -0.614  0.00  0.00    -0.266 OA
ATOM     15  N   UNL     1      -0.284   3.068  -0.193  0.00  0.00    -0.310 N 
ATOM     16  C   UNL     1      -0.535   4.402   0.353  0.00  0.00    +0.130 C 
ENDROOT
BRANCH   1  20
ATOM     17  C   UNL     1      -2.572   6.641  -4.419  0.00  0.00    -0.018 A 
ATOM     18  C   UNL     1      -1.453   7.319  -3.935  0.00  0.00    +0.009 A 
ATOM     19  C   UNL     1      -0.341   6.614  -3.534  0.00  0.00    +0.013 A 
ATOM     20  C   UNL     1      -0.333   5.219  -3.613  0.00  0.00    +0.037 A 
ATOM     21  C   UNL     1      -1.452   4.541  -4.103  0.00  0.00    +0.013 A 
ATOM     22  C   UNL     1      -2.565   5.248  -4.498  0.00  0.00    +0.009 A 
BRANCH  17  26
ATOM     23  C   UNL     1      -6.007   8.821  -5.653  0.00  0.00    +0.000 A 
ATOM     24  C   UNL     1      -6.002   7.440  -5.733  0.00  0.00    +0.001 A 
ATOM     25  C   UNL     1      -4.890   6.727  -5.334  0.00  0.00    +0.008 A 
ATOM     26  C   UNL     1      -3.770   7.401  -4.849  0.00  0.00    -0.018 A 
ATOM     27  C   UNL     1      -3.783   8.792  -4.766  0.00  0.00    +0.008 A 
ATOM     28  C   UNL     1      -4.899   9.495  -5.173  0.00  0.00    +0.001 A 
ENDBRANCH  17  26
ENDBRANCH   1  20
BRANCH  12  29
ATOM     29  N   UNL     1      -2.356   0.204  -1.203  0.00  0.00    -0.211 N 
ATOM     30  H   UNL     1      -3.237   0.610  -1.203  0.00  0.00    +0.174 HD
BRANCH  29  31
ATOM     31  S   UNL     1      -2.184  -1.400  -1.578  0.00  0.00    +0.079 S 
ATOM     32  O   UNL     1      -3.490  -1.903  -1.822  0.00  0.00    -0.149 OA
ATOM     33  O   UNL     1      -1.144  -1.482  -2.543  0.00  0.00    -0.149 OA
BRANCH  31  34
ATOM     34  C   UNL     1      -1.593  -2.213  -0.131  0.00  0.00    +0.146 A 
ATOM     35  C   UNL     1      -2.299  -2.780   0.878  0.00  0.00    +0.036 A 
ATOM     36  C   UNL     1      -1.617  -3.372   1.924  0.00  0.00    +0.010 A 
ATOM     37  C   UNL     1      -0.261  -3.358   1.915  0.00  0.00    +0.047 A 
ATOM     38  S   UNL     1       0.090  -2.497   0.392  0.00  0.00    -0.077 S 
ENDBRANCH  31  34
ENDBRANCH  29  31
ENDBRANCH  12  29
TORSDOF 5
