REMARK  Name = ZINC67285702
REMARK  13 active torsions:
REMARK  status: ('A' for Active; 'I' for Inactive)
REMARK    1  A    between atoms: C_1  and  C_2
REMARK    2  A    between atoms: C_2  and  O_3
REMARK    3  A    between atoms: O_3  and  C_4
REMARK    4  A    between atoms: C_6  and  C_11
REMARK    5  A    between atoms: C_9  and  O_10
REMARK    6  A    between atoms: C_13  and  C_34
REMARK    7  A    between atoms: C_14  and  C_19
REMARK    8  A    between atoms: C_19  and  N_20
REMARK    9  A    between atoms: N_23  and  C_26
REMARK   10  A    between atoms: C_30  and  C_33
REMARK   11  A    between atoms: C_31  and  C_32
REMARK   12  A    between atoms: C_34  and  O_36
REMARK   13  A    between atoms: O_36  and  C_37
REMARK                            x       y       z     vdW  Elec       q    Type
REMARK                         _______ _______ _______ _____ _____    ______ ____
ROOT
ATOM      1  C   UNL     1      -0.255  -4.973  -0.546  0.00  0.00    +0.144 C 
ATOM      2  C   UNL     1       0.931  -5.332  -1.418  0.00  0.00    +0.079 C 
ATOM      3  C   UNL     1       1.233  -6.640  -1.562  0.00  0.00    +0.038 C 
ATOM      4  N   UNL     1       0.492  -7.606  -0.943  0.00  0.00    -0.271 N 
ATOM      5  C   UNL     1      -0.564  -7.346  -0.163  0.00  0.00    +0.304 C 
ATOM      6  O   UNL     1      -1.161  -8.274   0.346  0.00  0.00    -0.252 OA
ATOM      7  N   UNL     1      -0.986  -6.090   0.077  0.00  0.00    -0.288 N 
ATOM      8  H   UNL     1       0.746  -8.533  -1.077  0.00  0.00    +0.156 HD
ATOM      9  H   UNL     1      -1.754  -5.924   0.646  0.00  0.00    +0.151 HD
ENDROOT
BRANCH   1  12
ATOM     10  C   UNL     1       0.568  -1.862   1.434  0.00  0.00    +0.162 A 
ATOM     11  C   UNL     1       0.118  -2.696   0.423  0.00  0.00    +0.055 A 
ATOM     12  C   UNL     1       0.235  -4.068   0.555  0.00  0.00    -0.019 A 
ATOM     13  C   UNL     1       0.798  -4.610   1.695  0.00  0.00    +0.009 A 
ATOM     14  C   UNL     1       1.248  -3.783   2.708  0.00  0.00    +0.049 A 
ATOM     15  C   UNL     1       1.140  -2.408   2.579  0.00  0.00    +0.158 A 
BRANCH  15  16
ATOM     16  O   UNL     1       1.588  -1.593   3.571  0.00  0.00    -0.503 OA
ATOM     17  H   UNL     1       0.922  -1.388   4.242  0.00  0.00    +0.292 HD
ENDBRANCH  15  16
BRANCH  10  18
ATOM     18  O   UNL     1       0.455  -0.513   1.305  0.00  0.00    -0.489 OA
BRANCH  18  20
ATOM     19  C   UNL     1      -0.184   1.505   0.139  0.00  0.00    +0.048 C 
ATOM     20  C   UNL     1      -0.144  -0.024   0.103  0.00  0.00    +0.226 C 
ENDBRANCH  18  20
ENDBRANCH  10  18
ENDBRANCH   1  12
BRANCH   2  21
ATOM     21  C   UNL     1       1.697  -4.330  -2.059  0.00  0.00    +0.339 C 
ATOM     22  O   UNL     1       2.547  -3.721  -1.435  0.00  0.00    -0.245 OA
BRANCH  21  23
ATOM     23  O   UNL     1       1.486  -4.049  -3.361  0.00  0.00    -0.465 OA
ATOM     24  C   UNL     1       2.295  -3.026  -3.944  0.00  0.00    +0.280 C 
ENDBRANCH  21  23
ENDBRANCH   2  21
BRANCH   3  25
ATOM     25  C   UNL     1       2.404  -7.041  -2.421  0.00  0.00    +0.136 C 
BRANCH  25  26
ATOM     26  N   UNL     1       3.426  -7.686  -1.586  0.00  0.00    -0.294 NA
ATOM     27  C   UNL     1       3.998  -6.735  -0.624  0.00  0.00    +0.103 C 
ATOM     28  C   UNL     1       4.921  -7.484   0.343  0.00  0.00    +0.120 C 
ATOM     29  N   UNL     1       5.906  -8.241  -0.444  0.00  0.00    -0.327 N 
ATOM     30  C   UNL     1       5.415  -9.113  -1.521  0.00  0.00    +0.120 C 
ATOM     31  C   UNL     1       4.472  -8.300  -2.415  0.00  0.00    +0.103 C 
BRANCH  29  32
ATOM     32  C   UNL     1       7.273  -8.133  -0.176  0.00  0.00    +0.033 A 
ATOM     33  C   UNL     1       7.875  -8.996   0.731  0.00  0.00    +0.023 A 
ATOM     34  C   UNL     1       9.226  -8.888   0.993  0.00  0.00    +0.002 A 
ATOM     35  C   UNL     1       9.980  -7.920   0.354  0.00  0.00    +0.004 A 
ATOM     36  C   UNL     1       9.384  -7.059  -0.548  0.00  0.00    -0.046 A 
ATOM     37  C   UNL     1       8.034  -7.166  -0.820  0.00  0.00    -0.027 A 
ATOM     38  C   UNL     1       7.387  -6.231  -1.809  0.00  0.00    +0.046 C 
ATOM     39  C   UNL     1      10.210  -6.005  -1.241  0.00  0.00    +0.044 C 
ENDBRANCH  29  32
ENDBRANCH  25  26
ENDBRANCH   3  25
TORSDOF 9
