REMARK  Name = ZINC63804585
REMARK  11 active torsions:
REMARK  status: ('A' for Active; 'I' for Inactive)
REMARK    1  A    between atoms: C_1  and  C_2
REMARK    2  A    between atoms: C_5  and  S_10
REMARK    3  A    between atoms: C_6  and  C_9
REMARK    4  A    between atoms: C_7  and  C_8
REMARK    5  A    between atoms: S_10  and  N_13
REMARK    6  A    between atoms: N_13  and  C_14
REMARK    7  A    between atoms: C_14  and  C_15
REMARK    8  A    between atoms: C_15  and  C_16
REMARK    9  A    between atoms: C_19  and  O_27
REMARK   10  A    between atoms: C_24  and  C_26
REMARK   11  A    between atoms: O_27  and  C_28
REMARK                            x       y       z     vdW  Elec       q    Type
REMARK                         _______ _______ _______ _____ _____    ______ ____
ROOT
ATOM      1  C   UNL     1       3.216  -5.512   2.656  0.00  0.00    +0.050 C 
ENDROOT
BRANCH   1   2
ATOM      2  C   UNL     1       3.426  -5.375   4.142  0.00  0.00    -0.037 C 
ATOM      3  C   UNL     1       2.675  -4.656   5.006  0.00  0.00    +0.003 A 
ATOM      4  C   UNL     1       1.486  -3.816   4.831  0.00  0.00    +0.056 A 
ATOM      5  C   UNL     1       0.937  -3.203   5.907  0.00  0.00    +0.129 A 
ATOM      6  C   UNL     1       1.469  -3.340   7.201  0.00  0.00    +0.048 A 
ATOM      7  C   UNL     1       2.561  -4.091   7.463  0.00  0.00    +0.029 A 
ATOM      8  C   UNL     1       3.235  -4.800   6.370  0.00  0.00    +0.043 A 
ATOM      9  N   UNL     1       4.288  -5.577   6.350  0.00  0.00    -0.378 N 
ATOM     10  C   UNL     1       4.515  -6.021   4.970  0.00  0.00    +0.103 C 
ATOM     11  C   UNL     1       4.413  -7.545   4.879  0.00  0.00    +0.035 C 
ATOM     12  H   UNL     1       4.827  -5.822   7.119  0.00  0.00    +0.160 HD
BRANCH   5  13
ATOM     13  O   UNL     1      -0.165  -2.427   5.729  0.00  0.00    -0.420 OA
BRANCH  13  14
ATOM     14  C   UNL     1      -0.711  -1.799   6.891  0.00  0.00    +0.489 C 
ATOM     15  F   UNL     1      -1.085  -2.778   7.818  0.00  0.00    -0.149 F 
ATOM     16  F   UNL     1       0.252  -0.960   7.463  0.00  0.00    -0.149 F 
ATOM     17 CL   UNL     1      -2.156  -0.827   6.426  0.00  0.00    +0.000 Cl
ENDBRANCH  13  14
ENDBRANCH   5  13
ENDBRANCH   1   2
BRANCH   1  18
ATOM     18  C   UNL     1       2.005  -4.678   2.233  0.00  0.00    +0.110 C 
BRANCH  18  19
ATOM     19  N   UNL     1       1.792  -4.823   0.791  0.00  0.00    -0.190 NA
ATOM     20  H   UNL     1       2.491  -5.199   0.233  0.00  0.00    +0.148 HD
BRANCH  19  21
ATOM     21  S   UNL     1       0.359  -4.345   0.114  0.00  0.00    +0.059 S 
ATOM     22  O   UNL     1       0.434  -4.669  -1.268  0.00  0.00    -0.153 OA
ATOM     23  O   UNL     1       0.113  -3.022   0.574  0.00  0.00    -0.153 OA
BRANCH  21  28
ATOM     24  C   UNL     1      -3.977  -7.821   2.465  0.00  0.00    +0.044 C 
ATOM     25  C   UNL     1      -2.894  -6.952   1.878  0.00  0.00    -0.047 A 
ATOM     26  C   UNL     1      -2.902  -5.589   2.106  0.00  0.00    +0.005 A 
ATOM     27  C   UNL     1      -1.909  -4.793   1.567  0.00  0.00    +0.029 A 
ATOM     28  C   UNL     1      -0.907  -5.360   0.801  0.00  0.00    +0.108 A 
ATOM     29  C   UNL     1      -0.898  -6.723   0.575  0.00  0.00    -0.021 A 
ATOM     30  C   UNL     1      -1.889  -7.520   1.117  0.00  0.00    -0.043 A 
ATOM     31  C   UNL     1      -1.877  -9.008   0.874  0.00  0.00    +0.044 C 
ATOM     32  C   UNL     1       0.193  -7.341  -0.261  0.00  0.00    +0.046 C 
ENDBRANCH  21  28
ENDBRANCH  19  21
ENDBRANCH  18  19
ENDBRANCH   1  18
TORSDOF 7
