REMARK  Name = ZINC58091387
REMARK  9 active torsions:
REMARK  status: ('A' for Active; 'I' for Inactive)
REMARK    1  A    between atoms: C_1  and  N_2
REMARK    2  A    between atoms: N_2  and  C_3
REMARK    3  A    between atoms: C_3  and  N_5
REMARK    4  A    between atoms: N_5  and  N_6
REMARK    5  A    between atoms: C_7  and  C_9
REMARK    6  A    between atoms: C_9  and  C_10
REMARK    7  A    between atoms: C_10  and  C_11
REMARK    8  A    between atoms: C_11  and  O_12
REMARK    9  A    between atoms: O_12  and  C_13
REMARK                            x       y       z     vdW  Elec       q    Type
REMARK                         _______ _______ _______ _____ _____    ______ ____
ROOT
ATOM      1  N   UNL     1       0.016  -2.726   0.027  0.00  0.00    -0.235 N 
ATOM      2  C   UNL     1       0.035  -4.074   0.020  0.00  0.00    +0.229 C 
ATOM      3  O   UNL     1       0.559  -4.668  -0.898  0.00  0.00    -0.274 OA
ATOM      4  H   UNL     1      -0.403  -2.251   0.761  0.00  0.00    +0.173 HD
ENDROOT
BRANCH   1   5
ATOM      5  N   UNL     1       0.603  -2.012  -1.025  0.00  0.00    -0.246 N 
ATOM      6  H   UNL     1       1.023  -2.487  -1.760  0.00  0.00    +0.172 HD
BRANCH   5   7
ATOM      7  C   UNL     1       0.585  -0.664  -1.018  0.00  0.00    +0.147 C 
ATOM      8  S   UNL     1       1.302   0.208  -2.304  0.00  0.00    -0.017 S 
BRANCH   7  10
ATOM      9  C   UNL     1      -0.018   1.461   0.010  0.00  0.00    +0.127 C 
ATOM     10  N   UNL     1       0.002  -0.004   0.002  0.00  0.00    -0.329 N 
ATOM     11  H   UNL     1      -0.404  -0.499   0.731  0.00  0.00    +0.147 HD
ENDBRANCH   7  10
ENDBRANCH   5   7
ENDBRANCH   1   5
BRANCH   2  12
ATOM     12  C   UNL     1      -0.597  -4.842   1.152  0.00  0.00    +0.100 C 
BRANCH  12  13
ATOM     13  C   UNL     1      -0.439  -6.343   0.900  0.00  0.00    +0.050 C 
BRANCH  13  14
ATOM     14  C   UNL     1      -1.080  -7.123   2.050  0.00  0.00    +0.229 C 
BRANCH  14  15
ATOM     15  O   UNL     1      -0.933  -8.525   1.815  0.00  0.00    -0.492 OA
BRANCH  15  16
ATOM     16  C   UNL     1      -1.451  -9.365   2.749  0.00  0.00    +0.122 A 
ATOM     17  C   UNL     1      -2.094  -8.851   3.865  0.00  0.00    +0.046 A 
ATOM     18  C   UNL     1      -2.621  -9.706   4.814  0.00  0.00    +0.005 A 
ATOM     19  C   UNL     1      -2.508 -11.075   4.651  0.00  0.00    +0.015 A 
ATOM     20  C   UNL     1      -1.867 -11.591   3.538  0.00  0.00    +0.021 A 
ATOM     21  C   UNL     1      -1.344 -10.738   2.584  0.00  0.00    +0.061 A 
ATOM     22 BR   UNL     1      -1.713 -13.463   3.320  0.00  0.00    -0.050 Br
ENDBRANCH  15  16
ENDBRANCH  14  15
ENDBRANCH  13  14
ENDBRANCH  12  13
ENDBRANCH   2  12
TORSDOF 8
