REMARK  Name = ZINC26912154
REMARK  7 active torsions:
REMARK  status: ('A' for Active; 'I' for Inactive)
REMARK    1  A    between atoms: C_1  and  C_2
REMARK    2  A    between atoms: C_2  and  C_3
REMARK    3  A    between atoms: C_2  and  C_4
REMARK    4  A    between atoms: C_2  and  O_5
REMARK    5  A    between atoms: O_5  and  C_6
REMARK    6  A    between atoms: N_11  and  C_14
REMARK    7  A    between atoms: C_14  and  C_15
REMARK                            x       y       z     vdW  Elec       q    Type
REMARK                         _______ _______ _______ _____ _____    ______ ____
ROOT
ATOM      1  C   UNL     1      -1.054   0.710   2.197  0.00  0.00    +0.403 C 
ATOM      2  O   UNL     1      -0.790  -0.471   2.096  0.00  0.00    -0.226 OA
ATOM      3  N   UNL     1      -0.709   1.564   1.212  0.00  0.00    -0.265 N 
ATOM      4  C   UNL     1      -0.013   1.086   0.008  0.00  0.00    +0.126 C 
ATOM      5  C   UNL     1      -0.762   1.597  -1.227  0.00  0.00    +0.104 C 
ATOM      6  N   UNL     1      -0.913   3.056  -1.135  0.00  0.00    -0.294 NA
ATOM      7  C   UNL     1      -1.732   3.434   0.024  0.00  0.00    +0.104 C 
ATOM      8  C   UNL     1      -1.023   2.998   1.310  0.00  0.00    +0.126 C 
ENDROOT
BRANCH   1   9
ATOM      9  O   UNL     1      -1.690   1.167   3.292  0.00  0.00    -0.445 OA
BRANCH   9  11
ATOM     10  C   UNL     1      -0.754  -0.475   4.827  0.00  0.00    +0.055 C 
ATOM     11  C   UNL     1      -2.031   0.191   4.311  0.00  0.00    +0.107 C 
ATOM     12  C   UNL     1      -2.744   0.892   5.470  0.00  0.00    +0.055 C 
ATOM     13  C   UNL     1      -2.954  -0.871   3.712  0.00  0.00    +0.055 C 
ENDBRANCH   9  11
ENDBRANCH   1   9
BRANCH   6  14
ATOM     14  C   UNL     1      -1.472   3.606  -2.377  0.00  0.00    +0.140 C 
BRANCH  14  15
ATOM     15  C   UNL     1      -1.385   5.110  -2.344  0.00  0.00    +0.063 A 
ATOM     16  C   UNL     1      -0.575   5.775  -3.244  0.00  0.00    +0.095 A 
ATOM     17  C   UNL     1      -0.515   7.173  -3.196  0.00  0.00    +0.259 A 
ATOM     18  O   UNL     1       0.188   7.790  -3.981  0.00  0.00    -0.267 OA
ATOM     19  N   UNL     1      -1.242   7.827  -2.265  0.00  0.00    -0.267 N 
ATOM     20  C   UNL     1      -1.190   9.187  -2.204  0.00  0.00    +0.116 A 
ATOM     21  C   UNL     1      -1.910   9.865  -1.280  0.00  0.00    +0.058 A 
ATOM     22  C   UNL     1      -2.721   9.170  -0.371  0.00  0.00    +0.025 A 
ATOM     23  C   UNL     1      -2.780   7.809  -0.426  0.00  0.00    +0.048 A 
ATOM     24  C   UNL     1      -2.024   7.123  -1.393  0.00  0.00    +0.141 A 
ATOM     25  N   UNL     1      -2.081   5.793  -1.448  0.00  0.00    -0.233 NA
ATOM     26 CL   UNL     1      -1.829  11.598  -1.219  0.00  0.00    -0.082 Cl
ENDBRANCH  14  15
ENDBRANCH   6  14
TORSDOF 4
