REMARK  Name = ZINC38705721
REMARK  14 active torsions:
REMARK  status: ('A' for Active; 'I' for Inactive)
REMARK    1  A    between atoms: C_1  and  C_2
REMARK    2  A    between atoms: C_2  and  C_3
REMARK    3  A    between atoms: C_3  and  C_4
REMARK    4  A    between atoms: C_4  and  C_5
REMARK    5  A    between atoms: C_5  and  O_6
REMARK    6  A    between atoms: O_6  and  C_7
REMARK    7  A    between atoms: C_11  and  C_13
REMARK    8  A    between atoms: C_16  and  C_32
REMARK    9  A    between atoms: N_23  and  C_24
REMARK   10  A    between atoms: C_24  and  C_25
REMARK   11  A    between atoms: C_28  and  C_31
REMARK   12  A    between atoms: C_33  and  C_40
REMARK   13  A    between atoms: C_35  and  C_39
REMARK   14  A    between atoms: C_37  and  O_38
REMARK                            x       y       z     vdW  Elec       q    Type
REMARK                         _______ _______ _______ _____ _____    ______ ____
ROOT
ATOM      1  C   UNL     1       2.905  -8.127   4.658  0.00  0.00    +0.142 C 
ATOM      2  C   UNL     1       1.955  -8.633   5.708  0.00  0.00    +0.035 A 
ATOM      3  C   UNL     1       0.633  -8.726   6.156  0.00  0.00    +0.102 A 
ATOM      4  N   UNL     1       0.646  -9.408   7.285  0.00  0.00    -0.173 NA
ATOM      5  N   UNL     1       1.844  -9.755   7.593  0.00  0.00    -0.272 N 
ATOM      6  H   UNL     1       2.092 -10.264   8.381  0.00  0.00    +0.189 HD
ATOM      7  C   UNL     1       2.718  -9.301   6.646  0.00  0.00    +0.126 A 
ATOM      8  C   UNL     1       4.125  -9.241   6.232  0.00  0.00    +0.266 C 
ATOM      9  O   UNL     1       5.051  -9.735   6.846  0.00  0.00    -0.268 OA
ATOM     10  N   UNL     1       4.245  -8.560   5.076  0.00  0.00    -0.281 N 
ENDROOT
BRANCH   3  11
ATOM     11  C   UNL     1      -0.564  -8.160   5.485  0.00  0.00    +0.047 A 
ATOM     12  C   UNL     1      -1.476  -7.396   6.209  0.00  0.00    -0.037 A 
ATOM     13  C   UNL     1      -2.587  -6.872   5.581  0.00  0.00    +0.007 A 
ATOM     14  C   UNL     1      -2.800  -7.103   4.233  0.00  0.00    -0.047 A 
ATOM     15  C   UNL     1      -1.901  -7.860   3.506  0.00  0.00    +0.049 A 
ATOM     16  C   UNL     1      -0.778  -8.387   4.123  0.00  0.00    +0.127 A 
ATOM     17  C   UNL     1      -4.016  -6.527   3.556  0.00  0.00    +0.044 C 
ATOM     18  C   UNL     1      -1.249  -7.142   7.677  0.00  0.00    +0.044 C 
BRANCH  16  19
ATOM     19  O   UNL     1       0.110  -9.126   3.407  0.00  0.00    -0.506 OA
ATOM     20  H   UNL     1      -0.129 -10.060   3.329  0.00  0.00    +0.292 HD
ENDBRANCH  16  19
ENDBRANCH   3  11
BRANCH   1  25
ATOM     21  C   UNL     1       2.296  -4.621   3.387  0.00  0.00    +0.121 A 
ATOM     22  C   UNL     1       2.739  -3.860   4.459  0.00  0.00    +0.045 A 
ATOM     23  C   UNL     1       3.233  -4.482   5.589  0.00  0.00    +0.004 A 
ATOM     24  C   UNL     1       3.286  -5.862   5.652  0.00  0.00    +0.006 A 
ATOM     25  C   UNL     1       2.846  -6.623   4.585  0.00  0.00    -0.019 A 
ATOM     26  C   UNL     1       2.345  -6.006   3.455  0.00  0.00    +0.051 A 
BRANCH  21  27
ATOM     27  O   UNL     1       1.809  -4.011   2.274  0.00  0.00    -0.492 OA
BRANCH  27  28
ATOM     28  C   UNL     1       1.788  -2.583   2.274  0.00  0.00    +0.229 C 
BRANCH  28  29
ATOM     29  C   UNL     1       1.211  -2.081   0.949  0.00  0.00    +0.041 C 
BRANCH  29  30
ATOM     30  C   UNL     1       1.189  -0.551   0.948  0.00  0.00    +0.003 C 
BRANCH  30  32
ATOM     31  C   UNL     1       0.590   1.480  -0.377  0.00  0.00    +0.004 C 
ATOM     32  C   UNL     1       0.612  -0.050  -0.377  0.00  0.00    -0.003 C 
ENDBRANCH  30  32
ENDBRANCH  29  30
ENDBRANCH  28  29
ENDBRANCH  27  28
ENDBRANCH  21  27
ENDBRANCH   1  25
BRANCH  10  33
ATOM     33  C   UNL     1       5.495  -8.297   4.360  0.00  0.00    +0.144 C 
BRANCH  33  34
ATOM     34  C   UNL     1       6.087  -6.998   4.842  0.00  0.00    -0.030 A 
ATOM     35  C   UNL     1       5.745  -5.811   4.223  0.00  0.00    +0.005 A 
ATOM     36  C   UNL     1       6.288  -4.619   4.666  0.00  0.00    +0.003 A 
ATOM     37  C   UNL     1       7.172  -4.615   5.728  0.00  0.00    -0.050 A 
ATOM     38  C   UNL     1       7.513  -5.803   6.348  0.00  0.00    +0.003 A 
ATOM     39  C   UNL     1       6.967  -6.994   5.908  0.00  0.00    +0.005 A 
ATOM     40  C   UNL     1       7.765  -3.316   6.211  0.00  0.00    +0.044 C 
ENDBRANCH  33  34
ENDBRANCH  10  33
TORSDOF 10
