REMARK  Name = ZINC15830059
REMARK  6 active torsions:
REMARK  status: ('A' for Active; 'I' for Inactive)
REMARK    1  A    between atoms: C_1  and  C_2
REMARK    2  A    between atoms: C_10  and  C_22
REMARK    3  A    between atoms: C_13  and  C_15
REMARK    4  A    between atoms: C_20  and  O_21
REMARK    5  A    between atoms: C_25  and  S_28
REMARK    6  A    between atoms: S_28  and  C_29
REMARK                            x       y       z     vdW  Elec       q    Type
REMARK                         _______ _______ _______ _____ _____    ______ ____
ROOT
ATOM      1  C   UNL     1      -8.083   4.977   0.283  0.00  0.00    +0.109 C 
ATOM      2  C   UNL     1      -7.383   4.105   1.293  0.00  0.00    +0.212 C 
ATOM      3  O   UNL     1      -7.768   4.081   2.443  0.00  0.00    -0.276 OA
ATOM      4  N   UNL     1      -6.330   3.352   0.919  0.00  0.00    -0.302 N 
ATOM      5  C   UNL     1      -5.562   2.591   1.913  0.00  0.00    +0.108 C 
ATOM      6  C   UNL     1      -5.495   1.126   1.471  0.00  0.00    +0.029 C 
ATOM      7  C   UNL     1      -4.927   1.051   0.051  0.00  0.00    +0.032 C 
ATOM      8  C   UNL     1      -5.858   1.802  -0.906  0.00  0.00    +0.029 C 
ATOM      9  C   UNL     1      -5.928   3.275  -0.492  0.00  0.00    +0.108 C 
ATOM     10  C   UNL     1      -3.814  -1.058   0.420  0.00  0.00    -0.032 C 
ATOM     11  C   UNL     1      -2.447  -0.497   0.011  0.00  0.00    +0.044 C 
ATOM     12  C   UNL     1      -2.505   1.006   0.013  0.00  0.00    +0.044 C 
ATOM     13  N   UNL     1      -3.603   1.664   0.023  0.00  0.00    -0.300 NA
ATOM     14  N   UNL     1      -4.850  -0.359  -0.365  0.00  0.00    +0.400 N 
ATOM     15  H   UNL     1      -4.611  -0.407  -1.363  0.00  0.00    -0.081 HD
ATOM     16  H   UNL     1      -5.759  -0.810  -0.209  0.00  0.00    -0.081 HD
ENDROOT
BRANCH  12  17
ATOM     17  C   UNL     1      -1.237   1.756  -0.005  0.00  0.00    +0.037 A 
ATOM     18  C   UNL     1      -0.017   1.075  -0.017  0.00  0.00    +0.013 A 
ATOM     19  C   UNL     1       1.165   1.783  -0.039  0.00  0.00    +0.001 A 
ATOM     20  C   UNL     1       1.150   3.168  -0.043  0.00  0.00    +0.004 A 
ATOM     21  C   UNL     1      -0.048   3.854  -0.026  0.00  0.00    +0.046 A 
ATOM     22  C   UNL     1      -1.247   3.158  -0.004  0.00  0.00    +0.126 A 
BRANCH  22  23
ATOM     23  O   UNL     1      -2.426   3.831   0.014  0.00  0.00    -0.506 OA
ATOM     24  H   UNL     1      -2.782   4.023  -0.864  0.00  0.00    +0.292 HD
ENDBRANCH  22  23
ENDBRANCH  12  17
BRANCH  10  25
ATOM     25  C   UNL     1      -3.866  -2.534   0.122  0.00  0.00    -0.061 A 
ATOM     26  C   UNL     1      -4.088  -2.970  -1.171  0.00  0.00    +0.003 A 
ATOM     27  C   UNL     1      -4.130  -4.322  -1.449  0.00  0.00    +0.015 A 
ATOM     28  C   UNL     1      -3.960  -5.245  -0.424  0.00  0.00    +0.008 A 
ATOM     29  C   UNL     1      -3.744  -4.804   0.876  0.00  0.00    +0.015 A 
ATOM     30  C   UNL     1      -3.697  -3.450   1.145  0.00  0.00    +0.003 A 
BRANCH  28  31
ATOM     31  S   UNL     1      -4.020  -6.972  -0.772  0.00  0.00    -0.129 S 
ATOM     32  C   UNL     1      -4.318  -7.049  -2.560  0.00  0.00    +0.090 C 
ENDBRANCH  28  31
ENDBRANCH  10  25
TORSDOF 4
