REMARK  Name = ZINC09357313
REMARK  8 active torsions:
REMARK  status: ('A' for Active; 'I' for Inactive)
REMARK    1  A    between atoms: C_1  and  C_2
REMARK    2  A    between atoms: C_2  and  C_3
REMARK    3  A    between atoms: C_3  and  C_5
REMARK    4  A    between atoms: C_3  and  N_6
REMARK    5  A    between atoms: C_9  and  O_11
REMARK    6  A    between atoms: C_12  and  C_19
REMARK    7  A    between atoms: C_24  and  O_25
REMARK    8  A    between atoms: O_25  and  C_26
REMARK                            x       y       z     vdW  Elec       q    Type
REMARK                         _______ _______ _______ _____ _____    ______ ____
ROOT
ATOM      1  N   UNL     1       0.866  -1.969   1.174  0.00  0.00    -0.244 N 
ATOM      2  C   UNL     1       2.045  -2.677   1.166  0.00  0.00    +0.132 A 
ATOM      3  C   UNL     1       1.721  -3.986   1.097  0.00  0.00    +0.072 A 
ATOM      4  C   UNL     1       0.310  -4.080   1.061  0.00  0.00    +0.238 A 
ATOM      5  N   UNL     1      -0.191  -2.877   1.112  0.00  0.00    -0.131 NA
ATOM      6  C   UNL     1       2.598  -5.198   1.061  0.00  0.00    +0.119 C 
ATOM      7  S   UNL     1       4.100  -5.017   2.027  0.00  0.00    -0.138 S 
ATOM      8  C   UNL     1       5.085  -3.771   1.183  0.00  0.00    +0.166 C 
ATOM      9  C   UNL     1       4.499  -2.417   1.269  0.00  0.00    +0.228 C 
ATOM     10  O   UNL     1       5.304  -1.521   1.411  0.00  0.00    -0.275 OA
ATOM     11  N   UNL     1       3.259  -2.034   1.217  0.00  0.00    -0.270 N 
ATOM     12  H   UNL     1       3.168  -1.068   1.212  0.00  0.00    +0.156 HD
ENDROOT
BRANCH   6  13
ATOM     13  C   UNL     1       1.822  -6.374   1.596  0.00  0.00    +0.012 A 
ATOM     14  C   UNL     1       1.167  -7.224   0.725  0.00  0.00    +0.008 A 
ATOM     15  C   UNL     1       0.454  -8.302   1.216  0.00  0.00    +0.001 A 
ATOM     16  C   UNL     1       0.394  -8.533   2.578  0.00  0.00    +0.004 A 
ATOM     17  C   UNL     1       1.047  -7.686   3.452  0.00  0.00    +0.046 A 
ATOM     18  C   UNL     1       1.768  -6.606   2.962  0.00  0.00    +0.125 A 
BRANCH  18  19
ATOM     19  O   UNL     1       2.415  -5.775   3.820  0.00  0.00    -0.495 OA
ATOM     20  C   UNL     1       2.316  -6.075   5.214  0.00  0.00    +0.277 C 
ENDBRANCH  18  19
ENDBRANCH   6  13
BRANCH   1  21
ATOM     21  C   UNL     1       0.742  -0.511   1.242  0.00  0.00    +0.106 C 
ATOM     22  C   UNL     1      -0.042  -0.124   2.497  0.00  0.00    +0.032 C 
BRANCH  21  24
ATOM     23  C   UNL     1      -0.019   1.526   0.010  0.00  0.00    +0.006 C 
ATOM     24  C   UNL     1       0.002  -0.004   0.002  0.00  0.00    +0.023 C 
ENDBRANCH  21  24
ENDBRANCH   1  21
BRANCH   4  25
ATOM     25  O   UNL     1      -0.406  -5.234   0.989  0.00  0.00    -0.491 OA
ATOM     26  H   UNL     1      -0.633  -5.611   1.850  0.00  0.00    +0.294 HD
ENDBRANCH   4  25
TORSDOF 5
