REMARK  Name = ZINC20517474
REMARK  5 active torsions:
REMARK  status: ('A' for Active; 'I' for Inactive)
REMARK    1  A    between atoms: C_1  and  C_2
REMARK    2  A    between atoms: C_7  and  O_10
REMARK    3  A    between atoms: O_10  and  C_11
REMARK    4  A    between atoms: C_12  and  C_21
REMARK    5  A    between atoms: C_21  and  O_22
REMARK                            x       y       z     vdW  Elec       q    Type
REMARK                         _______ _______ _______ _____ _____    ______ ____
ROOT
ATOM      1  C   UNL     1       1.099   2.032   0.003  0.00  0.00    +0.221 A 
ATOM      2  C   UNL     1       2.353   1.410  -0.014  0.00  0.00    +0.040 A 
ATOM      3  C   UNL     1       2.437   0.049  -0.021  0.00  0.00    +0.021 A 
ATOM      4  C   UNL     1       1.239  -0.693  -0.013  0.00  0.00    +0.001 A 
ATOM      5  C   UNL     1       1.251  -2.097  -0.020  0.00  0.00    +0.010 A 
ATOM      6  C   UNL     1       0.073  -2.780  -0.012  0.00  0.00    +0.001 A 
ATOM      7  C   UNL     1      -1.145  -2.104   0.003  0.00  0.00    +0.002 A 
ATOM      8  C   UNL     1      -1.193  -0.744   0.010  0.00  0.00    +0.028 A 
ATOM      9  C   UNL     1       0.002  -0.004   0.002  0.00  0.00    +0.075 A 
ATOM     10  N   UNL     1      -0.016   1.334   0.009  0.00  0.00    -0.213 NA
ENDROOT
BRANCH   1  11
ATOM     11  O   UNL     1       1.032   3.386   0.010  0.00  0.00    -0.473 OA
BRANCH  11  17
ATOM     12  C   UNL     1      -1.589   7.302  -1.386  0.00  0.00    +0.007 C 
ATOM     13  C   UNL     1      -1.629   5.949  -0.672  0.00  0.00    -0.011 C 
ATOM     14  C   UNL     1      -2.080   6.150   0.776  0.00  0.00    +0.003 C 
ATOM     15  C   UNL     1      -2.119   4.798   1.491  0.00  0.00    +0.004 C 
ATOM     16  C   UNL     1      -0.723   4.171   1.474  0.00  0.00    +0.044 C 
ATOM     17  C   UNL     1      -0.272   3.970   0.026  0.00  0.00    +0.175 C 
ATOM     18  C   UNL     1      -0.233   5.323  -0.688  0.00  0.00    +0.048 C 
ENDBRANCH  11  17
ENDBRANCH   1  11
BRANCH   2  19
ATOM     19  C   UNL     1       3.609   2.243  -0.022  0.00  0.00    +0.196 C 
BRANCH  19  20
ATOM     20  O   UNL     1       4.751   1.384  -0.038  0.00  0.00    -0.390 OA
ATOM     21  H   UNL     1       5.763   1.815  -0.046  0.00  0.00    +0.210 HD
ENDBRANCH  19  20
ENDBRANCH   2  19
TORSDOF 4
