REMARK  Name = ZINC08053496
REMARK  7 active torsions:
REMARK  status: ('A' for Active; 'I' for Inactive)
REMARK    1  A    between atoms: C_1  and  C_2
REMARK    2  A    between atoms: C_2  and  C_3
REMARK    3  A    between atoms: N_5  and  C_6
REMARK    4  A    between atoms: C_6  and  N_8
REMARK    5  A    between atoms: N_8  and  C_9
REMARK    6  A    between atoms: C_9  and  C_10
REMARK    7  A    between atoms: C_13  and  C_15
REMARK                            x       y       z     vdW  Elec       q    Type
REMARK                         _______ _______ _______ _____ _____    ______ ____
ROOT
ATOM      1  C   UNL     1      -4.487  -5.663   0.015  0.00  0.00    +0.123 A 
ATOM      2  C   UNL     1      -4.471  -6.454   1.105  0.00  0.00    +0.047 A 
ATOM      3  C   UNL     1      -4.455  -7.787   0.647  0.00  0.00    +0.050 A 
ATOM      4  C   UNL     1      -4.462  -7.735  -0.711  0.00  0.00    +0.135 A 
ATOM      5  O   UNL     1      -4.487  -6.440  -1.081  0.00  0.00    -0.458 OA
ENDROOT
BRANCH   4   6
ATOM      6  C   UNL     1      -4.450  -8.897  -1.624  0.00  0.00    +0.017 A 
ATOM      7  C   UNL     1      -4.436 -10.194  -1.107  0.00  0.00    +0.012 A 
ATOM      8  C   UNL     1      -4.425 -11.274  -1.964  0.00  0.00    +0.016 A 
ATOM      9  C   UNL     1      -4.428 -11.075  -3.334  0.00  0.00    +0.018 A 
ATOM     10  C   UNL     1      -4.442  -9.792  -3.853  0.00  0.00    +0.016 A 
ATOM     11  C   UNL     1      -4.459  -8.703  -3.006  0.00  0.00    +0.012 A 
ATOM     12 BR   UNL     1      -4.412 -12.562  -4.502  0.00  0.00    -0.050 Br
ENDBRANCH   4   6
BRANCH   1  13
ATOM     13  C   UNL     1      -4.507  -4.156   0.023  0.00  0.00    +0.177 C 
BRANCH  13  14
ATOM     14  N   UNL     1      -3.133  -3.649   0.012  0.00  0.00    -0.319 N 
ATOM     15  H   UNL     1      -2.387  -4.269   0.002  0.00  0.00    +0.148 HD
BRANCH  14  16
ATOM     16  C   UNL     1      -2.904  -2.321   0.017  0.00  0.00    +0.137 C 
ATOM     17  S   UNL     1      -4.221  -1.226   0.036  0.00  0.00    -0.018 S 
BRANCH  16  20
ATOM     18  C   UNL     1      -1.412  -0.526   0.013  0.00  0.00    +0.218 C 
ATOM     19  O   UNL     1      -2.344   0.250   0.026  0.00  0.00    -0.275 OA
ATOM     20  N   UNL     1      -1.640  -1.854   0.008  0.00  0.00    -0.268 N 
ATOM     21  H   UNL     1      -0.894  -2.474  -0.003  0.00  0.00    +0.156 HD
BRANCH  18  23
ATOM     22  C   UNL     1      -0.019   1.526   0.010  0.00  0.00    +0.013 C 
ATOM     23  C   UNL     1       0.002  -0.004   0.002  0.00  0.00    +0.093 C 
ENDBRANCH  18  23
ENDBRANCH  16  20
ENDBRANCH  14  16
ENDBRANCH  13  14
ENDBRANCH   1  13
TORSDOF 6
