REMARK  Name = ZINC42412281
REMARK  3 active torsions:
REMARK  status: ('A' for Active; 'I' for Inactive)
REMARK    1  A    between atoms: C_5  and  C_7
REMARK    2  A    between atoms: C_7  and  C_9
REMARK    3  A    between atoms: C_7  and  N_19
REMARK                            x       y       z     vdW  Elec       q    Type
REMARK                         _______ _______ _______ _____ _____    ______ ____
ROOT
ATOM      1  C   UNL     1       1.250  -2.168  -0.023  0.00  0.00    +0.042 C 
ENDROOT
BRANCH   1   2
ATOM      2  C   UNL     1       2.064  -2.645  -1.198  0.00  0.00    +0.098 A 
ATOM      3  C   UNL     1       3.337  -3.059  -1.132  0.00  0.00    +0.052 A 
ATOM      4  C   UNL     1       3.720  -3.426  -2.501  0.00  0.00    +0.021 A 
ATOM      5  C   UNL     1       4.884  -3.918  -3.089  0.00  0.00    +0.012 A 
ATOM      6  C   UNL     1       4.913  -4.163  -4.434  0.00  0.00    +0.002 A 
ATOM      7  C   UNL     1       3.792  -3.925  -5.216  0.00  0.00    +0.019 A 
ATOM      8  C   UNL     1       2.631  -3.439  -4.652  0.00  0.00    +0.061 A 
ATOM      9  C   UNL     1       2.581  -3.183  -3.286  0.00  0.00    +0.149 A 
ATOM     10  O   UNL     1       1.617  -2.724  -2.463  0.00  0.00    -0.460 OA
ATOM     11 BR   UNL     1       1.113  -3.120  -5.733  0.00  0.00    -0.046 Br
ENDBRANCH   1   2
BRANCH   1  16
ATOM     12  C   UNL     1      -0.017   1.382   0.010  0.00  0.00    +0.003 A 
ATOM     13  C   UNL     1       1.194   2.059   0.002  0.00  0.00    +0.020 A 
ATOM     14  C   UNL     1       2.370   1.334  -0.013  0.00  0.00    +0.111 A 
ATOM     15  N   UNL     1       2.350   0.015  -0.021  0.00  0.00    -0.261 NA
ATOM     16  C   UNL     1       1.218  -0.661  -0.014  0.00  0.00    +0.034 A 
ATOM     17  C   UNL     1       0.002  -0.004   0.002  0.00  0.00    +0.022 A 
ENDBRANCH   1  16
BRANCH   1  18
ATOM     18  N   UNL     1      -0.119  -2.686  -0.133  0.00  0.00    +0.388 N 
ATOM     19  H   UNL     1      -0.537  -2.353  -0.989  0.00  0.00    -0.088 HD
ATOM     20  H   UNL     1      -0.098  -3.695  -0.140  0.00  0.00    -0.088 HD
ATOM     21  H   UNL     1      -0.664  -2.366   0.653  0.00  0.00    -0.088 HD
ENDBRANCH   1  18
TORSDOF 3
