REMARK  Name = ZINC20115319
REMARK  11 active torsions:
REMARK  status: ('A' for Active; 'I' for Inactive)
REMARK    1  A    between atoms: C_1  and  C_2
REMARK    2  A    between atoms: C_2  and  C_3
REMARK    3  A    between atoms: C_2  and  C_4
REMARK    4  A    between atoms: C_7  and  O_11
REMARK    5  A    between atoms: O_11  and  C_12
REMARK    6  A    between atoms: C_12  and  C_13
REMARK    7  A    between atoms: N_15  and  N_16
REMARK    8  A    between atoms: C_17  and  C_18
REMARK    9  A    between atoms: C_17  and  C_19
REMARK   10  A    between atoms: C_21  and  O_26
REMARK   11  A    between atoms: C_24  and  O_25
REMARK                            x       y       z     vdW  Elec       q    Type
REMARK                         _______ _______ _______ _____ _____    ______ ____
ROOT
ATOM      1  C   UNL     1      -7.567  -1.988   0.871  0.00  0.00    +0.270 C 
ATOM      2  O   UNL     1      -7.823  -2.663  -0.105  0.00  0.00    -0.270 OA
ATOM      3  N   UNL     1      -8.482  -1.846   1.850  0.00  0.00    -0.204 N 
ATOM      4  H   UNL     1      -8.277  -1.307   2.630  0.00  0.00    +0.177 HD
ENDROOT
BRANCH   3   5
ATOM      5  N   UNL     1      -9.728  -2.476   1.742  0.00  0.00    -0.184 NA
ATOM      6  C   UNL     1     -10.573  -2.417   2.725  0.00  0.00    +0.067 C 
ATOM      7  C   UNL     1     -11.859  -3.200   2.662  0.00  0.00    +0.068 C 
BRANCH   6   8
ATOM      8  C   UNL     1     -10.274  -1.586   3.905  0.00  0.00    +0.042 A 
ATOM      9  C   UNL     1     -10.196  -0.197   3.782  0.00  0.00    +0.058 A 
ATOM     10  C   UNL     1      -9.915   0.578   4.893  0.00  0.00    +0.118 A 
ATOM     11  C   UNL     1      -9.711  -0.022   6.129  0.00  0.00    +0.049 A 
ATOM     12  C   UNL     1      -9.787  -1.396   6.258  0.00  0.00    +0.049 A 
ATOM     13  C   UNL     1     -10.072  -2.184   5.155  0.00  0.00    +0.126 A 
BRANCH  13  14
ATOM     14  O   UNL     1     -10.151  -3.534   5.285  0.00  0.00    -0.506 OA
ATOM     15  H   UNL     1      -9.329  -3.998   5.077  0.00  0.00    +0.292 HD
ENDBRANCH  13  14
BRANCH  10  16
ATOM     16  O   UNL     1      -9.838   1.931   4.776  0.00  0.00    -0.507 OA
ATOM     17  H   UNL     1     -10.680   2.386   4.915  0.00  0.00    +0.292 HD
ENDBRANCH  10  16
ENDBRANCH   6   8
ENDBRANCH   3   5
BRANCH   1  18
ATOM     18  C   UNL     1      -6.226  -1.310   0.987  0.00  0.00    +0.326 C 
BRANCH  18  19
ATOM     19  O   UNL     1      -5.438  -1.611  -0.167  0.00  0.00    -0.482 OA
BRANCH  19  23
ATOM     20  C   UNL     1      -1.652   0.022  -0.327  0.00  0.00    -0.044 A 
ATOM     21  C   UNL     1      -2.468   0.273   0.761  0.00  0.00    +0.007 A 
ATOM     22  C   UNL     1      -3.736  -0.272   0.817  0.00  0.00    +0.047 A 
ATOM     23  C   UNL     1      -4.191  -1.073  -0.220  0.00  0.00    +0.135 A 
ATOM     24  C   UNL     1      -3.372  -1.324  -1.312  0.00  0.00    +0.060 A 
ATOM     25  C   UNL     1      -2.106  -0.771  -1.365  0.00  0.00    +0.022 A 
ATOM     26 BR   UNL     1      -3.989  -2.415  -2.727  0.00  0.00    -0.047 Br
BRANCH  20  28
ATOM     27  C   UNL     1      -0.370   2.144  -0.336  0.00  0.00    +0.012 C 
ATOM     28  C   UNL     1      -0.270   0.618  -0.385  0.00  0.00    +0.013 C 
ATOM     29  C   UNL     1       0.550   0.122   0.808  0.00  0.00    +0.012 C 
ENDBRANCH  20  28
ENDBRANCH  19  23
ENDBRANCH  18  19
ENDBRANCH   1  18
TORSDOF 8
