REMARK  Name = ZINC05234366
REMARK  8 active torsions:
REMARK  status: ('A' for Active; 'I' for Inactive)
REMARK    1  A    between atoms: C_1  and  C_2
REMARK    2  A    between atoms: C_7  and  S_12
REMARK    3  A    between atoms: S_12  and  N_15
REMARK    4  A    between atoms: N_15  and  C_16
REMARK    5  A    between atoms: C_18  and  O_24
REMARK    6  A    between atoms: C_21  and  O_22
REMARK    7  A    between atoms: O_22  and  C_23
REMARK    8  A    between atoms: O_24  and  C_25
REMARK                            x       y       z     vdW  Elec       q    Type
REMARK                         _______ _______ _______ _____ _____    ______ ____
ROOT
ATOM      1  S   UNL     1       0.069  -4.633  -0.050  0.00  0.00    +0.072 S 
ATOM      2  O   UNL     1      -1.168  -5.135  -0.538  0.00  0.00    -0.150 OA
ATOM      3  O   UNL     1       1.317  -5.000  -0.621  0.00  0.00    -0.150 OA
ENDROOT
BRANCH   1  10
ATOM      4  C   UNL     1       0.757   3.523  -0.510  0.00  0.00    +0.044 C 
ATOM      5  C   UNL     1       0.841   2.021  -0.431  0.00  0.00    -0.050 A 
ATOM      6  C   UNL     1       2.090   1.401  -0.436  0.00  0.00    +0.004 A 
ATOM      7  C   UNL     1       2.200   0.047  -0.366  0.00  0.00    +0.009 A 
ATOM      8  C   UNL     1       1.040  -0.743  -0.288  0.00  0.00    -0.016 A 
ATOM      9  C   UNL     1       1.115  -2.144  -0.216  0.00  0.00    +0.037 A 
ATOM     10  C   UNL     1      -0.029  -2.877  -0.141  0.00  0.00    +0.109 A 
ATOM     11  C   UNL     1      -1.278  -2.258  -0.137  0.00  0.00    +0.029 A 
ATOM     12  C   UNL     1      -1.389  -0.903  -0.206  0.00  0.00    +0.010 A 
ATOM     13  C   UNL     1      -0.229  -0.113  -0.284  0.00  0.00    -0.018 A 
ATOM     14  C   UNL     1      -0.304   1.288  -0.357  0.00  0.00    +0.012 A 
ENDBRANCH   1  10
BRANCH   1  15
ATOM     15  N   UNL     1       0.144  -5.037   1.554  0.00  0.00    -0.213 N 
ATOM     16  H   UNL     1       0.914  -5.516   1.898  0.00  0.00    +0.174 HD
BRANCH  15  17
ATOM     17  C   UNL     1      -0.904  -4.687   2.413  0.00  0.00    +0.093 A 
ATOM     18  C   UNL     1      -2.213  -4.704   1.956  0.00  0.00    +0.073 A 
ATOM     19  C   UNL     1      -3.249  -4.357   2.810  0.00  0.00    +0.122 A 
ATOM     20  C   UNL     1      -2.976  -3.994   4.120  0.00  0.00    +0.049 A 
ATOM     21  C   UNL     1      -1.672  -3.976   4.579  0.00  0.00    +0.051 A 
ATOM     22  C   UNL     1      -0.634  -4.326   3.732  0.00  0.00    +0.143 A 
BRANCH  22  23
ATOM     23  O   UNL     1       0.649  -4.313   4.185  0.00  0.00    -0.493 OA
ATOM     24  C   UNL     1       0.852  -3.933   5.548  0.00  0.00    +0.277 C 
ENDBRANCH  22  23
BRANCH  19  25
ATOM     25  O   UNL     1      -4.532  -4.374   2.362  0.00  0.00    -0.495 OA
ATOM     26  C   UNL     1      -5.550  -4.005   3.296  0.00  0.00    +0.277 C 
ENDBRANCH  19  25
ENDBRANCH  15  17
ENDBRANCH   1  15
TORSDOF 5
