REMARK  Name = ZINC01729872
REMARK  2 active torsions:
REMARK  status: ('A' for Active; 'I' for Inactive)
REMARK    1  A    between atoms: C_1  and  C_2
REMARK    2  A    between atoms: C_6  and  O_12
REMARK                            x       y       z     vdW  Elec       q    Type
REMARK                         _______ _______ _______ _____ _____    ______ ____
ROOT
ATOM      1  C   UNL     1       3.538   2.232  -1.297  0.00  0.00    +0.011 C 
ATOM      2  C   UNL     1       2.129   1.635  -1.281  0.00  0.00    -0.023 C 
ATOM      3  C   UNL     1       1.362   2.144  -2.502  0.00  0.00    +0.007 C 
ATOM      4  C   UNL     1      -0.059   1.576  -2.487  0.00  0.00    +0.003 C 
ATOM      5  C   UNL     1      -0.775   2.037  -1.216  0.00  0.00    +0.035 C 
ATOM      6  C   UNL     1      -0.019   1.527   0.010  0.00  0.00    +0.073 C 
ATOM      7  C   UNL     1       1.413   2.061  -0.000  0.00  0.00    +0.042 C 
ATOM      8  C   UNL     1       0.002  -0.004   0.002  0.00  0.00    +0.109 C 
ATOM      9  C   UNL     1       0.836  -0.469  -1.171  0.00  0.00    +0.137 C 
ATOM     10  O   UNL     1       0.404  -1.278  -1.957  0.00  0.00    -0.297 OA
ATOM     11  C   UNL     1       2.225   0.107  -1.335  0.00  0.00    +0.081 C 
ENDROOT
BRANCH   6  12
ATOM     12  O   UNL     1      -0.685   1.985   1.189  0.00  0.00    -0.388 OA
ATOM     13  H   UNL     1      -1.602   1.685   1.264  0.00  0.00    +0.210 HD
ENDBRANCH   6  12
TORSDOF 1
