REMARK  Name = ZINC39688297
REMARK  11 active torsions:
REMARK  status: ('A' for Active; 'I' for Inactive)
REMARK    1  A    between atoms: C_1  and  C_2
REMARK    2  A    between atoms: C_2  and  C_3
REMARK    3  A    between atoms: C_3  and  C_4
REMARK    4  A    between atoms: C_4  and  C_5
REMARK    5  A    between atoms: C_5  and  C_7
REMARK    6  A    between atoms: C_5  and  C_8
REMARK    7  A    between atoms: C_12  and  C_21
REMARK    8  A    between atoms: N_23  and  C_24
REMARK    9  A    between atoms: C_24  and  C_25
REMARK   10  A    between atoms: C_25  and  O_26
REMARK   11  A    between atoms: O_26  and  C_27
REMARK                            x       y       z     vdW  Elec       q    Type
REMARK                         _______ _______ _______ _____ _____    ______ ____
ROOT
ATOM      1  C   UNL     1       1.551  -4.181  -2.453  0.00  0.00    +0.218 C 
ATOM      2  O   UNL     1       1.171  -4.816  -1.491  0.00  0.00    -0.275 OA
ATOM      3  N   UNL     1       2.189  -4.805  -3.463  0.00  0.00    -0.300 N 
ATOM      4  C   UNL     1       2.728  -4.204  -4.705  0.00  0.00    +0.121 C 
ATOM      5  C   UNL     1       4.066  -4.938  -4.945  0.00  0.00    +0.100 C 
ATOM      6  C   UNL     1       3.916  -6.279  -4.207  0.00  0.00    -0.004 C 
ATOM      7  C   UNL     1       2.515  -6.247  -3.578  0.00  0.00    +0.115 C 
ATOM      8  C   UNL     1       4.029  -7.440  -5.191  0.00  0.00    -0.010 C 
ATOM      9  C   UNL     1       3.935  -8.762  -4.425  0.00  0.00    -0.082 C 
ATOM     10  N   UNL     1       5.012  -8.832  -3.430  0.00  0.00    +0.379 N 
ATOM     11  C   UNL     1       4.843  -7.767  -2.434  0.00  0.00    -0.082 C 
ATOM     12  C   UNL     1       4.976  -6.402  -3.116  0.00  0.00    -0.010 C 
ATOM     13  H   UNL     1       4.985  -9.729  -2.970  0.00  0.00    -0.086 HD
ATOM     14  H   UNL     1       5.902  -8.720  -3.892  0.00  0.00    -0.086 HD
ENDROOT
BRANCH   5  15
ATOM     15  C   UNL     1       4.281  -5.169  -6.419  0.00  0.00    +0.218 C 
ATOM     16  O   UNL     1       3.329  -5.326  -7.153  0.00  0.00    -0.275 OA
ATOM     17  N   UNL     1       5.532  -5.201  -6.920  0.00  0.00    -0.312 N 
ATOM     18  H   UNL     1       6.293  -5.076  -6.333  0.00  0.00    +0.149 HD
BRANCH  17  19
ATOM     19  C   UNL     1       5.741  -5.426  -8.353  0.00  0.00    +0.145 C 
BRANCH  19  20
ATOM     20  C   UNL     1       7.240  -5.416  -8.657  0.00  0.00    +0.247 C 
BRANCH  20  21
ATOM     21  O   UNL     1       7.866  -6.523  -8.006  0.00  0.00    -0.490 OA
BRANCH  21  22
ATOM     22  C   UNL     1       9.207  -6.661  -8.175  0.00  0.00    +0.121 A 
ATOM     23  C   UNL     1       9.907  -5.746  -8.948  0.00  0.00    +0.048 A 
ATOM     24  C   UNL     1      11.271  -5.888  -9.119  0.00  0.00    +0.042 A 
ATOM     25  C   UNL     1      11.939  -6.942  -8.521  0.00  0.00    +0.124 A 
ATOM     26  C   UNL     1      11.241  -7.857  -7.750  0.00  0.00    +0.042 A 
ATOM     27  C   UNL     1       9.879  -7.714  -7.571  0.00  0.00    +0.048 A 
ATOM     28  F   UNL     1      13.272  -7.080  -8.689  0.00  0.00    -0.205 F 
ENDBRANCH  21  22
ENDBRANCH  20  21
ENDBRANCH  19  20
ENDBRANCH  17  19
ENDBRANCH   5  15
BRANCH   1  29
ATOM     29  C   UNL     1       1.309  -2.695  -2.518  0.00  0.00    +0.072 C 
ATOM     30  C   UNL     1       0.460  -2.370  -3.748  0.00  0.00    +0.017 C 
BRANCH  29  31
ATOM     31  C   UNL     1       0.572  -2.243  -1.256  0.00  0.00    +0.012 C 
BRANCH  31  32
ATOM     32  C   UNL     1       0.437  -0.718  -1.263  0.00  0.00    +0.000 C 
BRANCH  32  34
ATOM     33  C   UNL     1      -0.435   1.258  -0.008  0.00  0.00    +0.004 C 
ATOM     34  C   UNL     1      -0.300  -0.266  -0.001  0.00  0.00    -0.003 C 
ENDBRANCH  32  34
ENDBRANCH  31  32
ENDBRANCH  29  31
ENDBRANCH   1  29
TORSDOF 9
