REMARK  Name = ZINC63375405
REMARK  5 active torsions:
REMARK  status: ('A' for Active; 'I' for Inactive)
REMARK    1  A    between atoms: C_1  and  N_2
REMARK    2  A    between atoms: C_15  and  C_17
REMARK    3  A    between atoms: N_23  and  C_26
REMARK    4  A    between atoms: C_26  and  C_27
REMARK    5  A    between atoms: C_27  and  C_28
REMARK                            x       y       z     vdW  Elec       q    Type
REMARK                         _______ _______ _______ _____ _____    ______ ____
ROOT
ATOM      1  C   UNL     1      -0.099  -0.176   2.429  0.00  0.00    +0.070 A 
ATOM      2  H   UNL     1      -2.965  -0.776   3.813  0.00  0.00    +0.173 HD
ATOM      3  C   UNL     1      -1.350  -0.697   2.575  0.00  0.00    +0.259 A 
ATOM      4  N   UNL     1      -2.074  -0.408   3.704  0.00  0.00    -0.275 N 
ATOM      5  C   UNL     1      -1.556   0.383   4.662  0.00  0.00    +0.332 A 
ATOM      6  O   UNL     1      -2.213   0.628   5.656  0.00  0.00    -0.246 OA
ATOM      7  N   UNL     1      -0.323   0.906   4.537  0.00  0.00    -0.260 N 
ATOM      8  C   UNL     1       0.424   0.642   3.446  0.00  0.00    +0.262 A 
ATOM      9  O   UNL     1       1.543   1.114   3.340  0.00  0.00    -0.267 OA
ATOM     10  O   UNL     1      -1.874  -1.490   1.616  0.00  0.00    -0.267 OA
ENDROOT
BRANCH   1  24
ATOM     11  C   UNL     1       0.094   1.536   0.067  0.00  0.00    -0.095 C 
ATOM     12  N   UNL     1       0.042   0.069   0.010  0.00  0.00    +0.384 N 
ATOM     13  C   UNL     1      -1.358  -0.355  -0.072  0.00  0.00    -0.074 C 
ATOM     14  C   UNL     1      -1.444  -1.875  -0.300  0.00  0.00    +0.015 C 
ATOM     15  C   UNL     1      -0.571  -2.506   0.756  0.00  0.00    -0.041 C 
ATOM     16  C   UNL     1      -0.774  -3.496   1.612  0.00  0.00    -0.001 A 
ATOM     17  C   UNL     1      -1.883  -4.453   1.763  0.00  0.00    +0.010 A 
ATOM     18  C   UNL     1      -1.776  -5.338   2.789  0.00  0.00    +0.001 A 
ATOM     19  C   UNL     1      -0.689  -5.368   3.669  0.00  0.00    +0.002 A 
ATOM     20  C   UNL     1       0.379  -4.534   3.598  0.00  0.00    +0.026 A 
ATOM     21  C   UNL     1       0.386  -3.565   2.553  0.00  0.00    +0.043 A 
ATOM     22  N   UNL     1       1.282  -2.676   2.237  0.00  0.00    -0.379 N 
ATOM     23  C   UNL     1       0.842  -1.994   1.023  0.00  0.00    +0.097 C 
ATOM     24  C   UNL     1       0.716  -0.479   1.198  0.00  0.00    -0.000 C 
ATOM     25  H   UNL     1       2.102  -2.497   2.724  0.00  0.00    +0.160 HD
ATOM     26  H   UNL     1       0.527  -0.245  -0.817  0.00  0.00    -0.081 HD
ENDBRANCH   1  24
BRANCH   7  27
ATOM     27  C   UNL     1       0.215   1.763   5.596  0.00  0.00    +0.134 C 
BRANCH  27  28
ATOM     28  C   UNL     1       0.959   0.903   6.620  0.00  0.00    +0.057 C 
BRANCH  28  29
ATOM     29  C   UNL     1       1.512   1.785   7.709  0.00  0.00    -0.046 A 
ATOM     30  C   UNL     1       2.776   2.329   7.583  0.00  0.00    +0.004 A 
ATOM     31  C   UNL     1       3.284   3.139   8.582  0.00  0.00    +0.000 A 
ATOM     32  C   UNL     1       2.526   3.404   9.708  0.00  0.00    +0.000 A 
ATOM     33  C   UNL     1       1.261   2.860   9.834  0.00  0.00    +0.000 A 
ATOM     34  C   UNL     1       0.753   2.055   8.832  0.00  0.00    +0.004 A 
ENDBRANCH  28  29
ENDBRANCH  27  28
ENDBRANCH   7  27
TORSDOF 4
