REMARK  Name = ZINC33366332
REMARK  7 active torsions:
REMARK  status: ('A' for Active; 'I' for Inactive)
REMARK    1  A    between atoms: C_1  and  C_2
REMARK    2  A    between atoms: C_5  and  C_21
REMARK    3  A    between atoms: C_6  and  C_7
REMARK    4  A    between atoms: C_6  and  C_8
REMARK    5  A    between atoms: N_23  and  N_24
REMARK    6  A    between atoms: C_25  and  C_27
REMARK    7  A    between atoms: C_32  and  N_33
REMARK                            x       y       z     vdW  Elec       q    Type
REMARK                         _______ _______ _______ _____ _____    ______ ____
ROOT
ATOM      1  C   UNL     1       0.774   0.543  -2.373  0.00  0.00    +0.018 C 
ATOM      2  C   UNL     1       0.600  -0.926  -1.985  0.00  0.00    +0.018 C 
ATOM      3  C   UNL     1       1.035  -1.978  -3.054  0.00  0.00    +0.015 C 
ATOM      4  C   UNL     1       1.190  -3.291  -2.249  0.00  0.00    +0.024 C 
ATOM      5  C   UNL     1       0.832  -2.884  -0.785  0.00  0.00    +0.098 C 
ATOM      6  C   UNL     1       1.426  -1.428  -0.744  0.00  0.00    -0.005 C 
ATOM      7  C   UNL     1       1.068  -0.671   0.537  0.00  0.00    +0.013 C 
ATOM      8  C   UNL     1       2.933  -1.426  -1.008  0.00  0.00    +0.013 C 
ATOM      9  C   UNL     1      -0.663  -2.561  -0.837  0.00  0.00    +0.079 A 
ATOM     10  C   UNL     1      -0.807  -1.351  -1.558  0.00  0.00    +0.071 A 
ATOM     11  N   UNL     1      -1.982  -0.818  -1.766  0.00  0.00    -0.248 NA
ATOM     12  C   UNL     1      -3.074  -1.411  -1.265  0.00  0.00    +0.091 A 
ATOM     13  C   UNL     1      -4.353  -0.864  -1.469  0.00  0.00    +0.051 A 
ATOM     14  C   UNL     1      -5.444  -1.488  -0.946  0.00  0.00    +0.061 A 
ATOM     15  C   UNL     1      -5.313  -2.667  -0.210  0.00  0.00    +0.061 A 
ATOM     16  C   UNL     1      -4.090  -3.226   0.005  0.00  0.00    +0.051 A 
ATOM     17  C   UNL     1      -2.941  -2.609  -0.518  0.00  0.00    +0.091 A 
ATOM     18  N   UNL     1      -1.708  -3.175  -0.349  0.00  0.00    -0.247 NA
ATOM     19 CL   UNL     1      -6.730  -3.432   0.441  0.00  0.00    -0.082 Cl
ATOM     20 CL   UNL     1      -7.021  -0.808  -1.200  0.00  0.00    -0.082 Cl
ENDROOT
BRANCH   5  21
ATOM     21  C   UNL     1       1.288  -3.828   0.298  0.00  0.00    +0.242 C 
ATOM     22  O   UNL     1       2.058  -3.444   1.152  0.00  0.00    -0.273 OA
ATOM     23  N   UNL     1       0.838  -5.098   0.317  0.00  0.00    -0.233 N 
ATOM     24  H   UNL     1       0.222  -5.405  -0.366  0.00  0.00    +0.173 HD
BRANCH  23  25
ATOM     25  N   UNL     1       1.262  -5.976   1.324  0.00  0.00    -0.230 N 
ATOM     26  C   UNL     1       0.812  -7.246   1.343  0.00  0.00    +0.262 C 
ATOM     27  O   UNL     1       0.040  -7.630   0.487  0.00  0.00    -0.269 OA
ATOM     28  H   UNL     1       1.878  -5.669   2.007  0.00  0.00    +0.173 HD
BRANCH  26  29
ATOM     29  C   UNL     1       1.259  -8.172   2.405  0.00  0.00    +0.068 A 
ATOM     30  C   UNL     1       2.621  -8.383   2.624  0.00  0.00    +0.015 A 
ATOM     31  C   UNL     1       3.031  -9.248   3.618  0.00  0.00    +0.001 A 
ATOM     32  C   UNL     1       2.095  -9.906   4.396  0.00  0.00    +0.002 A 
ATOM     33  C   UNL     1       0.744  -9.702   4.184  0.00  0.00    +0.033 A 
ATOM     34  C   UNL     1       0.320  -8.835   3.197  0.00  0.00    +0.138 A 
BRANCH  34  35
ATOM     35  N   UNL     1      -1.126  -8.613   2.976  0.00  0.00    +0.057 N 
ATOM     36  O   UNL     1      -1.939  -9.277   3.577  0.00  0.00    -0.126 OA
ATOM     37  O   UNL     1      -1.496  -7.767   2.195  0.00  0.00    -0.126 OA
ENDBRANCH  34  35
ENDBRANCH  26  29
ENDBRANCH  23  25
ENDBRANCH   5  21
TORSDOF 4
