REMARK  Name = ZINC44118916
REMARK  1 active torsions:
REMARK  status: ('A' for Active; 'I' for Inactive)
REMARK    1  A    between atoms: C_4  and  C_6
REMARK                            x       y       z     vdW  Elec       q    Type
REMARK                         _______ _______ _______ _____ _____    ______ ____
ROOT
ATOM      1  C   UNL     1      -0.022   1.781   0.012  0.00  0.00    +0.116 A 
ATOM      2  C   UNL     1       1.312   2.051   0.001  0.00  0.00    +0.256 A 
ATOM      3  N   UNL     1       2.129   1.015  -0.013  0.00  0.00    -0.320 N 
ATOM      4  C   UNL     1       1.672  -0.214  -0.015  0.00  0.00    +0.060 A 
ATOM      5  S   UNL     1       0.002  -0.004   0.002  0.00  0.00    -0.078 S 
ATOM      6  O   UNL     1       1.781   3.329   0.003  0.00  0.00    -0.267 OA
ATOM      7  H   UNL     1       3.087   1.165  -0.021  0.00  0.00    +0.169 HD
ENDROOT
BRANCH   4   8
ATOM      8  C   UNL     1       2.453  -1.502  -0.031  0.00  0.00    +0.043 C 
ATOM      9  C   UNL     1       1.808  -2.604  -0.889  0.00  0.00    +0.010 C 
ATOM     10  C   UNL     1       2.215  -3.593   0.216  0.00  0.00    +0.001 C 
ATOM     11  C   UNL     1       2.182  -2.401   1.187  0.00  0.00    +0.010 C 
ENDBRANCH   4   8
TORSDOF 1
