REMARK  Name = ZINC06077157
REMARK  4 active torsions:
REMARK  status: ('A' for Active; 'I' for Inactive)
REMARK    1  A    between atoms: C_1  and  C_2
REMARK    2  A    between atoms: C_2  and  C_28
REMARK    3  A    between atoms: C_6  and  C_16
REMARK    4  A    between atoms: C_17  and  C_18
REMARK                            x       y       z     vdW  Elec       q    Type
REMARK                         _______ _______ _______ _____ _____    ______ ____
ROOT
ATOM      1  C   UNL     1       3.092   7.791   3.325  0.00  0.00    +0.011 C 
ATOM      2  C   UNL     1       1.623   8.074   3.646  0.00  0.00    -0.023 C 
ATOM      3  C   UNL     1       1.006   8.925   2.537  0.00  0.00    +0.058 C 
ATOM      4  C   UNL     1       1.090   8.189   1.210  0.00  0.00    +0.017 C 
ATOM      5  C   UNL     1       1.025   6.846   1.169  0.00  0.00    +0.037 C 
ATOM      6  C   UNL     1       1.083   5.995  -0.076  0.00  0.00    +0.143 C 
ATOM      7  N   UNL     1       0.954   6.732  -1.316  0.00  0.00    -0.331 N 
ATOM      8  C   UNL     1       1.923   7.656  -1.704  0.00  0.00    +0.049 A 
ATOM      9  C   UNL     1       2.698   7.461  -2.836  0.00  0.00    +0.025 A 
ATOM     10  C   UNL     1       3.680   8.383  -3.154  0.00  0.00    +0.002 A 
ATOM     11  C   UNL     1       3.891   9.487  -2.349  0.00  0.00    +0.002 A 
ATOM     12  C   UNL     1       3.107   9.694  -1.227  0.00  0.00    +0.025 A 
ATOM     13  C   UNL     1       2.110   8.785  -0.921  0.00  0.00    +0.052 A 
ATOM     14  N   UNL     1       1.213   8.990   0.121  0.00  0.00    -0.316 N 
ATOM     15  C   UNL     1       0.893   6.103   2.365  0.00  0.00    +0.163 C 
ATOM     16  O   UNL     1       0.819   4.892   2.297  0.00  0.00    -0.292 OA
ATOM     17  C   UNL     1       0.842   6.756   3.713  0.00  0.00    +0.086 C 
ATOM     18  C   UNL     1       1.516   8.809   4.984  0.00  0.00    +0.011 C 
ATOM     19  H   UNL     1       0.183   6.581  -1.884  0.00  0.00    +0.147 HD
ATOM     20  H   UNL     1       0.631   9.764   0.066  0.00  0.00    +0.152 HD
ENDROOT
BRANCH   6  21
ATOM     21  C   UNL     1       2.398   5.260  -0.092  0.00  0.00    +0.021 C 
ATOM     22  C   UNL     1       2.418   3.938  -0.203  0.00  0.00    +0.021 C 
ATOM     23 BR   UNL     1       4.020   6.222   0.046  0.00  0.00    -0.053 Br
BRANCH  22  24
ATOM     24  C   UNL     1       1.168   3.201  -0.486  0.00  0.00    -0.024 A 
ATOM     25  C   UNL     1       0.212   3.746  -1.344  0.00  0.00    +0.008 A 
ATOM     26  C   UNL     1      -0.952   3.053  -1.603  0.00  0.00    +0.001 A 
ATOM     27  C   UNL     1      -1.175   1.823  -1.011  0.00  0.00    +0.000 A 
ATOM     28  C   UNL     1      -0.229   1.275  -0.164  0.00  0.00    +0.001 A 
ATOM     29  C   UNL     1       0.940   1.958   0.104  0.00  0.00    +0.008 A 
ENDBRANCH  22  24
ENDBRANCH   6  21
TORSDOF 2
