REMARK  Name = ZINC35498281
REMARK  8 active torsions:
REMARK  status: ('A' for Active; 'I' for Inactive)
REMARK    1  A    between atoms: C_1  and  C_2
REMARK    2  A    between atoms: C_12  and  C_14
REMARK    3  A    between atoms: C_12  and  O_33
REMARK    4  A    between atoms: C_15  and  C_16
REMARK    5  A    between atoms: C_23  and  O_24
REMARK    6  A    between atoms: O_24  and  C_25
REMARK    7  A    between atoms: N_31  and  C_32
REMARK    8  A    between atoms: C_42  and  C_43
REMARK                            x       y       z     vdW  Elec       q    Type
REMARK                         _______ _______ _______ _____ _____    ______ ____
ROOT
ATOM      1  C   UNL     1      -0.019   1.526   0.010  0.00  0.00    +0.011 C 
ATOM      2  C   UNL     1       0.002  -0.004   0.002  0.00  0.00    -0.025 C 
ATOM      3  C   UNL     1      -1.412  -0.554   0.061  0.00  0.00    +0.007 C 
ATOM      4  C   UNL     1      -2.082   0.055   1.303  0.00  0.00    +0.005 C 
ATOM      5  C   UNL     1      -1.308  -0.265   2.578  0.00  0.00    +0.002 C 
ATOM      6  C   UNL     1       0.164   0.161   2.473  0.00  0.00    -0.003 C 
ATOM      7  C   UNL     1       0.748  -0.546   1.251  0.00  0.00    +0.002 C 
ATOM      8  C   UNL     1       2.211  -0.241   0.946  0.00  0.00    +0.052 C 
ATOM      9  C   UNL     1       2.324  -0.279  -0.599  0.00  0.00    +0.127 C 
ATOM     10  C   UNL     1       0.888  -0.522  -1.137  0.00  0.00    +0.055 C 
ATOM     11  C   UNL     1       0.901  -0.282   3.740  0.00  0.00    +0.008 C 
ATOM     12  C   UNL     1       0.338   0.480   4.941  0.00  0.00    +0.032 C 
ATOM     13  C   UNL     1      -1.163   0.266   4.998  0.00  0.00    -0.060 C 
ATOM     14  C   UNL     1      -1.695  -0.085   6.169  0.00  0.00    +0.046 C 
ATOM     15  C   UNL     1      -3.143  -0.291   6.286  0.00  0.00    +0.156 C 
ATOM     16  O   UNL     1      -3.624  -0.957   7.179  0.00  0.00    -0.293 OA
ATOM     17  C   UNL     1      -4.007   0.373   5.231  0.00  0.00    +0.080 C 
ATOM     18  C   UNL     1      -3.414   0.022   3.867  0.00  0.00    +0.019 C 
ATOM     19  C   UNL     1      -1.955   0.469   3.758  0.00  0.00    -0.007 C 
ATOM     20  C   UNL     1      -1.948   1.966   3.444  0.00  0.00    +0.016 C 
ENDROOT
BRANCH   9  21
ATOM     21  C   UNL     1       2.841   1.005  -1.099  0.00  0.00    -0.066 C 
ATOM     22  C   UNL     1       3.253   2.029  -1.498  0.00  0.00    -0.075 C 
BRANCH  22  23
ATOM     23  C   UNL     1       3.770   3.313  -1.999  0.00  0.00    +0.167 C 
ATOM     24  C   UNL     1       3.873   3.256  -3.501  0.00  0.00    +0.030 A 
ATOM     25  C   UNL     1       4.960   3.769  -4.176  0.00  0.00    -0.033 A 
ATOM     26  C   UNL     1       5.012   3.701  -5.560  0.00  0.00    +0.053 A 
ATOM     27  C   UNL     1       3.980   3.118  -6.274  0.00  0.00    +0.170 A 
ATOM     28  C   UNL     1       2.882   2.596  -5.598  0.00  0.00    +0.208 A 
ATOM     29  C   UNL     1       2.833   2.667  -4.213  0.00  0.00    +0.171 A 
ATOM     30  O   UNL     1       2.010   2.080  -6.513  0.00  0.00    -0.449 OA
ATOM     31  C   UNL     1       2.393   2.655  -7.776  0.00  0.00    +0.467 C 
ATOM     32  O   UNL     1       3.797   2.930  -7.614  0.00  0.00    -0.452 OA
ATOM     33  C   UNL     1       6.115   4.407  -3.446  0.00  0.00    +0.051 C 
ATOM     34  C   UNL     1       5.698   4.759  -2.017  0.00  0.00    +0.090 C 
ATOM     35  N   UNL     1       5.085   3.570  -1.404  0.00  0.00    -0.288 NA
ATOM     36  C   UNL     1       4.983   3.724   0.053  0.00  0.00    +0.106 C 
BRANCH  29  37
ATOM     37  O   UNL     1       1.761   2.158  -3.547  0.00  0.00    -0.491 OA
ATOM     38  C   UNL     1       0.665   3.044  -3.309  0.00  0.00    +0.277 C 
ENDBRANCH  29  37
ENDBRANCH  22  23
ENDBRANCH   9  21
BRANCH   9  39
ATOM     39  O   UNL     1       3.186  -1.346  -1.001  0.00  0.00    -0.377 OA
ATOM     40  H   UNL     1       4.092  -1.264  -0.674  0.00  0.00    +0.211 HD
ENDBRANCH   9  39
TORSDOF 4
