REMARK  Name = ZINC39729582
REMARK  10 active torsions:
REMARK  status: ('A' for Active; 'I' for Inactive)
REMARK    1  A    between atoms: C_1  and  C_2
REMARK    2  A    between atoms: C_5  and  N_8
REMARK    3  A    between atoms: C_9  and  C_11
REMARK    4  A    between atoms: C_11  and  C_12
REMARK    5  A    between atoms: N_16  and  C_31
REMARK    6  A    between atoms: N_18  and  N_19
REMARK    7  A    between atoms: C_20  and  C_21
REMARK    8  A    between atoms: C_21  and  C_29
REMARK    9  A    between atoms: C_22  and  C_23
REMARK   10  A    between atoms: C_34  and  O_37
REMARK                            x       y       z     vdW  Elec       q    Type
REMARK                         _______ _______ _______ _____ _____    ______ ____
ROOT
ATOM      1  C   UNL     1       0.460  -6.842   3.892  0.00  0.00    +0.149 C 
ATOM      2  C   UNL     1       0.501  -8.362   3.866  0.00  0.00    +0.239 C 
ATOM      3  O   UNL     1       1.397  -8.973   3.323  0.00  0.00    -0.274 OA
ATOM      4  N   UNL     1      -0.500  -8.975   4.472  0.00  0.00    -0.217 N 
ATOM      5  C   UNL     1      -1.523  -8.288   5.092  0.00  0.00    +0.190 C 
ATOM      6  N   UNL     1      -2.569  -8.781   5.726  0.00  0.00    -0.126 NA
ATOM      7  S   UNL     1      -1.097  -6.571   4.836  0.00  0.00    -0.075 S 
ENDROOT
BRANCH   4   8
ATOM      8  C   UNL     1      -0.524 -10.377   4.485  0.00  0.00    +0.043 A 
ATOM      9  C   UNL     1      -1.357 -11.066   3.614  0.00  0.00    +0.027 A 
ATOM     10  C   UNL     1      -1.381 -12.446   3.627  0.00  0.00    +0.047 A 
ATOM     11  C   UNL     1      -0.571 -13.146   4.510  0.00  0.00    +0.117 A 
ATOM     12  C   UNL     1       0.261 -12.458   5.382  0.00  0.00    +0.047 A 
ATOM     13  C   UNL     1       0.289 -11.078   5.366  0.00  0.00    +0.027 A 
BRANCH  11  14
ATOM     14  O   UNL     1      -0.595 -14.505   4.523  0.00  0.00    -0.507 OA
ATOM     15  H   UNL     1       0.043 -14.915   3.923  0.00  0.00    +0.292 HD
ENDBRANCH  11  14
ENDBRANCH   4   8
BRANCH   6  16
ATOM     16  N   UNL     1      -2.648 -10.049   5.949  0.00  0.00    -0.155 NA
ATOM     17  C   UNL     1      -3.733 -10.554   6.486  0.00  0.00    +0.138 C 
BRANCH  17  18
ATOM     18  C   UNL     1      -3.770 -11.915   6.857  0.00  0.00    -0.030 C 
ATOM     19  C   UNL     1      -4.923 -12.464   7.301  0.00  0.00    +0.012 C 
ATOM     20  C   UNL     1      -2.524 -12.757   6.758  0.00  0.00    +0.045 C 
BRANCH  19  21
ATOM     21  C   UNL     1      -5.003 -13.913   7.541  0.00  0.00    -0.025 A 
ATOM     22  C   UNL     1      -5.786 -14.410   8.589  0.00  0.00    +0.008 A 
ATOM     23  C   UNL     1      -5.856 -15.769   8.807  0.00  0.00    +0.001 A 
ATOM     24  C   UNL     1      -5.154 -16.642   7.994  0.00  0.00    +0.000 A 
ATOM     25  C   UNL     1      -4.377 -16.159   6.955  0.00  0.00    +0.001 A 
ATOM     26  C   UNL     1      -4.301 -14.802   6.720  0.00  0.00    +0.008 A 
ENDBRANCH  19  21
ENDBRANCH  17  18
ENDBRANCH   6  16
BRANCH   1  27
ATOM     27  C   UNL     1       0.359  -6.266   2.478  0.00  0.00    +0.120 C 
BRANCH  27  29
ATOM     28  N   UNL     1       0.267  -4.033   1.417  0.00  0.00    -0.285 N 
ATOM     29  C   UNL     1       0.350  -4.760   2.549  0.00  0.00    +0.219 C 
ATOM     30  O   UNL     1       0.418  -4.203   3.624  0.00  0.00    -0.275 OA
ATOM     31  H   UNL     1       0.133  -4.476   0.565  0.00  0.00    +0.155 HD
BRANCH  28  36
ATOM     32  C   UNL     1       0.697   1.619   1.639  0.00  0.00    +0.044 C 
ATOM     33  C   UNL     1       0.582   0.118   1.580  0.00  0.00    -0.050 A 
ATOM     34  C   UNL     1       1.259  -0.662   2.500  0.00  0.00    +0.005 A 
ATOM     35  C   UNL     1       1.157  -2.038   2.449  0.00  0.00    +0.023 A 
ATOM     36  C   UNL     1       0.372  -2.639   1.472  0.00  0.00    +0.033 A 
ATOM     37  C   UNL     1      -0.307  -1.853   0.551  0.00  0.00    +0.023 A 
ATOM     38  C   UNL     1      -0.204  -0.477   0.611  0.00  0.00    +0.005 A 
ENDBRANCH  28  36
ENDBRANCH  27  29
ENDBRANCH   1  27
TORSDOF 8
