REMARK  Name = ZINC38701463
REMARK  14 active torsions:
REMARK  status: ('A' for Active; 'I' for Inactive)
REMARK    1  A    between atoms: C_1  and  C_2
REMARK    2  A    between atoms: C_2  and  C_3
REMARK    3  A    between atoms: C_3  and  C_4
REMARK    4  A    between atoms: C_4  and  C_5
REMARK    5  A    between atoms: C_5  and  O_6
REMARK    6  A    between atoms: O_6  and  C_7
REMARK    7  A    between atoms: C_12  and  C_13
REMARK    8  A    between atoms: C_18  and  O_27
REMARK    9  A    between atoms: C_22  and  N_26
REMARK   10  A    between atoms: C_23  and  C_24
REMARK   11  A    between atoms: O_27  and  C_28
REMARK   12  A    between atoms: C_28  and  C_30
REMARK   13  A    between atoms: C_33  and  O_37
REMARK   14  A    between atoms: O_37  and  C_38
REMARK                            x       y       z     vdW  Elec       q    Type
REMARK                         _______ _______ _______ _____ _____    ______ ____
ROOT
ATOM      1  C   UNL     1       1.567  -6.815  -2.588  0.00  0.00    +0.101 C 
ATOM      2  C   UNL     1       0.476  -7.678  -3.167  0.00  0.00    +0.008 A 
ATOM      3  C   UNL     1      -0.777  -7.134  -3.384  0.00  0.00    +0.012 A 
ATOM      4  C   UNL     1      -1.790  -7.910  -3.913  0.00  0.00    +0.047 A 
ATOM      5  C   UNL     1      -1.552  -9.240  -4.228  0.00  0.00    +0.135 A 
ATOM      6  C   UNL     1      -0.298  -9.787  -4.012  0.00  0.00    +0.093 A 
ATOM      7  C   UNL     1       0.720  -9.006  -3.479  0.00  0.00    +0.138 A 
ATOM      8  O   UNL     1       1.941  -9.556  -3.273  0.00  0.00    -0.441 OA
ATOM      9  C   UNL     1       2.806  -8.971  -2.428  0.00  0.00    +0.199 C 
ATOM     10  C   UNL     1       2.683  -7.676  -2.066  0.00  0.00    +0.098 C 
ENDROOT
BRANCH   1  16
ATOM     11  C   UNL     1       2.023  -4.526  -3.503  0.00  0.00    +0.125 A 
ATOM     12  C   UNL     1       2.522  -3.687  -4.489  0.00  0.00    +0.046 A 
ATOM     13  C   UNL     1       3.090  -4.223  -5.628  0.00  0.00    +0.004 A 
ATOM     14  C   UNL     1       3.162  -5.595  -5.786  0.00  0.00    +0.001 A 
ATOM     15  C   UNL     1       2.666  -6.433  -4.804  0.00  0.00    +0.008 A 
ATOM     16  C   UNL     1       2.102  -5.902  -3.661  0.00  0.00    +0.007 A 
BRANCH  11  17
ATOM     17  O   UNL     1       1.464  -4.000  -2.381  0.00  0.00    -0.492 OA
BRANCH  17  18
ATOM     18  C   UNL     1       1.417  -2.575  -2.286  0.00  0.00    +0.229 C 
BRANCH  18  19
ATOM     19  C   UNL     1       0.758  -2.173  -0.965  0.00  0.00    +0.041 C 
BRANCH  19  20
ATOM     20  C   UNL     1       0.708  -0.648  -0.864  0.00  0.00    +0.003 C 
BRANCH  20  22
ATOM     21  C   UNL     1      -0.002   1.280   0.559  0.00  0.00    +0.004 C 
ATOM     22  C   UNL     1       0.049  -0.246   0.458  0.00  0.00    -0.003 C 
ENDBRANCH  20  22
ENDBRANCH  19  20
ENDBRANCH  18  19
ENDBRANCH  17  18
ENDBRANCH  11  17
ENDBRANCH   1  16
BRANCH   9  23
ATOM     23  N   UNL     1       3.844  -9.711  -1.919  0.00  0.00    -0.328 N 
ATOM     24  H   UNL     1       3.945 -10.642  -2.171  0.00  0.00    +0.145 HD
ATOM     25  H   UNL     1       4.477  -9.302  -1.308  0.00  0.00    +0.145 HD
ENDBRANCH   9  23
BRANCH  10  26
ATOM     26  C   UNL     1       3.639  -7.112  -1.161  0.00  0.00    +0.101 C 
ATOM     27  N   UNL     1       4.398  -6.664  -0.444  0.00  0.00    -0.191 NA
ENDBRANCH  10  26
BRANCH   5  28
ATOM     28  O   UNL     1      -2.547 -10.005  -4.749  0.00  0.00    -0.422 OA
BRANCH  28  29
ATOM     29  C   UNL     1      -3.057 -10.988  -3.981  0.00  0.00    +0.344 C 
ATOM     30  O   UNL     1      -2.700 -11.104  -2.825  0.00  0.00    -0.245 OA
BRANCH  29  31
ATOM     31  C   UNL     1      -4.048 -11.924  -4.544  0.00  0.00    +0.061 A 
ATOM     32  C   UNL     1      -4.455 -11.797  -5.875  0.00  0.00    +0.018 A 
ATOM     33  C   UNL     1      -5.380 -12.673  -6.397  0.00  0.00    +0.048 A 
ATOM     34  C   UNL     1      -5.909 -13.684  -5.603  0.00  0.00    +0.138 A 
ATOM     35  C   UNL     1      -5.506 -13.815  -4.278  0.00  0.00    +0.083 A 
ATOM     36  C   UNL     1      -4.577 -12.945  -3.749  0.00  0.00    +0.038 A 
ATOM     37 CL   UNL     1      -6.170 -15.079  -3.291  0.00  0.00    -0.080 Cl
BRANCH  34  38
ATOM     38  O   UNL     1      -6.821 -14.545  -6.122  0.00  0.00    -0.494 OA
ATOM     39  C   UNL     1      -7.190 -14.354  -7.489  0.00  0.00    +0.277 C 
ENDBRANCH  34  38
ENDBRANCH  29  31
ENDBRANCH  28  29
ENDBRANCH   5  28
TORSDOF 12
