REMARK  Name = ZINC04108737
REMARK  8 active torsions:
REMARK  status: ('A' for Active; 'I' for Inactive)
REMARK    1  A    between atoms: C_1  and  C_2
REMARK    2  A    between atoms: C_5  and  C_11
REMARK    3  A    between atoms: C_6  and  N_8
REMARK    4  A    between atoms: C_14  and  C_16
REMARK    5  A    between atoms: N_17  and  N_18
REMARK    6  A    between atoms: C_19  and  C_21
REMARK    7  A    between atoms: C_21  and  N_22
REMARK    8  A    between atoms: N_22  and  C_23
REMARK                            x       y       z     vdW  Elec       q    Type
REMARK                         _______ _______ _______ _____ _____    ______ ____
ROOT
ATOM      1  C   UNL     1      -1.105  -0.842   0.008  0.00  0.00    +0.176 C 
ATOM      2  N   UNL     1      -2.328  -0.326   0.022  0.00  0.00    -0.185 NA
ENDROOT
BRANCH   1   6
ATOM      3  C   UNL     1       1.246   1.809  -0.000  0.00  0.00    +0.138 A 
ATOM      4  C   UNL     1       2.149   0.717  -0.015  0.00  0.00    +0.050 A 
ATOM      5  C   UNL     1       1.412  -0.423  -0.014  0.00  0.00    +0.051 A 
ATOM      6  C   UNL     1       0.002  -0.004   0.002  0.00  0.00    +0.148 A 
ATOM      7  O   UNL     1      -0.016   1.347   0.009  0.00  0.00    -0.454 OA
BRANCH   3  12
ATOM      8  C   UNL     1       2.731   7.300   0.015  0.00  0.00    +0.044 C 
ATOM      9  C   UNL     1       2.337   5.845   0.011  0.00  0.00    -0.048 A 
ATOM     10  C   UNL     1       2.914   4.973   0.924  0.00  0.00    +0.004 A 
ATOM     11  C   UNL     1       2.561   3.654   0.933  0.00  0.00    +0.014 A 
ATOM     12  C   UNL     1       1.616   3.177   0.004  0.00  0.00    +0.047 A 
ATOM     13  C   UNL     1       1.037   4.071  -0.917  0.00  0.00    +0.137 A 
ATOM     14  C   UNL     1       1.401   5.388  -0.905  0.00  0.00    +0.036 A 
BRANCH  13  15
ATOM     15  N   UNL     1       0.037   3.586  -1.896  0.00  0.00    +0.057 N 
ATOM     16  O   UNL     1      -0.503   4.425  -2.756  0.00  0.00    -0.126 OA
ATOM     17  O   UNL     1      -0.312   2.317  -1.905  0.00  0.00    -0.126 OA
ENDBRANCH  13  15
ENDBRANCH   3  12
ENDBRANCH   1   6
BRANCH   2  18
ATOM     18  N   UNL     1      -3.357  -1.105   0.027  0.00  0.00    -0.206 N 
ATOM     19  C   UNL     1      -4.598  -0.581   0.042  0.00  0.00    +0.249 C 
ATOM     20  O   UNL     1      -4.748   0.618   0.050  0.00  0.00    -0.272 OA
ATOM     21  H   UNL     1      -3.236  -2.067   0.021  0.00  0.00    +0.177 HD
BRANCH  19  22
ATOM     22  C   UNL     1      -5.800  -1.490   0.048  0.00  0.00    +0.199 C 
BRANCH  22  23
ATOM     23  N   UNL     1      -7.023  -0.683   0.065  0.00  0.00    -0.335 N 
ATOM     24  H   UNL     1      -6.965   0.285   0.070  0.00  0.00    +0.147 HD
BRANCH  23  25
ATOM     25  C   UNL     1      -8.272  -1.309   0.073  0.00  0.00    +0.028 A 
ATOM     26  C   UNL     1      -8.356  -2.695   0.060  0.00  0.00    +0.024 A 
ATOM     27  C   UNL     1      -9.592  -3.311   0.075  0.00  0.00    +0.016 A 
ATOM     28  C   UNL     1     -10.746  -2.548   0.089  0.00  0.00    +0.013 A 
ATOM     29  C   UNL     1     -10.666  -1.167   0.096  0.00  0.00    +0.016 A 
ATOM     30  C   UNL     1      -9.432  -0.546   0.088  0.00  0.00    +0.024 A 
ATOM     31  I   UNL     1     -12.620  -3.486   0.103  0.00  0.00    -0.044 I 
ENDBRANCH  23  25
ENDBRANCH  22  23
ENDBRANCH  19  22
ENDBRANCH   2  18
TORSDOF 7
