REMARK  Name = ZINC37628190
REMARK  10 active torsions:
REMARK  status: ('A' for Active; 'I' for Inactive)
REMARK    1  A    between atoms: C_1  and  C_2
REMARK    2  A    between atoms: C_2  and  O_3
REMARK    3  A    between atoms: O_3  and  C_4
REMARK    4  A    between atoms: C_5  and  O_16
REMARK    5  A    between atoms: C_7  and  C_13
REMARK    6  A    between atoms: C_9  and  S_10
REMARK    7  A    between atoms: S_10  and  C_11
REMARK    8  A    between atoms: C_11  and  C_12
REMARK    9  A    between atoms: C_13  and  C_14
REMARK   10  A    between atoms: O_16  and  C_17
REMARK                            x       y       z     vdW  Elec       q    Type
REMARK                         _______ _______ _______ _____ _____    ______ ____
ROOT
ATOM      1  C   UNL     1      -1.499  -1.850   0.006  0.00  0.00    +0.175 A 
ATOM      2  C   UNL     1      -1.586  -2.536  -1.198  0.00  0.00    +0.163 A 
ATOM      3  C   UNL     1      -1.749  -3.914  -1.200  0.00  0.00    +0.053 A 
ATOM      4  C   UNL     1      -1.824  -4.606  -0.005  0.00  0.00    -0.042 A 
ATOM      5  C   UNL     1      -1.737  -3.929   1.196  0.00  0.00    +0.022 A 
ATOM      6  C   UNL     1      -1.569  -2.550   1.208  0.00  0.00    +0.053 A 
ENDROOT
BRANCH   2   7
ATOM      7  O   UNL     1      -1.513  -1.858  -2.375  0.00  0.00    -0.491 OA
ATOM      8  C   UNL     1      -1.611  -2.628  -3.575  0.00  0.00    +0.277 C 
ENDBRANCH   2   7
BRANCH   1   9
ATOM      9  O   UNL     1      -1.339  -0.499   0.012  0.00  0.00    -0.487 OA
BRANCH   9  11
ATOM     10  C   UNL     1      -0.019   1.526   0.010  0.00  0.00    +0.048 C 
ATOM     11  C   UNL     1       0.002  -0.004   0.002  0.00  0.00    +0.226 C 
ENDBRANCH   9  11
ENDBRANCH   1   9
BRANCH   6  12
ATOM     12  S   UNL     1      -1.452  -1.688   2.740  0.00  0.00    -0.122 S 
BRANCH  12  13
ATOM     13  C   UNL     1      -1.594  -2.994   3.990  0.00  0.00    +0.071 C 
ATOM     14  C   UNL     1      -1.507  -2.374   5.387  0.00  0.00    +0.015 C 
ENDBRANCH  12  13
ENDBRANCH   6  12
BRANCH   4  15
ATOM     15  C   UNL     1      -2.001  -6.102  -0.013  0.00  0.00    +0.045 C 
BRANCH  15  16
ATOM     16  C   UNL     1      -0.628  -6.778  -0.025  0.00  0.00    +0.079 C 
ATOM     17  I   UNL     1      -0.882  -8.925  -0.036  0.00  0.00    -0.085 I 
ENDBRANCH  15  16
ENDBRANCH   4  15
TORSDOF 7
