REMARK  Name = ZINC39665907
REMARK  8 active torsions:
REMARK  status: ('A' for Active; 'I' for Inactive)
REMARK    1  A    between atoms: C_1  and  C_2
REMARK    2  A    between atoms: C_5  and  O_8
REMARK    3  A    between atoms: O_8  and  C_9
REMARK    4  A    between atoms: C_9  and  C_11
REMARK    5  A    between atoms: C_9  and  C_12
REMARK    6  A    between atoms: C_12  and  N_13
REMARK    7  A    between atoms: C_14  and  C_16
REMARK    8  A    between atoms: C_27  and  C_29
REMARK                            x       y       z     vdW  Elec       q    Type
REMARK                         _______ _______ _______ _____ _____    ______ ____
ROOT
ATOM      1  C   UNL     1      -3.403  -7.242   0.038  0.00  0.00    +0.100 C 
ATOM      2  C   UNL     1      -3.494  -6.585  -1.358  0.00  0.00    +0.121 C 
ATOM      3  N   UNL     1      -3.749  -7.712  -2.286  0.00  0.00    -0.296 N 
ATOM      4  C   UNL     1      -4.690  -8.591  -1.550  0.00  0.00    +0.115 C 
ATOM      5  C   UNL     1      -4.191  -8.556  -0.092  0.00  0.00    -0.004 C 
ATOM      6  C   UNL     1      -3.280  -9.749   0.182  0.00  0.00    -0.010 C 
ATOM      7  C   UNL     1      -4.099 -11.040   0.103  0.00  0.00    -0.082 C 
ATOM      8  N   UNL     1      -5.186 -10.993   1.089  0.00  0.00    +0.379 N 
ATOM      9  C   UNL     1      -6.109  -9.899   0.765  0.00  0.00    -0.082 C 
ATOM     10  C   UNL     1      -5.375  -8.560   0.871  0.00  0.00    -0.010 C 
ATOM     11  C   UNL     1      -3.240  -7.897  -3.520  0.00  0.00    +0.249 C 
ATOM     12  O   UNL     1      -3.478  -8.923  -4.128  0.00  0.00    -0.270 OA
ATOM     13  H   UNL     1      -5.686 -11.869   1.078  0.00  0.00    -0.086 HD
ATOM     14  H   UNL     1      -4.797 -10.842   2.008  0.00  0.00    -0.086 HD
ENDROOT
BRANCH  11  15
ATOM     15  C   UNL     1      -2.395  -6.853  -4.134  0.00  0.00    +0.072 A 
ATOM     16  C   UNL     1      -2.659  -5.504  -3.892  0.00  0.00    +0.016 A 
ATOM     17  C   UNL     1      -1.866  -4.534  -4.468  0.00  0.00    +0.001 A 
ATOM     18  C   UNL     1      -0.808  -4.895  -5.286  0.00  0.00    +0.003 A 
ATOM     19  C   UNL     1      -0.539  -6.228  -5.532  0.00  0.00    +0.039 A 
ATOM     20  C   UNL     1      -1.322  -7.212  -4.956  0.00  0.00    +0.135 A 
ATOM     21  F   UNL     1      -1.055  -8.515  -5.192  0.00  0.00    -0.205 F 
ENDBRANCH  11  15
BRANCH   1  23
ATOM     22  N   UNL     1      -1.603  -7.658   1.682  0.00  0.00    -0.312 N 
ATOM     23  C   UNL     1      -1.966  -7.525   0.391  0.00  0.00    +0.218 C 
ATOM     24  O   UNL     1      -1.135  -7.634  -0.486  0.00  0.00    -0.275 OA
ATOM     25  H   UNL     1      -2.267  -7.571   2.384  0.00  0.00    +0.149 HD
BRANCH  22  26
ATOM     26  C   UNL     1      -0.205  -7.933   2.026  0.00  0.00    +0.148 C 
BRANCH  26  27
ATOM     27  C   UNL     1      -0.065  -8.037   3.546  0.00  0.00    +0.187 C 
ATOM     28  C   UNL     1       1.395  -8.324   3.905  0.00  0.00    +0.053 C 
BRANCH  27  29
ATOM     29  O   UNL     1      -0.469  -6.804   4.146  0.00  0.00    -0.488 OA
BRANCH  29  34
ATOM     30  C   UNL     1      -2.182  -7.015   9.508  0.00  0.00    +0.044 C 
ATOM     31  C   UNL     1      -1.724  -6.958   8.073  0.00  0.00    -0.050 A 
ATOM     32  C   UNL     1      -1.363  -8.121   7.418  0.00  0.00    +0.007 A 
ATOM     33  C   UNL     1      -0.943  -8.072   6.103  0.00  0.00    +0.046 A 
ATOM     34  C   UNL     1      -0.883  -6.855   5.440  0.00  0.00    +0.121 A 
ATOM     35  C   UNL     1      -1.246  -5.690   6.099  0.00  0.00    +0.046 A 
ATOM     36  C   UNL     1      -1.671  -5.745   7.413  0.00  0.00    +0.007 A 
ENDBRANCH  29  34
ENDBRANCH  27  29
ENDBRANCH  26  27
ENDBRANCH  22  26
ENDBRANCH   1  23
TORSDOF 6
