REMARK  Name = ZINC05489005
REMARK  7 active torsions:
REMARK  status: ('A' for Active; 'I' for Inactive)
REMARK    1  A    between atoms: C_1  and  C_2
REMARK    2  A    between atoms: C_7  and  C_8
REMARK    3  A    between atoms: C_10  and  C_11
REMARK    4  A    between atoms: C_10  and  N_19
REMARK    5  A    between atoms: C_11  and  C_13
REMARK    6  A    between atoms: C_22  and  C_24
REMARK    7  A    between atoms: C_22  and  C_25
REMARK                            x       y       z     vdW  Elec       q    Type
REMARK                         _______ _______ _______ _____ _____    ______ ____
ROOT
ATOM      1  C   UNL     1       2.759   5.338  -1.075  0.00  0.00    +0.044 C 
ATOM      2  C   UNL     1       2.531   4.005  -0.410  0.00  0.00    -0.047 A 
ATOM      3  C   UNL     1       1.287   3.400  -0.493  0.00  0.00    +0.008 A 
ATOM      4  C   UNL     1       1.073   2.183   0.112  0.00  0.00    -0.036 A 
ATOM      5  C   UNL     1       2.117   1.559   0.810  0.00  0.00    +0.002 A 
ATOM      6  C   UNL     1       3.368   2.175   0.891  0.00  0.00    +0.013 A 
ATOM      7  C   UNL     1       3.565   3.396   0.279  0.00  0.00    -0.047 A 
ATOM      8  C   UNL     1       4.912   4.067   0.360  0.00  0.00    +0.044 C 
ATOM      9  C   UNL     1       1.865   0.258   1.447  0.00  0.00    +0.068 C 
ATOM     10  C   UNL     1       2.737  -0.229   2.454  0.00  0.00    +0.176 C 
ATOM     11  N   UNL     1       0.793  -0.468   1.061  0.00  0.00    -0.336 N 
ATOM     12  C   UNL     1      -0.083  -0.011  -0.015  0.00  0.00    +0.031 C 
ATOM     13  C   UNL     1      -0.269   1.504   0.036  0.00  0.00    +0.061 C 
ATOM     14  C   UNL     1      -1.447  -0.689   0.125  0.00  0.00    +0.031 C 
ATOM     15  C   UNL     1       0.533  -0.396  -1.361  0.00  0.00    +0.031 C 
ATOM     16  H   UNL     1       0.585  -1.419   1.573  0.00  0.00    +0.147 HD
ENDROOT
BRANCH  10  17
ATOM     17  C   UNL     1       2.591  -1.609   2.951  0.00  0.00    +0.216 C 
ATOM     18  O   UNL     1       1.678  -2.306   2.551  0.00  0.00    -0.285 OA
BRANCH  17  19
ATOM     19  C   UNL     1       3.553  -2.146   3.936  0.00  0.00    +0.024 A 
ATOM     20  C   UNL     1       4.684  -1.405   4.287  0.00  0.00    +0.012 A 
ATOM     21  C   UNL     1       5.576  -1.910   5.210  0.00  0.00    +0.001 A 
ATOM     22  C   UNL     1       5.357  -3.152   5.781  0.00  0.00    +0.000 A 
ATOM     23  C   UNL     1       4.242  -3.893   5.434  0.00  0.00    +0.001 A 
ATOM     24  C   UNL     1       3.339  -3.399   4.515  0.00  0.00    +0.012 A 
ENDBRANCH  17  19
ENDBRANCH  10  17
BRANCH  10  25
ATOM     25  N   UNL     1       3.680   0.553   2.945  0.00  0.00    -0.025 NA
ATOM     26  O   UNL     1       3.378   1.524   3.615  0.00  0.00    -0.143 OA
ENDBRANCH  10  25
TORSDOF 3
