REMARK  Name = ZINC23153818
REMARK  6 active torsions:
REMARK  status: ('A' for Active; 'I' for Inactive)
REMARK    1  A    between atoms: C_4  and  C_7
REMARK    2  A    between atoms: C_7  and  N_8
REMARK    3  A    between atoms: C_14  and  N_19
REMARK    4  A    between atoms: C_15  and  C_16
REMARK    5  A    between atoms: C_20  and  C_22
REMARK    6  A    between atoms: C_25  and  N_27
REMARK                            x       y       z     vdW  Elec       q    Type
REMARK                         _______ _______ _______ _____ _____    ______ ____
ROOT
ATOM      1  N   UNL     1       2.859   4.194  -1.388  0.00  0.00    -0.293 NA
ATOM      2  C   UNL     1       3.982   5.141  -1.440  0.00  0.00    +0.090 C 
ATOM      3  C   UNL     1       4.632   5.111  -2.826  0.00  0.00    +0.052 C 
ATOM      4  C   UNL     1       3.535   5.293  -3.869  0.00  0.00    -0.021 A 
ATOM      5  C   UNL     1       2.241   5.092  -3.535  0.00  0.00    +0.010 A 
ATOM      6  S   UNL     1       1.336   5.411  -5.021  0.00  0.00    -0.076 S 
ATOM      7  C   UNL     1       2.656   5.804  -6.073  0.00  0.00    +0.085 A 
ATOM      8  C   UNL     1       3.767   5.679  -5.248  0.00  0.00    +0.068 A 
ATOM      9  C   UNL     1       1.723   4.687  -2.190  0.00  0.00    +0.127 C 
ENDROOT
BRANCH   8  10
ATOM     10  C   UNL     1       5.120   5.930  -5.752  0.00  0.00    +0.244 C 
ATOM     11  O   UNL     1       5.770   5.019  -6.231  0.00  0.00    -0.270 OA
ATOM     12  N   UNL     1       5.646   7.169  -5.684  0.00  0.00    -0.325 N 
ATOM     13  H   UNL     1       6.662   7.357  -6.062  0.00  0.00    +0.145 HD
ATOM     14  H   UNL     1       5.059   7.992  -5.252  0.00  0.00    +0.145 HD
ENDBRANCH   8  10
BRANCH   7  15
ATOM     15  N   UNL     1       2.613   6.157  -7.412  0.00  0.00    -0.275 N 
ATOM     16  C   UNL     1       1.430   6.227  -8.053  0.00  0.00    +0.255 C 
ATOM     17  O   UNL     1       0.398   5.980  -7.455  0.00  0.00    -0.269 OA
ATOM     18  H   UNL     1       3.545   6.381  -7.951  0.00  0.00    +0.156 HD
BRANCH  16  19
ATOM     19  C   UNL     1       1.385   6.601  -9.469  0.00  0.00    +0.076 A 
ATOM     20  C   UNL     1       0.285   6.730 -10.304  0.00  0.00    +0.023 A 
ATOM     21  C   UNL     1       0.528   7.099 -11.604  0.00  0.00    +0.041 A 
ATOM     22  C   UNL     1       1.808   7.316 -12.004  0.00  0.00    +0.164 A 
ATOM     23  S   UNL     1       2.729   7.017 -10.565  0.00  0.00    -0.060 S 
BRANCH  22  24
ATOM     24  N   UNL     1       2.298   7.716 -13.342  0.00  0.00    +0.063 N 
ATOM     25  O   UNL     1       1.508   7.891 -14.252  0.00  0.00    -0.126 OA
ATOM     26  O   UNL     1       3.491   7.870 -13.533  0.00  0.00    -0.126 OA
ENDBRANCH  22  24
ENDBRANCH  16  19
ENDBRANCH   7  15
BRANCH   1  27
ATOM     27  C   UNL     1       2.451   3.937  -0.001  0.00  0.00    +0.120 C 
BRANCH  27  31
ATOM     28  C   UNL     1      -1.219   1.751   0.017  0.00  0.00    +0.000 A 
ATOM     29  C   UNL     1      -0.013   1.076   0.008  0.00  0.00    +0.000 A 
ATOM     30  C   UNL     1       1.175   1.783   0.000  0.00  0.00    +0.005 A 
ATOM     31  C   UNL     1       1.156   3.165   0.008  0.00  0.00    -0.033 A 
ATOM     32  C   UNL     1      -0.050   3.840   0.023  0.00  0.00    +0.005 A 
ATOM     33  C   UNL     1      -1.238   3.133   0.030  0.00  0.00    +0.000 A 
ENDBRANCH  27  31
ENDBRANCH   1  27
TORSDOF 6
