REMARK  Name = ZINC02380567
REMARK  7 active torsions:
REMARK  status: ('A' for Active; 'I' for Inactive)
REMARK    1  A    between atoms: C_1  and  N_2
REMARK    2  A    between atoms: N_2  and  C_3
REMARK    3  A    between atoms: N_2  and  C_4
REMARK    4  A    between atoms: C_6  and  N_27
REMARK    5  A    between atoms: N_9  and  C_21
REMARK    6  A    between atoms: N_12  and  C_15
REMARK    7  A    between atoms: N_27  and  C_28
REMARK                            x       y       z     vdW  Elec       q    Type
REMARK                         _______ _______ _______ _____ _____    ______ ____
ROOT
ATOM      1  C   UNL     1      -3.302  -0.175   0.641  0.00  0.00    +0.101 A 
ATOM      2  C   UNL     1      -2.031   0.295   0.952  0.00  0.00    +0.065 A 
ATOM      3  C   UNL     1      -0.982  -0.610   1.073  0.00  0.00    +0.051 A 
ATOM      4  C   UNL     1      -1.264  -1.972   0.866  0.00  0.00    +0.102 A 
ATOM      5  C   UNL     1      -2.577  -2.370   0.558  0.00  0.00    +0.135 A 
ATOM      6  N   UNL     1      -2.831  -3.718   0.363  0.00  0.00    -0.247 N 
ATOM      7  C   UNL     1      -1.844  -4.624   0.470  0.00  0.00    +0.343 A 
ATOM      8  O   UNL     1      -2.109  -5.797   0.291  0.00  0.00    -0.245 OA
ATOM      9  N   UNL     1      -0.578  -4.290   0.767  0.00  0.00    -0.228 N 
ATOM     10  C   UNL     1      -0.227  -3.002   0.976  0.00  0.00    +0.272 A 
ATOM     11  O   UNL     1       0.922  -2.705   1.245  0.00  0.00    -0.266 OA
ATOM     12  N   UNL     1      -3.611  -1.492   0.438  0.00  0.00    -0.329 N 
ATOM     13  H   UNL     1      -4.564  -1.799   0.209  0.00  0.00    +0.168 HD
ENDROOT
BRANCH   9  14
ATOM     14  C   UNL     1       0.395  -5.293   0.862  0.00  0.00    +0.054 A 
ATOM     15  C   UNL     1       0.574  -5.979   2.056  0.00  0.00    +0.026 A 
ATOM     16  C   UNL     1       1.530  -6.972   2.144  0.00  0.00    +0.002 A 
ATOM     17  C   UNL     1       2.317  -7.275   1.048  0.00  0.00    +0.000 A 
ATOM     18  C   UNL     1       2.145  -6.590  -0.141  0.00  0.00    +0.002 A 
ATOM     19  C   UNL     1       1.187  -5.601  -0.237  0.00  0.00    +0.026 A 
ENDBRANCH   9  14
BRANCH   6  20
ATOM     20  C   UNL     1      -4.129  -4.141   0.051  0.00  0.00    +0.053 A 
ATOM     21  C   UNL     1      -5.150  -3.998   0.981  0.00  0.00    +0.026 A 
ATOM     22  C   UNL     1      -6.430  -4.411   0.668  0.00  0.00    +0.002 A 
ATOM     23  C   UNL     1      -6.693  -4.978  -0.566  0.00  0.00    +0.000 A 
ATOM     24  C   UNL     1      -5.677  -5.127  -1.492  0.00  0.00    +0.002 A 
ATOM     25  C   UNL     1      -4.396  -4.710  -1.187  0.00  0.00    +0.026 A 
ENDBRANCH   6  20
BRANCH   1  27
ATOM     26  C   UNL     1      -4.150   2.130   0.896  0.00  0.00    +0.130 C 
ATOM     27  N   UNL     1      -4.347   0.727   0.521  0.00  0.00    -0.323 N 
ATOM     28  C   UNL     1      -5.648   0.279   0.019  0.00  0.00    +0.130 C 
ENDBRANCH   1  27
BRANCH   3  29
ATOM     29  N   UNL     1       0.300  -0.182   1.382  0.00  0.00    -0.314 N 
ATOM     30  H   UNL     1       0.506   0.122   2.280  0.00  0.00    +0.152 HD
BRANCH  29  31
ATOM     31  C   UNL     1       1.295  -0.190   0.400  0.00  0.00    +0.031 A 
ATOM     32  C   UNL     1       0.976  -0.518  -0.911  0.00  0.00    +0.023 A 
ATOM     33  C   UNL     1       1.960  -0.521  -1.880  0.00  0.00    +0.002 A 
ATOM     34  C   UNL     1       3.264  -0.207  -1.543  0.00  0.00    +0.000 A 
ATOM     35  C   UNL     1       3.586   0.115  -0.237  0.00  0.00    +0.002 A 
ATOM     36  C   UNL     1       2.606   0.124   0.735  0.00  0.00    +0.023 A 
ENDBRANCH  29  31
ENDBRANCH   3  29
TORSDOF 5
