REMARK  Name = ZINC18193094
REMARK  6 active torsions:
REMARK  status: ('A' for Active; 'I' for Inactive)
REMARK    1  A    between atoms: C_6  and  C_7
REMARK    2  A    between atoms: C_10  and  C_12
REMARK    3  A    between atoms: N_13  and  N_14
REMARK    4  A    between atoms: N_17  and  N_18
REMARK    5  A    between atoms: C_19  and  C_20
REMARK    6  A    between atoms: C_23  and  C_25
REMARK                            x       y       z     vdW  Elec       q    Type
REMARK                         _______ _______ _______ _____ _____    ______ ____
ROOT
ATOM      1  N   UNL     1      -2.925  -6.118   0.025  0.00  0.00    -0.189 N 
ATOM      2  C   UNL     1      -2.088  -7.173   0.079  0.00  0.00    +0.339 C 
ATOM      3  O   UNL     1      -2.535  -8.302   0.141  0.00  0.00    -0.249 OA
ATOM      4  N   UNL     1      -0.754  -6.976   0.064  0.00  0.00    -0.189 N 
ATOM      5  H   UNL     1      -3.885  -6.260   0.035  0.00  0.00    +0.179 HD
ATOM      6  H   UNL     1      -0.152  -7.735   0.103  0.00  0.00    +0.179 HD
ENDROOT
BRANCH   1   8
ATOM      7  C   UNL     1      -3.219  -3.799  -0.100  0.00  0.00    +0.176 C 
ATOM      8  N   UNL     1      -2.410  -4.817  -0.047  0.00  0.00    -0.183 NA
BRANCH   7  12
ATOM      9  C   UNL     1      -1.257  -0.766  -0.270  0.00  0.00    +0.136 A 
ATOM     10  C   UNL     1      -2.505  -0.219  -0.295  0.00  0.00    +0.050 A 
ATOM     11  C   UNL     1      -3.420  -1.279  -0.235  0.00  0.00    +0.051 A 
ATOM     12  C   UNL     1      -2.681  -2.439  -0.175  0.00  0.00    +0.148 A 
ATOM     13  O   UNL     1      -1.374  -2.105  -0.202  0.00  0.00    -0.454 OA
BRANCH   9  19
ATOM     14  C   UNL     1      -0.003   1.381  -0.391  0.00  0.00    +0.012 A 
ATOM     15  C   UNL     1       1.185   2.086  -0.433  0.00  0.00    +0.008 A 
ATOM     16  C   UNL     1       2.388   1.417  -0.400  0.00  0.00    +0.004 A 
ATOM     17  C   UNL     1       2.423   0.020  -0.324  0.00  0.00    +0.066 A 
ATOM     18  C   UNL     1       1.229  -0.696  -0.281  0.00  0.00    +0.027 A 
ATOM     19  C   UNL     1       0.013  -0.014  -0.315  0.00  0.00    +0.018 A 
ATOM     20  C   UNL     1       3.837  -0.400  -0.305  0.00  0.00    +0.340 C 
ATOM     21  O   UNL     1       4.218  -1.552  -0.243  0.00  0.00    -0.245 OA
ATOM     22  O   UNL     1       4.641   0.674  -0.366  0.00  0.00    -0.456 OA
ATOM     23  C   UNL     1       3.825   1.875  -0.429  0.00  0.00    +0.268 C 
ENDBRANCH   9  19
ENDBRANCH   7  12
ENDBRANCH   1   8
BRANCH   4  24
ATOM     24  N   UNL     1      -0.239  -5.675  -0.008  0.00  0.00    -0.183 NA
ATOM     25  C   UNL     1       1.046  -5.479   0.058  0.00  0.00    +0.176 C 
BRANCH  25  26
ATOM     26  C   UNL     1       1.962  -6.622   0.043  0.00  0.00    +0.148 A 
ATOM     27  C   UNL     1       3.326  -6.566   0.224  0.00  0.00    +0.051 A 
ATOM     28  C   UNL     1       3.800  -7.882   0.132  0.00  0.00    +0.050 A 
ATOM     29  C   UNL     1       2.720  -8.681  -0.099  0.00  0.00    +0.136 A 
ATOM     30  O   UNL     1       1.616  -7.911  -0.145  0.00  0.00    -0.454 OA
BRANCH  29  31
ATOM     31  C   UNL     1       2.755 -10.148  -0.264  0.00  0.00    +0.018 A 
ATOM     32  C   UNL     1       3.971 -10.832  -0.187  0.00  0.00    +0.012 A 
ATOM     33  C   UNL     1       4.005 -12.204  -0.341  0.00  0.00    +0.008 A 
ATOM     34  C   UNL     1       2.840 -12.903  -0.571  0.00  0.00    +0.004 A 
ATOM     35  C   UNL     1       1.614 -12.235  -0.652  0.00  0.00    +0.066 A 
ATOM     36  C   UNL     1       1.573 -10.852  -0.491  0.00  0.00    +0.027 A 
ATOM     37  C   UNL     1       0.563 -13.239  -0.902  0.00  0.00    +0.340 C 
ATOM     38  O   UNL     1      -0.620 -12.991  -1.025  0.00  0.00    -0.245 OA
ATOM     39  O   UNL     1       1.102 -14.467  -0.974  0.00  0.00    -0.456 OA
ATOM     40  C   UNL     1       2.539 -14.367  -0.778  0.00  0.00    +0.268 C 
ENDBRANCH  29  31
ENDBRANCH  25  26
ENDBRANCH   4  24
TORSDOF 6
