REMARK  Name = ZINC10907512
REMARK  5 active torsions:
REMARK  status: ('A' for Active; 'I' for Inactive)
REMARK    1  A    between atoms: C_1  and  C_2
REMARK    2  A    between atoms: C_8  and  C_9
REMARK    3  A    between atoms: C_8  and  N_52
REMARK    4  A    between atoms: C_15  and  C_17
REMARK    5  A    between atoms: C_17  and  N_18
REMARK                            x       y       z     vdW  Elec       q    Type
REMARK                         _______ _______ _______ _____ _____    ______ ____
ROOT
ATOM      1  C   UNL     1       2.679   5.558   0.344  0.00  0.00    +0.034 A 
ATOM      2  C   UNL     1       2.708   6.069   1.600  0.00  0.00    +0.070 A 
ATOM      3  S   UNL     1       2.589   7.817   1.249  0.00  0.00    -0.060 S 
ATOM      4  C   UNL     1       2.515   7.696  -0.481  0.00  0.00    +0.165 A 
ATOM      5  N   UNL     1       2.588   6.393  -0.672  0.00  0.00    -0.231 NA
ATOM      6  N   UNL     1       2.411   8.712  -1.424  0.00  0.00    -0.263 N 
ATOM      7  C   UNL     1       2.354   9.998  -1.025  0.00  0.00    +0.236 C 
ATOM      8  O   UNL     1       2.393  10.269   0.157  0.00  0.00    -0.274 OA
ATOM      9  H   UNL     1       2.380   8.496  -2.369  0.00  0.00    +0.157 HD
ENDROOT
BRANCH   1  10
ATOM     10  C   UNL     1       2.755   4.070   0.115  0.00  0.00    -0.022 C 
BRANCH  10  17
ATOM     11  C   UNL     1       0.002  -0.004   0.002  0.00  0.00    +0.005 C 
ATOM     12  C   UNL     1      -0.019   1.526   0.010  0.00  0.00    -0.031 C 
ATOM     13  C   UNL     1      -0.755   2.034  -1.232  0.00  0.00    -0.001 C 
ATOM     14  C   UNL     1      -0.719   3.565  -1.247  0.00  0.00    -0.018 C 
ATOM     15  C   UNL     1       0.737   4.036  -1.221  0.00  0.00    -0.078 C 
ATOM     16  C   UNL     1       1.417   2.056  -0.000  0.00  0.00    -0.075 C 
ATOM     17  N   UNL     1       1.382   3.534   0.011  0.00  0.00    +0.384 N 
ATOM     18  H   UNL     1       0.839   3.849   0.823  0.00  0.00    -0.081 HD
ENDBRANCH  10  17
ENDBRANCH   1  10
BRANCH   7  19
ATOM     19  C   UNL     1       2.242  11.100  -2.047  0.00  0.00    +0.210 C 
BRANCH  19  20
ATOM     20  N   UNL     1       2.197  12.396  -1.365  0.00  0.00    -0.259 N 
ATOM     21  C   UNL     1       1.032  13.038  -0.945  0.00  0.00    +0.038 C 
ATOM     22  C   UNL     1      -0.215  12.583  -1.094  0.00  0.00    +0.034 C 
ATOM     23  C   UNL     1       1.425  14.309  -0.304  0.00  0.00    +0.008 A 
ATOM     24  C   UNL     1       0.719  15.345   0.294  0.00  0.00    +0.010 A 
ATOM     25  C   UNL     1       1.400  16.431   0.809  0.00  0.00    +0.001 A 
ATOM     26  C   UNL     1       2.782  16.494   0.734  0.00  0.00    +0.001 A 
ATOM     27  C   UNL     1       3.500  15.474   0.144  0.00  0.00    +0.014 A 
ATOM     28  C   UNL     1       2.831  14.371  -0.381  0.00  0.00    +0.046 A 
ATOM     29  C   UNL     1       3.273  13.142  -1.059  0.00  0.00    +0.252 C 
ATOM     30  O   UNL     1       4.428  12.849  -1.303  0.00  0.00    -0.270 OA
ENDBRANCH  19  20
ENDBRANCH   7  19
TORSDOF 4
