REMARK  Name = ZINC35482403
REMARK  5 active torsions:
REMARK  status: ('A' for Active; 'I' for Inactive)
REMARK    1  A    between atoms: C_6  and  C_7
REMARK    2  A    between atoms: C_7  and  N_8
REMARK    3  A    between atoms: C_9  and  C_11
REMARK    4  A    between atoms: N_16  and  S_17
REMARK    5  A    between atoms: S_17  and  C_20
REMARK                            x       y       z     vdW  Elec       q    Type
REMARK                         _______ _______ _______ _____ _____    ______ ____
ROOT
ATOM      1  C   UNL     1      -3.021  -2.085  -2.855  0.00  0.00    +0.165 C 
ATOM      2  C   UNL     1      -3.207  -0.684  -3.475  0.00  0.00    +0.031 C 
ATOM      3  C   UNL     1      -4.444  -0.872  -4.393  0.00  0.00    +0.019 C 
ATOM      4  C   UNL     1      -5.295  -1.869  -3.568  0.00  0.00    +0.110 C 
ATOM      5  N   UNL     1      -4.313  -2.782  -2.947  0.00  0.00    -0.165 NA
ENDROOT
BRANCH   1   7
ATOM      6  N   UNL     1      -1.305  -1.879  -1.085  0.00  0.00    -0.310 N 
ATOM      7  C   UNL     1      -2.611  -1.956  -1.411  0.00  0.00    +0.232 C 
ATOM      8  O   UNL     1      -3.455  -1.922  -0.541  0.00  0.00    -0.274 OA
ATOM      9  H   UNL     1      -0.630  -1.907  -1.781  0.00  0.00    +0.149 HD
BRANCH   6  10
ATOM     10  C   UNL     1      -0.906  -1.754   0.319  0.00  0.00    +0.139 C 
BRANCH  10  16
ATOM     11  C   UNL     1       1.237  -0.463   0.358  0.00  0.00    +0.009 A 
ATOM     12  C   UNL     1       2.615  -0.397   0.441  0.00  0.00    +0.050 A 
ATOM     13  C   UNL     1       3.359  -1.558   0.576  0.00  0.00    +0.166 A 
ATOM     14  C   UNL     1       2.713  -2.791   0.628  0.00  0.00    +0.167 A 
ATOM     15  C   UNL     1       1.332  -2.850   0.544  0.00  0.00    +0.054 A 
ATOM     16  C   UNL     1       0.597  -1.687   0.409  0.00  0.00    -0.027 A 
ATOM     17  O   UNL     1       3.655  -3.770   0.761  0.00  0.00    -0.453 OA
ATOM     18  C   UNL     1       4.902  -3.159   0.380  0.00  0.00    +0.466 C 
ATOM     19  O   UNL     1       4.704  -1.764   0.677  0.00  0.00    -0.453 OA
ENDBRANCH  10  16
ENDBRANCH   6  10
ENDBRANCH   1   7
BRANCH   5  20
ATOM     20  S   UNL     1      -4.613  -4.330  -2.440  0.00  0.00    +0.063 S 
ATOM     21  O   UNL     1      -3.764  -4.563  -1.325  0.00  0.00    -0.153 OA
ATOM     22  O   UNL     1      -6.026  -4.465  -2.364  0.00  0.00    -0.153 OA
BRANCH  20  23
ATOM     23  C   UNL     1      -4.072  -5.412  -3.721  0.00  0.00    +0.127 A 
ATOM     24  C   UNL     1      -2.982  -6.238  -3.510  0.00  0.00    +0.077 A 
ATOM     25  C   UNL     1      -2.557  -7.088  -4.516  0.00  0.00    +0.144 A 
ATOM     26  C   UNL     1      -3.228  -7.109  -5.738  0.00  0.00    +0.077 A 
ATOM     27  C   UNL     1      -4.319  -6.280  -5.943  0.00  0.00    +0.049 A 
ATOM     28  C   UNL     1      -4.742  -5.437  -4.931  0.00  0.00    +0.069 A 
ATOM     29 CL   UNL     1      -6.113  -4.402  -5.183  0.00  0.00    -0.081 Cl
ATOM     30  N   UNL     1      -2.786  -7.975  -6.748  0.00  0.00    -0.280 N 
ATOM     31  C   UNL     1      -1.941  -8.978  -6.426  0.00  0.00    +0.255 C 
ATOM     32  O   UNL     1      -1.521  -9.721  -7.289  0.00  0.00    -0.272 OA
ATOM     33  C   UNL     1      -1.522  -9.172  -4.991  0.00  0.00    +0.325 C 
ATOM     34  O   UNL     1      -1.489  -7.907  -4.325  0.00  0.00    -0.481 OA
ATOM     35  H   UNL     1      -3.082  -7.855  -7.664  0.00  0.00    +0.155 HD
ENDBRANCH  20  23
ENDBRANCH   5  20
TORSDOF 5
