REMARK  Name = ZINC04741583
REMARK  2 active torsions:
REMARK  status: ('A' for Active; 'I' for Inactive)
REMARK    1  A    between atoms: C_4  and  C_7
REMARK    2  A    between atoms: C_12  and  C_17
REMARK                            x       y       z     vdW  Elec       q    Type
REMARK                         _______ _______ _______ _____ _____    ______ ____
ROOT
ATOM      1  C   UNL     1      -0.013   1.086   0.008  0.00  0.00    +0.156 C 
ATOM      2  C   UNL     1      -0.762   1.583  -1.208  0.00  0.00    +0.039 C 
ATOM      3  C   UNL     1      -0.298   2.590  -1.977  0.00  0.00    +0.020 C 
ATOM      4  C   UNL     1      -1.086   3.082  -3.168  0.00  0.00    +0.060 C 
ATOM      5  C   UNL     1      -1.873   1.921  -3.779  0.00  0.00    +0.039 C 
ATOM      6  C   UNL     1      -2.802   1.349  -2.703  0.00  0.00    +0.088 C 
ATOM      7  C   UNL     1      -1.979   0.945  -1.512  0.00  0.00    +0.164 C 
ATOM      8  O   UNL     1      -2.374   0.047  -0.794  0.00  0.00    -0.292 OA
ATOM      9  N   UNL     1       0.898   3.213  -1.714  0.00  0.00    -0.288 N 
ATOM     10  C   UNL     1       1.774   2.608  -0.829  0.00  0.00    +0.202 A 
ATOM     11  N   UNL     1       1.358   1.588  -0.002  0.00  0.00    -0.300 N 
ATOM     12  C   UNL     1       2.440   1.203   0.736  0.00  0.00    +0.071 A 
ATOM     13  C   UNL     1       2.618   0.233   1.716  0.00  0.00    +0.028 A 
ATOM     14  C   UNL     1       3.885   0.117   2.265  0.00  0.00    +0.002 A 
ATOM     15  C   UNL     1       4.936   0.924   1.865  0.00  0.00    +0.002 A 
ATOM     16  C   UNL     1       4.785   1.895   0.891  0.00  0.00    +0.030 A 
ATOM     17  C   UNL     1       3.514   2.031   0.322  0.00  0.00    +0.091 A 
ATOM     18  N   UNL     1       3.038   2.859  -0.629  0.00  0.00    -0.214 NA
ATOM     19  H   UNL     1       1.123   4.057  -2.137  0.00  0.00    +0.155 HD
ENDROOT
BRANCH   1  23
ATOM     20  C   UNL     1      -1.993   2.454   3.537  0.00  0.00    +0.000 A 
ATOM     21  C   UNL     1      -1.851   1.099   3.306  0.00  0.00    +0.000 A 
ATOM     22  C   UNL     1      -1.210   0.656   2.164  0.00  0.00    +0.006 A 
ATOM     23  C   UNL     1      -0.712   1.569   1.253  0.00  0.00    -0.020 A 
ATOM     24  C   UNL     1      -0.850   2.924   1.486  0.00  0.00    +0.006 A 
ATOM     25  C   UNL     1      -1.494   3.367   2.626  0.00  0.00    +0.000 A 
ENDBRANCH   1  23
BRANCH   5  26
ATOM     26  C   UNL     1      -2.691   2.418  -4.943  0.00  0.00    -0.006 A 
ATOM     27  C   UNL     1      -2.640   2.042  -6.244  0.00  0.00    +0.011 A 
ATOM     28  C   UNL     1      -3.499   2.639  -7.148  0.00  0.00    +0.008 A 
ATOM     29  C   UNL     1      -4.359   3.591  -6.709  0.00  0.00    +0.045 A 
ATOM     30  S   UNL     1      -3.972   3.661  -4.967  0.00  0.00    -0.101 S 
ENDBRANCH   5  26
TORSDOF 2
