REMARK  Name = ZINC13881918
REMARK  4 active torsions:
REMARK  status: ('A' for Active; 'I' for Inactive)
REMARK    1  A    between atoms: C_3  and  O_9
REMARK    2  A    between atoms: O_9  and  C_10
REMARK    3  A    between atoms: C_10  and  C_11
REMARK    4  A    between atoms: C_16  and  C_19
REMARK                            x       y       z     vdW  Elec       q    Type
REMARK                         _______ _______ _______ _____ _____    ______ ____
ROOT
ATOM      1  C   UNL     1      -0.840  -2.220  -0.002  0.00  0.00    +0.256 C 
ATOM      2  O   UNL     1       0.297  -2.641  -0.015  0.00  0.00    -0.272 OA
ATOM      3  N   UNL     1      -1.067  -0.892   0.007  0.00  0.00    -0.262 N 
ATOM      4  C   UNL     1       0.002  -0.004   0.002  0.00  0.00    +0.165 A 
ATOM      5  N   UNL     1      -0.016   1.315   0.009  0.00  0.00    -0.229 NA
ATOM      6  C   UNL     1       1.103   2.013   0.002  0.00  0.00    +0.057 A 
ATOM      7  C   UNL     1       2.282   1.345  -0.013  0.00  0.00    +0.072 A 
ATOM      8  S   UNL     1       1.704  -0.346  -0.016  0.00  0.00    -0.060 S 
ATOM      9  H   UNL     1      -1.977  -0.556   0.018  0.00  0.00    +0.157 HD
ENDROOT
BRANCH   6  10
ATOM     10  C   UNL     1       1.071   3.520   0.010  0.00  0.00    +0.014 C 
ATOM     11  C   UNL     1       2.070   4.056  -1.017  0.00  0.00    +0.016 C 
ATOM     12  C   UNL     1       2.037   5.586  -1.009  0.00  0.00    -0.010 C 
ATOM     13  C   UNL     1       0.630   6.068  -1.366  0.00  0.00    +0.007 C 
ATOM     14  C   UNL     1      -0.369   5.532  -0.339  0.00  0.00    -0.010 C 
ATOM     15  C   UNL     1      -0.337   4.002  -0.347  0.00  0.00    +0.016 C 
ATOM     16  C   UNL     1       0.007   6.042   1.053  0.00  0.00    +0.007 C 
ATOM     17  C   UNL     1       1.414   5.560   1.411  0.00  0.00    -0.010 C 
ATOM     18  C   UNL     1       2.413   6.097   0.384  0.00  0.00    +0.007 C 
ATOM     19  C   UNL     1       1.447   4.030   1.403  0.00  0.00    +0.016 C 
ENDBRANCH   6  10
BRANCH   1  20
ATOM     20  C   UNL     1      -2.000  -3.183   0.004  0.00  0.00    +0.325 C 
BRANCH  20  21
ATOM     21  O   UNL     1      -1.506  -4.524  -0.008  0.00  0.00    -0.480 OA
BRANCH  21  24
ATOM     22  C   UNL     1      -4.719  -6.232   0.013  0.00  0.00    +0.042 A 
ATOM     23  C   UNL     1      -3.781  -5.217   0.010  0.00  0.00    +0.051 A 
ATOM     24  C   UNL     1      -2.429  -5.522  -0.004  0.00  0.00    +0.156 A 
ATOM     25  C   UNL     1      -2.018  -6.849  -0.021  0.00  0.00    +0.168 A 
ATOM     26  C   UNL     1      -2.959  -7.863  -0.013  0.00  0.00    +0.080 A 
ATOM     27  C   UNL     1      -4.309  -7.555   0.002  0.00  0.00    +0.126 A 
ATOM     28  F   UNL     1      -5.228  -8.545   0.005  0.00  0.00    -0.205 F 
ATOM     29  F   UNL     1      -0.701  -7.150  -0.041  0.00  0.00    -0.202 F 
ENDBRANCH  21  24
ENDBRANCH  20  21
ENDBRANCH   1  20
TORSDOF 4
