REMARK  Name = ZINC09643032
REMARK  7 active torsions:
REMARK  status: ('A' for Active; 'I' for Inactive)
REMARK    1  A    between atoms: C_1  and  C_2
REMARK    2  A    between atoms: C_5  and  C_7
REMARK    3  A    between atoms: C_16  and  C_18
REMARK    4  A    between atoms: C_18  and  N_48
REMARK    5  A    between atoms: C_19  and  N_48
REMARK    6  A    between atoms: C_20  and  C_21
REMARK    7  A    between atoms: C_20  and  N_48
REMARK                            x       y       z     vdW  Elec       q    Type
REMARK                         _______ _______ _______ _____ _____    ______ ____
ROOT
ATOM      1  C   UNL     1      -1.465   7.586  -0.274  0.00  0.00    +0.010 A 
ATOM      2  C   UNL     1      -0.870   8.012   0.869  0.00  0.00    +0.057 A 
ATOM      3  S   UNL     1      -0.157   6.524   1.542  0.00  0.00    -0.076 S 
ATOM      4  C   UNL     1      -0.667   5.376   0.289  0.00  0.00    +0.116 A 
ATOM      5  C   UNL     1      -1.379   6.172  -0.623  0.00  0.00    +0.080 A 
ATOM      6  C   UNL     1      -1.915   5.485  -1.758  0.00  0.00    +0.260 A 
ATOM      7  O   UNL     1      -2.548   6.091  -2.605  0.00  0.00    -0.267 OA
ATOM      8  N   UNL     1      -1.705   4.162  -1.879  0.00  0.00    -0.312 N 
ATOM      9  H   UNL     1      -2.063   3.692  -2.649  0.00  0.00    +0.170 HD
ATOM     10  C   UNL     1      -1.007   3.470  -0.943  0.00  0.00    +0.094 A 
ATOM     11  N   UNL     1      -0.505   4.068   0.104  0.00  0.00    -0.229 NA
ENDROOT
BRANCH   1  16
ATOM     12  C   UNL     1      -3.675  10.809  -4.336  0.00  0.00    +0.051 C 
ATOM     13  C   UNL     1      -3.246  10.079  -3.089  0.00  0.00    -0.013 A 
ATOM     14  C   UNL     1      -3.681  10.241  -1.814  0.00  0.00    +0.011 A 
ATOM     15  C   UNL     1      -3.148   9.451  -0.817  0.00  0.00    +0.016 A 
ATOM     16  C   UNL     1      -2.186   8.535  -1.147  0.00  0.00    +0.021 A 
ATOM     17  S   UNL     1      -2.035   8.780  -2.909  0.00  0.00    -0.093 S 
ENDBRANCH   1  16
BRANCH  10  18
ATOM     18  C   UNL     1      -0.802   1.987  -1.117  0.00  0.00    -0.003 C 
BRANCH  18  20
ATOM     19  C   UNL     1       1.346   2.010   0.000  0.00  0.00    -0.095 C 
ATOM     20  N   UNL     1      -0.030   1.473   0.034  0.00  0.00    +0.385 N 
ATOM     21  H   UNL     1      -0.486   1.778   0.903  0.00  0.00    -0.081 HD
BRANCH  20  22
ATOM     22  C   UNL     1       0.002  -0.004   0.002  0.00  0.00    -0.043 C 
BRANCH  22  23
ATOM     23  C   UNL     1       0.598  -0.505   1.292  0.00  0.00    -0.060 A 
ATOM     24  C   UNL     1       1.960  -0.723   1.384  0.00  0.00    +0.005 A 
ATOM     25  C   UNL     1       2.512  -1.177   2.567  0.00  0.00    +0.050 A 
ATOM     26  C   UNL     1       1.699  -1.428   3.661  0.00  0.00    +0.166 A 
ATOM     27  C   UNL     1       0.326  -1.214   3.566  0.00  0.00    +0.166 A 
ATOM     28  C   UNL     1      -0.219  -0.752   2.379  0.00  0.00    +0.051 A 
ATOM     29  O   UNL     1      -0.248  -1.530   4.764  0.00  0.00    -0.453 OA
ATOM     30  C   UNL     1       0.730  -2.326   5.460  0.00  0.00    +0.466 C 
ATOM     31  O   UNL     1       1.986  -1.878   4.917  0.00  0.00    -0.453 OA
ENDBRANCH  22  23
ENDBRANCH  20  22
ENDBRANCH  18  20
ENDBRANCH  10  18
TORSDOF 5
