REMARK  Name = ZINC45819302
REMARK  10 active torsions:
REMARK  status: ('A' for Active; 'I' for Inactive)
REMARK    1  A    between atoms: C_1  and  C_2
REMARK    2  A    between atoms: C_3  and  C_12
REMARK    3  A    between atoms: C_12  and  C_13
REMARK    4  A    between atoms: C_13  and  C_14
REMARK    5  A    between atoms: N_16  and  C_17
REMARK    6  A    between atoms: C_17  and  C_18
REMARK    7  A    between atoms: C_18  and  C_20
REMARK    8  A    between atoms: C_18  and  N_27
REMARK    9  A    between atoms: N_27  and  C_28
REMARK   10  A    between atoms: N_27  and  C_29
REMARK                            x       y       z     vdW  Elec       q    Type
REMARK                         _______ _______ _______ _____ _____    ______ ____
ROOT
ATOM      1  C   UNL     1      -4.777   0.671  -1.349  0.00  0.00    +0.213 C 
ATOM      2  O   UNL     1      -5.257   1.123  -0.332  0.00  0.00    -0.276 OA
ATOM      3  N   UNL     1      -5.312   0.986  -2.545  0.00  0.00    -0.317 N 
ATOM      4  H   UNL     1      -4.928   0.625  -3.359  0.00  0.00    +0.149 HD
ENDROOT
BRANCH   1   5
ATOM      5  C   UNL     1      -3.581  -0.243  -1.277  0.00  0.00    +0.100 C 
BRANCH   5   6
ATOM      6  C   UNL     1      -3.175  -0.436   0.186  0.00  0.00    +0.051 C 
BRANCH   6   9
ATOM      7  C   UNL     1      -0.522   0.652   0.312  0.00  0.00    +0.064 C 
ATOM      8  C   UNL     1      -0.730  -0.840   0.319  0.00  0.00    +0.026 A 
ATOM      9  C   UNL     1      -1.979  -1.350   0.259  0.00  0.00    +0.036 A 
ATOM     10  C   UNL     1      -2.150  -2.756   0.266  0.00  0.00    +0.257 A 
ATOM     11  O   UNL     1      -3.266  -3.240   0.212  0.00  0.00    -0.267 OA
ATOM     12  N   UNL     1      -1.065  -3.554   0.332  0.00  0.00    -0.275 N 
ATOM     13  H   UNL     1      -1.173  -4.518   0.336  0.00  0.00    +0.173 HD
ATOM     14  C   UNL     1       0.169  -3.018   0.390  0.00  0.00    +0.327 A 
ATOM     15  O   UNL     1       1.138  -3.750   0.450  0.00  0.00    -0.247 OA
ATOM     16  N   UNL     1       0.345  -1.684   0.379  0.00  0.00    -0.311 N 
ATOM     17  H   UNL     1       1.242  -1.317   0.418  0.00  0.00    +0.170 HD
ENDBRANCH   6   9
ENDBRANCH   5   6
ENDBRANCH   1   5
BRANCH   3  18
ATOM     18  C   UNL     1      -6.475   1.875  -2.616  0.00  0.00    +0.093 C 
BRANCH  18  19
ATOM     19  C   UNL     1      -6.802   2.171  -4.081  0.00  0.00    -0.020 C 
BRANCH  19  20
ATOM     20  C   UNL     1      -7.246   0.902  -4.763  0.00  0.00    -0.041 A 
ATOM     21  C   UNL     1      -6.331   0.136  -5.460  0.00  0.00    +0.003 A 
ATOM     22  C   UNL     1      -6.737  -1.028  -6.085  0.00  0.00    +0.000 A 
ATOM     23  C   UNL     1      -8.059  -1.426  -6.014  0.00  0.00    +0.001 A 
ATOM     24  C   UNL     1      -8.975  -0.660  -5.318  0.00  0.00    +0.020 A 
ATOM     25  C   UNL     1      -8.568   0.501  -4.687  0.00  0.00    +0.043 A 
ATOM     26 CL   UNL     1      -9.716   1.460  -3.806  0.00  0.00    -0.083 Cl
ENDBRANCH  19  20
BRANCH  19  27
ATOM     27  N   UNL     1      -5.606   2.696  -4.754  0.00  0.00    +0.382 N 
ATOM     28  C   UNL     1      -5.932   3.021  -6.149  0.00  0.00    -0.096 C 
ATOM     29  C   UNL     1      -5.148   3.908  -4.062  0.00  0.00    -0.096 C 
ATOM     30  H   UNL     1      -4.876   2.000  -4.732  0.00  0.00    -0.082 HD
ENDBRANCH  19  27
ENDBRANCH  18  19
ENDBRANCH   3  18
TORSDOF 7
