REMARK  Name = ZINC58174680
REMARK  8 active torsions:
REMARK  status: ('A' for Active; 'I' for Inactive)
REMARK    1  A    between atoms: C_1  and  C_2
REMARK    2  A    between atoms: C_2  and  C_3
REMARK    3  A    between atoms: C_3  and  C_5
REMARK    4  A    between atoms: C_3  and  N_6
REMARK    5  A    between atoms: C_7  and  C_9
REMARK    6  A    between atoms: C_9  and  C_24
REMARK    7  A    between atoms: C_10  and  C_11
REMARK    8  A    between atoms: C_16  and  C_17
REMARK                            x       y       z     vdW  Elec       q    Type
REMARK                         _______ _______ _______ _____ _____    ______ ____
ROOT
ATOM      1  C   UNL     1       4.372   0.405   4.692  0.00  0.00    +0.021 A 
ATOM      2  C   UNL     1       3.016   0.393   4.983  0.00  0.00    +0.113 A 
ATOM      3  N   UNL     1       2.879   0.110   6.286  0.00  0.00    -0.284 N 
ATOM      4  H   UNL     1       2.033   0.038   6.755  0.00  0.00    +0.188 HD
ATOM      5  N   UNL     1       4.138  -0.068   6.867  0.00  0.00    -0.173 NA
ATOM      6  C   UNL     1       5.064   0.094   5.950  0.00  0.00    +0.100 A 
ENDROOT
BRANCH   6   7
ATOM      7  C   UNL     1       6.529  -0.015   6.147  0.00  0.00    +0.003 A 
ATOM      8  C   UNL     1       7.335  -0.528   5.132  0.00  0.00    +0.011 A 
ATOM      9  C   UNL     1       8.699  -0.627   5.321  0.00  0.00    +0.016 A 
ATOM     10  C   UNL     1       9.266  -0.218   6.516  0.00  0.00    +0.018 A 
ATOM     11  C   UNL     1       8.470   0.292   7.527  0.00  0.00    +0.016 A 
ATOM     12  C   UNL     1       7.106   0.402   7.346  0.00  0.00    +0.011 A 
ATOM     13 BR   UNL     1      11.135  -0.357   6.768  0.00  0.00    -0.050 Br
ENDBRANCH   6   7
BRANCH   1  15
ATOM     14  C   UNL     1       4.454   0.110   2.250  0.00  0.00    +0.114 C 
ATOM     15  C   UNL     1       4.988   0.669   3.393  0.00  0.00    +0.035 C 
BRANCH  14  17
ATOM     16  N   UNL     1       2.780  -1.352   1.241  0.00  0.00    -0.308 N 
ATOM     17  C   UNL     1       3.397  -0.906   2.353  0.00  0.00    +0.255 C 
ATOM     18  O   UNL     1       3.078  -1.344   3.443  0.00  0.00    -0.269 OA
ATOM     19  H   UNL     1       3.034  -1.003   0.372  0.00  0.00    +0.149 HD
BRANCH  16  20
ATOM     20  C   UNL     1       1.726  -2.365   1.344  0.00  0.00    +0.070 C 
ATOM     21  C   UNL     1       2.358  -3.757   1.375  0.00  0.00    +0.028 C 
BRANCH  20  23
ATOM     22  C   UNL     1       0.067  -0.909   0.173  0.00  0.00    +0.005 C 
ATOM     23  C   UNL     1       0.794  -2.255   0.136  0.00  0.00    +0.018 C 
ENDBRANCH  20  23
ENDBRANCH  16  20
ENDBRANCH  14  17
BRANCH  14  24
ATOM     24  C   UNL     1       4.930   0.520   0.963  0.00  0.00    +0.104 C 
ATOM     25  N   UNL     1       5.308   0.845  -0.058  0.00  0.00    -0.191 NA
ENDBRANCH  14  24
ENDBRANCH   1  15
TORSDOF 6
