REMARK  Name = ZINC04997456
REMARK  7 active torsions:
REMARK  status: ('A' for Active; 'I' for Inactive)
REMARK    1  A    between atoms: C_1  and  C_2
REMARK    2  A    between atoms: C_9  and  N_31
REMARK    3  A    between atoms: C_10  and  C_29
REMARK    4  A    between atoms: C_11  and  C_13
REMARK    5  A    between atoms: C_17  and  O_19
REMARK    6  A    between atoms: O_19  and  C_20
REMARK    7  A    between atoms: C_20  and  C_21
REMARK                            x       y       z     vdW  Elec       q    Type
REMARK                         _______ _______ _______ _____ _____    ______ ____
ROOT
ATOM      1  C   UNL     1       2.982   1.938   3.046  0.00  0.00    +0.068 C 
ATOM      2  C   UNL     1       2.809   0.533   2.530  0.00  0.00    +0.068 A 
ATOM      3  C   UNL     1       2.598   0.171   1.207  0.00  0.00    +0.049 A 
ATOM      4  C   UNL     1       2.493  -1.191   1.152  0.00  0.00    +0.222 A 
ATOM      5  N   UNL     1       2.632  -1.660   2.402  0.00  0.00    -0.246 N 
ATOM      6  H   UNL     1       2.600  -2.620   2.678  0.00  0.00    +0.192 HD
ATOM      7  N   UNL     1       2.830  -0.562   3.254  0.00  0.00    -0.176 NA
ATOM      8  O   UNL     1       2.287  -1.863  -0.008  0.00  0.00    -0.423 OA
ATOM      9  C   UNL     1       2.458  -1.186  -1.161  0.00  0.00    +0.200 C 
ATOM     10  C   UNL     1       2.562   0.160  -1.235  0.00  0.00    +0.098 C 
ATOM     11  C   UNL     1       2.490   1.045  -0.016  0.00  0.00    +0.101 C 
ENDROOT
BRANCH  11  12
ATOM     12  C   UNL     1       1.176   1.782   0.000  0.00  0.00    -0.031 A 
ATOM     13  C   UNL     1      -0.013   1.076   0.008  0.00  0.00    +0.005 A 
ATOM     14  C   UNL     1      -1.220   1.750   0.017  0.00  0.00    +0.004 A 
ATOM     15  C   UNL     1      -1.241   3.131   0.031  0.00  0.00    +0.045 A 
ATOM     16  C   UNL     1      -0.050   3.842   0.024  0.00  0.00    +0.121 A 
ATOM     17  C   UNL     1       1.160   3.163   0.008  0.00  0.00    +0.050 A 
BRANCH  16  18
ATOM     18  O   UNL     1      -0.069   5.201   0.031  0.00  0.00    -0.487 OA
BRANCH  18  19
ATOM     19  C   UNL     1      -1.350   5.832   0.047  0.00  0.00    +0.268 C 
BRANCH  19  20
ATOM     20  C   UNL     1      -1.173   7.329   0.053  0.00  0.00    +0.043 A 
ATOM     21  C   UNL     1      -1.103   8.023  -1.143  0.00  0.00    +0.131 A 
ATOM     22  C   UNL     1      -0.941   9.398  -1.136  0.00  0.00    +0.039 A 
ATOM     23  C   UNL     1      -0.849  10.077   0.065  0.00  0.00    +0.004 A 
ATOM     24  C   UNL     1      -0.919   9.384   1.259  0.00  0.00    +0.020 A 
ATOM     25  C   UNL     1      -1.086   8.010   1.253  0.00  0.00    +0.050 A 
ATOM     26 CL   UNL     1      -1.181   7.141   2.753  0.00  0.00    -0.083 Cl
ATOM     27  F   UNL     1      -1.194   7.359  -2.316  0.00  0.00    -0.205 F 
ENDBRANCH  19  20
ENDBRANCH  18  19
ENDBRANCH  16  18
ENDBRANCH  11  12
BRANCH   9  28
ATOM     28  N   UNL     1       2.531  -1.905  -2.329  0.00  0.00    -0.328 N 
ATOM     29  H   UNL     1       2.459  -2.872  -2.308  0.00  0.00    +0.145 HD
ATOM     30  H   UNL     1       2.654  -1.446  -3.174  0.00  0.00    +0.145 HD
ENDBRANCH   9  28
BRANCH  10  31
ATOM     31  C   UNL     1       2.746   0.767  -2.519  0.00  0.00    +0.101 C 
ATOM     32  N   UNL     1       2.893   1.250  -3.537  0.00  0.00    -0.191 NA
ENDBRANCH  10  31
TORSDOF 6
