REMARK  Name = ZINC24772180
REMARK  15 active torsions:
REMARK  status: ('A' for Active; 'I' for Inactive)
REMARK    1  A    between atoms: C_1  and  C_2
REMARK    2  A    between atoms: C_7  and  O_8
REMARK    3  A    between atoms: O_8  and  C_9
REMARK    4  A    between atoms: C_9  and  C_10
REMARK    5  A    between atoms: C_10  and  O_12
REMARK    6  A    between atoms: O_12  and  C_13
REMARK    7  A    between atoms: C_13  and  C_14
REMARK    8  A    between atoms: N_16  and  C_17
REMARK    9  A    between atoms: N_16  and  C_21
REMARK   10  A    between atoms: C_17  and  C_18
REMARK   11  A    between atoms: C_18  and  C_19
REMARK   12  A    between atoms: C_18  and  C_20
REMARK   13  A    between atoms: C_22  and  N_37
REMARK   14  A    between atoms: N_23  and  C_30
REMARK   15  A    between atoms: C_30  and  C_31
REMARK                            x       y       z     vdW  Elec       q    Type
REMARK                         _______ _______ _______ _____ _____    ______ ____
ROOT
ATOM      1  C   UNL     1       0.579   0.128   8.502  0.00  0.00    +0.258 C 
ATOM      2  O   UNL     1       1.020  -1.000   8.438  0.00  0.00    -0.272 OA
ATOM      3  N   UNL     1       0.392   0.712   9.704  0.00  0.00    -0.261 N 
ENDROOT
BRANCH   3   4
ATOM      4  C   UNL     1       0.618  -0.022  10.888  0.00  0.00    +0.140 A 
ATOM      5  C   UNL     1      -0.114  -1.160  11.158  0.00  0.00    +0.128 A 
ATOM      6  N   UNL     1       0.130  -1.854  12.321  0.00  0.00    -0.276 N 
ATOM      7  C   UNL     1       1.071  -1.429  13.183  0.00  0.00    +0.331 A 
ATOM      8  O   UNL     1       1.271  -2.056  14.205  0.00  0.00    -0.246 OA
ATOM      9  N   UNL     1       1.794  -0.322  12.936  0.00  0.00    -0.273 N 
ATOM     10  H   UNL     1       2.466  -0.036  13.574  0.00  0.00    +0.173 HD
ATOM     11  C   UNL     1       1.598   0.392  11.810  0.00  0.00    +0.277 A 
ATOM     12  O   UNL     1       2.262   1.391  11.593  0.00  0.00    -0.266 OA
BRANCH   5  13
ATOM     13  N   UNL     1      -1.075  -1.594  10.277  0.00  0.00    -0.343 N 
ATOM     14  H   UNL     1      -1.201  -1.136   9.432  0.00  0.00    +0.144 HD
ATOM     15  H   UNL     1      -1.627  -2.360  10.501  0.00  0.00    +0.144 HD
ENDBRANCH   5  13
BRANCH   6  16
ATOM     16  C   UNL     1      -0.639  -3.064  12.621  0.00  0.00    +0.163 C 
BRANCH  16  17
ATOM     17  C   UNL     1       0.070  -4.265  12.050  0.00  0.00    -0.028 A 
ATOM     18  C   UNL     1      -0.206  -4.682  10.761  0.00  0.00    +0.005 A 
ATOM     19  C   UNL     1       0.445  -5.784  10.238  0.00  0.00    +0.000 A 
ATOM     20  C   UNL     1       1.371  -6.468  11.003  0.00  0.00    +0.000 A 
ATOM     21  C   UNL     1       1.647  -6.050  12.291  0.00  0.00    +0.000 A 
ATOM     22  C   UNL     1       1.000  -4.946  12.813  0.00  0.00    +0.005 A 
ENDBRANCH  16  17
ENDBRANCH   6  16
ENDBRANCH   3   4
BRANCH   1  23
ATOM     23  C   UNL     1       0.241   0.878   7.239  0.00  0.00    +0.328 C 
BRANCH  23  24
ATOM     24  O   UNL     1       0.524   0.054   6.106  0.00  0.00    -0.453 OA
BRANCH  24  25
ATOM     25  C   UNL     1       0.277   0.578   4.895  0.00  0.00    +0.346 C 
ATOM     26  O   UNL     1      -0.166   1.698   4.800  0.00  0.00    -0.247 OA
BRANCH  25  27
ATOM     27  C   UNL     1       0.551  -0.232   3.654  0.00  0.00    +0.349 C 
BRANCH  27  28
ATOM     28  O   UNL     1       0.209   0.537   2.499  0.00  0.00    -0.481 OA
BRANCH  28  35
ATOM     29  C   UNL     1      -0.461   2.040   0.203  0.00  0.00    +0.047 C 
ATOM     30  C   UNL     1       0.086   0.638   0.125  0.00  0.00    -0.007 A 
ATOM     31  C   UNL     1       0.285   0.041  -1.105  0.00  0.00    +0.027 A 
ATOM     32  C   UNL     1       0.787  -1.246  -1.177  0.00  0.00    +0.041 A 
ATOM     33  C   UNL     1       1.093  -1.938  -0.017  0.00  0.00    +0.023 A 
ATOM     34  C   UNL     1       0.896  -1.344   1.214  0.00  0.00    +0.047 A 
ATOM     35  C   UNL     1       0.398  -0.051   1.288  0.00  0.00    +0.124 A 
ATOM     36 CL   UNL     1       1.035  -1.995  -2.723  0.00  0.00    -0.084 Cl
ENDBRANCH  28  35
ENDBRANCH  27  28
ENDBRANCH  25  27
ENDBRANCH  24  25
ENDBRANCH  23  24
ENDBRANCH   1  23
BRANCH   3  37
ATOM     37  C   UNL     1      -0.046   2.108   9.780  0.00  0.00    +0.117 C 
BRANCH  37  38
ATOM     38  C   UNL     1      -1.573   2.168   9.704  0.00  0.00    +0.001 C 
ATOM     39  C   UNL     1      -2.172   1.498  10.941  0.00  0.00    +0.009 C 
ATOM     40  C   UNL     1      -2.024   3.629   9.646  0.00  0.00    +0.009 C 
ENDBRANCH  37  38
ENDBRANCH   3  37
TORSDOF 12
