REMARK  Name = ZINC21698252
REMARK  8 active torsions:
REMARK  status: ('A' for Active; 'I' for Inactive)
REMARK    1  A    between atoms: C_1  and  C_2
REMARK    2  A    between atoms: C_9  and  C_13
REMARK    3  A    between atoms: C_13  and  O_14
REMARK    4  A    between atoms: O_14  and  C_15
REMARK    5  A    between atoms: C_15  and  C_17
REMARK    6  A    between atoms: C_18  and  C_19
REMARK    7  A    between atoms: C_20  and  C_26
REMARK    8  A    between atoms: N_22  and  C_25
REMARK                            x       y       z     vdW  Elec       q    Type
REMARK                         _______ _______ _______ _____ _____    ______ ____
ROOT
ATOM      1  C   UNL     1       0.206   3.156   7.008  0.00  0.00    +0.288 C 
ENDROOT
BRANCH   1  10
ATOM      2  C   UNL     1      -0.013   1.086   0.008  0.00  0.00    +0.044 C 
ATOM      3  C   UNL     1      -0.718   1.572   1.248  0.00  0.00    -0.046 A 
ATOM      4  C   UNL     1      -2.102   1.794   1.231  0.00  0.00    +0.021 A 
ATOM      5  C   UNL     1      -2.735   2.225   2.345  0.00  0.00    +0.096 A 
ATOM      6  N   UNL     1      -2.040   2.459   3.493  0.00  0.00    -0.268 N 
ATOM      7  C   UNL     1      -0.689   2.257   3.539  0.00  0.00    +0.141 A 
ATOM      8  C   UNL     1      -0.014   1.804   2.391  0.00  0.00    +0.050 A 
ATOM      9  N   UNL     1      -0.002   2.485   4.658  0.00  0.00    -0.231 NA
ATOM     10  C   UNL     1      -0.601   2.910   5.759  0.00  0.00    +0.086 A 
ATOM     11  C   UNL     1      -1.965   3.130   5.764  0.00  0.00    +0.097 A 
ATOM     12  C   UNL     1      -2.693   2.895   4.592  0.00  0.00    +0.259 A 
ATOM     13  O   UNL     1      -3.899   3.079   4.564  0.00  0.00    -0.267 OA
ENDBRANCH   1  10
BRANCH   1  14
ATOM     14  O   UNL     1       0.749   1.920   7.475  0.00  0.00    -0.455 OA
BRANCH  14  15
ATOM     15  C   UNL     1       1.503   1.966   8.593  0.00  0.00    +0.332 C 
ATOM     16  O   UNL     1       1.694   3.028   9.156  0.00  0.00    -0.246 OA
BRANCH  15  17
ATOM     17  C   UNL     1       2.072   0.778   9.112  0.00  0.00    +0.092 C 
ATOM     18  C   UNL     1       2.828   0.824  10.233  0.00  0.00    +0.020 C 
BRANCH  18  19
ATOM     19  C   UNL     1       3.418  -0.407  10.771  0.00  0.00    +0.034 A 
ATOM     20  C   UNL     1       4.771  -0.601  11.139  0.00  0.00    +0.069 A 
ATOM     21  N   UNL     1       4.901  -1.824  11.571  0.00  0.00    -0.175 NA
ATOM     22  N   UNL     1       3.660  -2.467  11.503  0.00  0.00    -0.255 N 
ATOM     23  C   UNL     1       2.755  -1.598  11.020  0.00  0.00    +0.134 A 
ATOM     24 CL   UNL     1       1.068  -1.911  10.754  0.00  0.00    -0.062 Cl
ATOM     25  C   UNL     1       3.391  -3.852  11.899  0.00  0.00    +0.174 C 
ATOM     26  C   UNL     1       5.869   0.427  11.047  0.00  0.00    +0.068 C 
ENDBRANCH  18  19
ENDBRANCH  15  17
ENDBRANCH  14  15
ENDBRANCH   1  14
TORSDOF 5
