REMARK  Name = ZINC11347189
REMARK  10 active torsions:
REMARK  status: ('A' for Active; 'I' for Inactive)
REMARK    1  A    between atoms: C_1  and  C_2
REMARK    2  A    between atoms: C_4  and  C_32
REMARK    3  A    between atoms: C_6  and  N_8
REMARK    4  A    between atoms: N_8  and  C_9
REMARK    5  A    between atoms: C_9  and  C_10
REMARK    6  A    between atoms: C_10  and  C_11
REMARK    7  A    between atoms: C_13  and  C_15
REMARK    8  A    between atoms: C_15  and  S_16
REMARK    9  A    between atoms: S_16  and  C_17
REMARK   10  A    between atoms: C_20  and  C_22
REMARK                            x       y       z     vdW  Elec       q    Type
REMARK                         _______ _______ _______ _____ _____    ______ ____
ROOT
ATOM      1  C   UNL     1      -0.129  -4.898   3.686  0.00  0.00    +0.175 C 
ENDROOT
BRANCH   1   3
ATOM      2  N   UNL     1       0.052  -2.797   2.393  0.00  0.00    -0.270 N 
ATOM      3  C   UNL     1      -0.032  -4.142   2.386  0.00  0.00    +0.230 C 
ATOM      4  O   UNL     1      -0.029  -4.745   1.333  0.00  0.00    -0.274 OA
BRANCH   2  10
ATOM      5  C   UNL     1      -2.363  -1.332  -1.631  0.00  0.00    +0.044 C 
ATOM      6  C   UNL     1      -1.116  -1.362  -0.785  0.00  0.00    -0.048 A 
ATOM      7  C   UNL     1       0.018  -0.690  -1.201  0.00  0.00    +0.006 A 
ATOM      8  C   UNL     1       1.163  -0.715  -0.427  0.00  0.00    -0.048 A 
ATOM      9  C   UNL     1       1.178  -1.413   0.765  0.00  0.00    +0.027 A 
ATOM     10  C   UNL     1       0.040  -2.089   1.186  0.00  0.00    +0.037 A 
ATOM     11  C   UNL     1      -1.110  -2.057   0.409  0.00  0.00    +0.027 A 
ATOM     12  C   UNL     1       2.397   0.019  -0.884  0.00  0.00    +0.044 C 
ENDBRANCH   2  10
BRANCH   2  13
ATOM     13  C   UNL     1       0.155  -2.076   3.664  0.00  0.00    +0.128 C 
BRANCH  13  14
ATOM     14  C   UNL     1      -1.248  -1.737   4.173  0.00  0.00    +0.138 C 
BRANCH  14  15
ATOM     15  C   UNL     1      -1.144  -1.012   5.450  0.00  0.00    +0.064 C 
ATOM     16  N   UNL     1      -1.064  -0.454   6.436  0.00  0.00    -0.197 NA
ENDBRANCH  14  15
ENDBRANCH  13  14
ENDBRANCH   2  13
ENDBRANCH   1   3
BRANCH   1  17
ATOM     17  S   UNL     1      -0.227  -6.677   3.345  0.00  0.00    -0.056 S 
BRANCH  17  18
ATOM     18  C   UNL     1      -0.334  -7.412   4.943  0.00  0.00    +0.278 A 
ATOM     19  N   UNL     1      -0.344  -6.777   6.090  0.00  0.00    -0.101 NA
ATOM     20  N   UNL     1      -0.433  -7.627   7.051  0.00  0.00    -0.106 NA
ATOM     21  C   UNL     1      -0.483  -8.841   6.556  0.00  0.00    +0.251 A 
ATOM     22  O   UNL     1      -0.427  -8.730   5.210  0.00  0.00    -0.411 OA
BRANCH  21  23
ATOM     23  C   UNL     1      -0.587 -10.095   7.325  0.00  0.00    +0.063 A 
ATOM     24  C   UNL     1      -0.633 -11.356   6.821  0.00  0.00    +0.097 A 
ATOM     25  N   UNL     1      -0.729 -12.257   7.841  0.00  0.00    -0.360 N 
ATOM     26  H   UNL     1      -0.776 -13.219   7.729  0.00  0.00    +0.165 HD
ATOM     27  C   UNL     1      -0.749 -11.602   9.054  0.00  0.00    +0.047 A 
ATOM     28  C   UNL     1      -0.655 -10.225   8.791  0.00  0.00    +0.012 A 
ATOM     29  C   UNL     1      -0.646  -9.313   9.844  0.00  0.00    +0.011 A 
ATOM     30  C   UNL     1      -0.726  -9.768  11.142  0.00  0.00    +0.001 A 
ATOM     31  C   UNL     1      -0.815 -11.128  11.403  0.00  0.00    +0.002 A 
ATOM     32  C   UNL     1      -0.834 -12.041  10.372  0.00  0.00    +0.026 A 
ENDBRANCH  21  23
ENDBRANCH  17  18
ENDBRANCH   1  17
TORSDOF 8
