REMARK  Name = ZINC00996344
REMARK  3 active torsions:
REMARK  status: ('A' for Active; 'I' for Inactive)
REMARK    1  A    between atoms: C_1  and  C_2
REMARK    2  A    between atoms: C_3  and  N_9
REMARK    3  A    between atoms: C_4  and  C_8
REMARK                            x       y       z     vdW  Elec       q    Type
REMARK                         _______ _______ _______ _____ _____    ______ ____
ROOT
ATOM      1  N   UNL     1      -0.005  -0.363  -2.437  0.00  0.00    -0.199 N 
ATOM      2  C   UNL     1      -1.191  -0.174  -3.046  0.00  0.00    +0.258 C 
ATOM      3  O   UNL     1      -2.223  -0.381  -2.436  0.00  0.00    -0.269 OA
ATOM      4  C   UNL     1      -1.246   0.281  -4.443  0.00  0.00    +0.046 A 
ATOM      5  C   UNL     1      -2.445   0.487  -5.108  0.00  0.00    +0.014 A 
ATOM      6  C   UNL     1      -2.445   0.917  -6.430  0.00  0.00    +0.001 A 
ATOM      7  C   UNL     1      -1.282   1.147  -7.107  0.00  0.00    +0.008 A 
ATOM      8  C   UNL     1      -0.045   0.949  -6.469  0.00  0.00    -0.015 A 
ATOM      9  C   UNL     1      -0.032   0.514  -5.128  0.00  0.00    +0.006 A 
ATOM     10  C   UNL     1       1.196   0.305  -4.458  0.00  0.00    +0.047 A 
ATOM     11  C   UNL     1       2.382   0.538  -5.139  0.00  0.00    +0.029 A 
ATOM     12  C   UNL     1       2.356   0.970  -6.461  0.00  0.00    +0.019 A 
ATOM     13  C   UNL     1       1.179   1.172  -7.124  0.00  0.00    +0.023 A 
ATOM     14 BR   UNL     1       3.989   1.279  -7.363  0.00  0.00    -0.050 Br
ATOM     15  C   UNL     1       1.169  -0.146  -3.059  0.00  0.00    +0.258 C 
ATOM     16  O   UNL     1       2.213  -0.327  -2.462  0.00  0.00    -0.269 OA
ENDROOT
BRANCH   1  19
ATOM     17  C   UNL     1      -0.018   1.503   0.010  0.00  0.00    +0.067 C 
ATOM     18  C   UNL     1       0.002  -0.004   0.002  0.00  0.00    +0.055 A 
ATOM     19  C   UNL     1       0.008  -0.799  -1.098  0.00  0.00    +0.087 A 
ATOM     20  C   UNL     1       0.029  -2.133  -0.663  0.00  0.00    +0.082 A 
ATOM     21  N   UNL     1       0.035  -2.136   0.645  0.00  0.00    -0.177 NA
ATOM     22  N   UNL     1       0.024  -0.808   1.089  0.00  0.00    -0.280 N 
ATOM     23  H   UNL     1       0.029  -0.516   2.014  0.00  0.00    +0.189 HD
ATOM     24  C   UNL     1       0.041  -3.351  -1.550  0.00  0.00    +0.069 C 
ENDBRANCH   1  19
TORSDOF 1
