REMARK  Name = ZINC59293316
REMARK  6 active torsions:
REMARK  status: ('A' for Active; 'I' for Inactive)
REMARK    1  A    between atoms: C_4  and  N_7
REMARK    2  A    between atoms: C_8  and  C_10
REMARK    3  A    between atoms: C_16  and  C_17
REMARK    4  A    between atoms: C_25  and  N_38
REMARK    5  A    between atoms: C_26  and  C_36
REMARK    6  A    between atoms: C_27  and  C_29
REMARK                            x       y       z     vdW  Elec       q    Type
REMARK                         _______ _______ _______ _____ _____    ______ ____
ROOT
ATOM      1  C   UNL     1       4.654  -3.131  -0.299  0.00  0.00    +0.058 C 
ATOM      2  C   UNL     1       4.668  -4.481  -0.144  0.00  0.00    +0.099 A 
ATOM      3  N   UNL     1       5.816  -5.242  -0.059  0.00  0.00    -0.257 N 
ATOM      4  C   UNL     1       5.673  -6.574   0.095  0.00  0.00    +0.271 A 
ATOM      5  O   UNL     1       6.647  -7.299   0.177  0.00  0.00    -0.266 OA
ATOM      6  C   UNL     1       4.316  -7.128   0.162  0.00  0.00    +0.080 A 
ATOM      7  C   UNL     1       3.918  -8.417   0.312  0.00  0.00    +0.031 C 
ATOM      8  S   UNL     1       3.330  -5.650  -0.006  0.00  0.00    -0.065 S 
ATOM      9  C   UNL     1       7.061  -4.608  -0.135  0.00  0.00    +0.118 C 
ATOM     10  C   UNL     1       7.216  -3.275  -0.289  0.00  0.00    +0.079 C 
ATOM     11  C   UNL     1       5.980  -2.404  -0.391  0.00  0.00    +0.103 C 
ENDROOT
BRANCH   7  12
ATOM     12  C   UNL     1       2.505  -8.775   0.132  0.00  0.00    +0.011 A 
ATOM     13  C   UNL     1       1.646  -7.920  -0.568  0.00  0.00    +0.011 A 
ATOM     14  C   UNL     1       0.321  -8.263  -0.733  0.00  0.00    +0.001 A 
ATOM     15  C   UNL     1      -0.162  -9.450  -0.208  0.00  0.00    +0.003 A 
ATOM     16  C   UNL     1       0.678 -10.303   0.486  0.00  0.00    +0.039 A 
ATOM     17  C   UNL     1       2.010  -9.978   0.656  0.00  0.00    +0.131 A 
ATOM     18  F   UNL     1       2.831 -10.813   1.329  0.00  0.00    -0.205 F 
ENDBRANCH   7  12
BRANCH  11  19
ATOM     19  C   UNL     1       6.025  -1.669  -1.706  0.00  0.00    +0.001 A 
ATOM     20  C   UNL     1       5.919  -2.368  -2.893  0.00  0.00    +0.007 A 
ATOM     21  C   UNL     1       5.960  -1.694  -4.099  0.00  0.00    +0.000 A 
ATOM     22  C   UNL     1       6.108  -0.320  -4.119  0.00  0.00    +0.003 A 
ATOM     23  C   UNL     1       6.213   0.382  -2.934  0.00  0.00    +0.038 A 
ATOM     24  C   UNL     1       6.167  -0.292  -1.725  0.00  0.00    +0.127 A 
ATOM     25  F   UNL     1       6.266   0.394  -0.565  0.00  0.00    -0.205 F 
ENDBRANCH  11  19
BRANCH   1  27
ATOM     26  N   UNL     1       3.446  -1.090  -0.537  0.00  0.00    -0.282 N 
ATOM     27  C   UNL     1       3.441  -2.428  -0.378  0.00  0.00    +0.248 C 
ATOM     28  O   UNL     1       2.382  -3.029  -0.302  0.00  0.00    -0.270 OA
ATOM     29  H   UNL     1       4.285  -0.621  -0.670  0.00  0.00    +0.155 HD
BRANCH  26  33
ATOM     30  C   UNL     1      -0.137   1.032  -0.461  0.00  0.00    +0.000 A 
ATOM     31  C   UNL     1       1.008   1.592   0.076  0.00  0.00    +0.002 A 
ATOM     32  C   UNL     1       2.198   0.891   0.052  0.00  0.00    +0.023 A 
ATOM     33  C   UNL     1       2.243  -0.378  -0.511  0.00  0.00    +0.034 A 
ATOM     34  C   UNL     1       1.091  -0.937  -1.049  0.00  0.00    +0.023 A 
ATOM     35  C   UNL     1      -0.095  -0.231  -1.022  0.00  0.00    +0.002 A 
ENDBRANCH  26  33
ENDBRANCH   1  27
BRANCH   9  36
ATOM     36  N   UNL     1       8.191  -5.385  -0.048  0.00  0.00    -0.343 N 
ATOM     37  H   UNL     1       9.016  -5.090  -0.464  0.00  0.00    +0.144 HD
ATOM     38  H   UNL     1       8.163  -6.229   0.430  0.00  0.00    +0.144 HD
ENDBRANCH   9  36
BRANCH  10  39
ATOM     39  C   UNL     1       8.524  -2.696  -0.358  0.00  0.00    +0.099 C 
ATOM     40  N   UNL     1       9.561  -2.236  -0.413  0.00  0.00    -0.191 NA
ENDBRANCH  10  39
TORSDOF 6
