REMARK  Name = ZINC21108961
REMARK  6 active torsions:
REMARK  status: ('A' for Active; 'I' for Inactive)
REMARK    1  A    between atoms: C_1  and  C_2
REMARK    2  A    between atoms: N_11  and  S_12
REMARK    3  A    between atoms: S_12  and  C_15
REMARK    4  A    between atoms: C_21  and  C_26
REMARK    5  A    between atoms: C_21  and  C_27
REMARK    6  A    between atoms: N_24  and  C_25
REMARK                            x       y       z     vdW  Elec       q    Type
REMARK                         _______ _______ _______ _____ _____    ______ ____
ROOT
ATOM      1  S   UNL     1      -4.857  -1.869   1.315  0.00  0.00    +0.075 S 
ATOM      2  O   UNL     1      -6.162  -1.718   0.770  0.00  0.00    -0.150 OA
ATOM      3  O   UNL     1      -3.901  -2.764   0.764  0.00  0.00    -0.150 OA
ENDROOT
BRANCH   1   4
ATOM      4  C   UNL     1      -4.117  -0.270   1.299  0.00  0.00    +0.109 A 
ATOM      5  C   UNL     1      -4.912   0.862   1.297  0.00  0.00    +0.030 A 
ATOM      6  C   UNL     1      -4.338   2.124   1.283  0.00  0.00    +0.026 A 
ATOM      7  C   UNL     1      -2.950   2.257   1.275  0.00  0.00    +0.040 A 
ATOM      8  C   UNL     1      -2.165   1.108   1.278  0.00  0.00    -0.010 A 
ATOM      9  C   UNL     1      -2.739  -0.143   1.290  0.00  0.00    +0.035 A 
ATOM     10  C   UNL     1      -0.729   1.579   1.267  0.00  0.00    +0.068 C 
ATOM     11  C   UNL     1      -0.834   3.090   1.260  0.00  0.00    +0.230 C 
ATOM     12  O   UNL     1       0.089   3.876   1.250  0.00  0.00    -0.274 OA
ATOM     13  N   UNL     1      -2.143   3.394   1.265  0.00  0.00    -0.273 N 
ATOM     14  C   UNL     1      -2.662   4.764   1.261  0.00  0.00    +0.138 C 
ATOM     15  C   UNL     1      -0.013   1.086   0.008  0.00  0.00    +0.025 C 
ATOM     16  C   UNL     1       0.003   1.099   2.522  0.00  0.00    +0.025 C 
ENDBRANCH   1   4
BRANCH   1  26
ATOM     17  C   UNL     1      -3.792  -4.405   3.082  0.00  0.00    +0.030 C 
ATOM     18  C   UNL     1      -4.066  -3.032   3.700  0.00  0.00    +0.099 C 
ATOM     19  C   UNL     1      -4.706  -3.187   5.089  0.00  0.00    +0.061 C 
ATOM     20  C   UNL     1      -6.057  -2.519   4.961  0.00  0.00    -0.023 A 
ATOM     21  C   UNL     1      -7.075  -2.350   5.879  0.00  0.00    +0.005 A 
ATOM     22  C   UNL     1      -8.236  -1.693   5.516  0.00  0.00    +0.000 A 
ATOM     23  C   UNL     1      -8.376  -1.203   4.230  0.00  0.00    +0.002 A 
ATOM     24  C   UNL     1      -7.362  -1.368   3.310  0.00  0.00    +0.025 A 
ATOM     25  C   UNL     1      -6.187  -2.032   3.670  0.00  0.00    +0.055 A 
ATOM     26  N   UNL     1      -5.054  -2.303   2.901  0.00  0.00    -0.200 N 
ENDBRANCH   1  26
TORSDOF 2
