REMARK  Name = ZINC66931971
REMARK  7 active torsions:
REMARK  status: ('A' for Active; 'I' for Inactive)
REMARK    1  A    between atoms: C_1  and  C_2
REMARK    2  A    between atoms: C_2  and  C_3
REMARK    3  A    between atoms: C_2  and  C_4
REMARK    4  A    between atoms: C_4  and  C_6
REMARK    5  A    between atoms: C_4  and  N_24
REMARK    6  A    between atoms: N_8  and  C_9
REMARK    7  A    between atoms: C_12  and  C_15
REMARK                            x       y       z     vdW  Elec       q    Type
REMARK                         _______ _______ _______ _____ _____    ______ ____
ROOT
ATOM      1  C   UNL     1      -0.881  -2.038   0.157  0.00  0.00    +0.238 C 
ATOM      2  O   UNL     1      -0.903  -2.654   1.202  0.00  0.00    -0.273 OA
ATOM      3  N   UNL     1      -0.830  -2.701  -1.015  0.00  0.00    -0.284 N 
ATOM      4  H   UNL     1      -0.879  -2.212  -1.851  0.00  0.00    +0.155 HD
ENDROOT
BRANCH   3   5
ATOM      5  C   UNL     1      -0.706  -4.093  -1.026  0.00  0.00    +0.033 A 
ATOM      6  C   UNL     1      -1.335  -4.853  -0.048  0.00  0.00    +0.024 A 
ATOM      7  C   UNL     1      -1.215  -6.226  -0.056  0.00  0.00    +0.013 A 
ATOM      8  C   UNL     1      -0.459  -6.853  -1.048  0.00  0.00    +0.019 A 
ATOM      9  C   UNL     1       0.172  -6.087  -2.029  0.00  0.00    +0.013 A 
ATOM     10  C   UNL     1       0.043  -4.715  -2.019  0.00  0.00    +0.024 A 
BRANCH   8  11
ATOM     11  C   UNL     1      -0.327  -8.326  -1.059  0.00  0.00    +0.164 A 
ATOM     12  N   UNL     1       0.579  -9.029  -1.708  0.00  0.00    -0.129 NA
ATOM     13  N   UNL     1       0.395 -10.286  -1.490  0.00  0.00    -0.134 NA
ATOM     14  C   UNL     1      -0.624 -10.453  -0.701  0.00  0.00    +0.134 A 
ATOM     15  N   UNL     1      -1.114  -9.216  -0.398  0.00  0.00    -0.311 N 
ATOM     16  C   UNL     1      -2.263  -8.963   0.470  0.00  0.00    +0.125 C 
ATOM     17  C   UNL     1      -3.057 -10.265   0.626  0.00  0.00    +0.022 C 
ATOM     18  C   UNL     1      -2.109 -11.401   1.020  0.00  0.00    +0.009 C 
ATOM     19  C   UNL     1      -1.205 -11.741  -0.174  0.00  0.00    +0.076 C 
ENDBRANCH   8  11
ENDBRANCH   3   5
BRANCH   1  20
ATOM     20  C   UNL     1      -0.911  -0.531   0.170  0.00  0.00    +0.163 C 
BRANCH  20  21
ATOM     21  N   UNL     1      -0.966  -0.056   1.555  0.00  0.00    -0.288 N 
ATOM     22  C   UNL     1      -1.492   1.153   1.832  0.00  0.00    +0.298 C 
ATOM     23  O   UNL     1      -1.922   1.850   0.933  0.00  0.00    -0.253 OA
ATOM     24  N   UNL     1      -1.542   1.590   3.106  0.00  0.00    -0.313 N 
ATOM     25  H   UNL     1      -0.623  -0.612   2.272  0.00  0.00    +0.151 HD
ATOM     26  H   UNL     1      -1.199   1.035   3.823  0.00  0.00    +0.146 HD
ATOM     27  H   UNL     1      -1.921   2.461   3.306  0.00  0.00    +0.146 HD
ENDBRANCH  20  21
BRANCH  20  29
ATOM     28  C   UNL     1       0.320   1.539  -0.492  0.00  0.00    +0.009 C 
ATOM     29  C   UNL     1       0.350   0.010  -0.505  0.00  0.00    +0.012 C 
ATOM     30  C   UNL     1       1.586  -0.482   0.252  0.00  0.00    +0.009 C 
ENDBRANCH  20  29
ENDBRANCH   1  20
TORSDOF 5
