REMARK  Name = ZINC41596719
REMARK  6 active torsions:
REMARK  status: ('A' for Active; 'I' for Inactive)
REMARK    1  A    between atoms: C_1  and  O_2
REMARK    2  A    between atoms: O_2  and  C_3
REMARK    3  A    between atoms: C_6  and  C_9
REMARK    4  A    between atoms: N_17  and  C_18
REMARK    5  A    between atoms: C_21  and  S_24
REMARK    6  A    between atoms: S_24  and  N_27
REMARK                            x       y       z     vdW  Elec       q    Type
REMARK                         _______ _______ _______ _____ _____    ______ ____
ROOT
ATOM      1  C   UNL     1       2.691  -2.546   4.231  0.00  0.00    +0.080 A 
ATOM      2  C   UNL     1       2.567  -3.920   4.385  0.00  0.00    +0.098 A 
ATOM      3  C   UNL     1       3.050  -4.511   5.561  0.00  0.00    +0.253 A 
ATOM      4  O   UNL     1       2.960  -5.716   5.733  0.00  0.00    -0.268 OA
ATOM      5  N   UNL     1       3.616  -3.725   6.500  0.00  0.00    -0.295 N 
ATOM      6  H   UNL     1       3.955  -4.118   7.320  0.00  0.00    +0.172 HD
ATOM      7  C   UNL     1       3.713  -2.382   6.300  0.00  0.00    +0.200 A 
ATOM      8  N   UNL     1       3.268  -1.819   5.197  0.00  0.00    -0.216 NA
ATOM      9  N   UNL     1       4.292  -1.600   7.266  0.00  0.00    -0.285 N 
ATOM     10  H   UNL     1       4.697  -2.012   8.045  0.00  0.00    +0.155 HD
ENDROOT
BRANCH   1  14
ATOM     11  C   UNL     1       1.261  -0.657   0.702  0.00  0.00    +0.120 A 
ATOM     12  C   UNL     1       1.858   0.102   1.701  0.00  0.00    +0.046 A 
ATOM     13  C   UNL     1       2.323  -0.507   2.846  0.00  0.00    +0.013 A 
ATOM     14  C   UNL     1       2.193  -1.888   3.002  0.00  0.00    +0.001 A 
ATOM     15  C   UNL     1       1.592  -2.647   1.996  0.00  0.00    +0.013 A 
ATOM     16  C   UNL     1       1.125  -2.031   0.856  0.00  0.00    +0.046 A 
BRANCH  11  18
ATOM     17  C   UNL     1       0.977   1.362  -0.519  0.00  0.00    +0.277 C 
ATOM     18  O   UNL     1       0.805  -0.053  -0.426  0.00  0.00    -0.495 OA
ENDBRANCH  11  18
ENDBRANCH   1  14
BRANCH   9  19
ATOM     19  C   UNL     1       4.297  -0.208   7.129  0.00  0.00    +0.034 A 
ATOM     20  C   UNL     1       3.230   0.435   6.514  0.00  0.00    +0.025 A 
ATOM     21  C   UNL     1       3.239   1.809   6.381  0.00  0.00    +0.030 A 
ATOM     22  C   UNL     1       4.308   2.546   6.858  0.00  0.00    +0.105 A 
ATOM     23  C   UNL     1       5.372   1.909   7.470  0.00  0.00    +0.030 A 
ATOM     24  C   UNL     1       5.367   0.535   7.612  0.00  0.00    +0.025 A 
BRANCH  22  25
ATOM     25  S   UNL     1       4.314   4.299   6.685  0.00  0.00    +0.056 S 
ATOM     26  O   UNL     1       5.675   4.706   6.724  0.00  0.00    -0.153 OA
ATOM     27  O   UNL     1       3.459   4.603   5.592  0.00  0.00    -0.153 OA
BRANCH  25  28
ATOM     28  N   UNL     1       3.594   4.927   8.038  0.00  0.00    -0.204 NA
ATOM     29  H   UNL     1       3.857   5.801   8.366  0.00  0.00    +0.144 HD
ATOM     30  H   UNL     1       2.908   4.421   8.501  0.00  0.00    +0.144 HD
ENDBRANCH  25  28
ENDBRANCH  22  25
ENDBRANCH   9  19
TORSDOF 5
