REMARK  Name = ZINC02254546
REMARK  7 active torsions:
REMARK  status: ('A' for Active; 'I' for Inactive)
REMARK    1  A    between atoms: C_1  and  C_2
REMARK    2  A    between atoms: C_2  and  C_3
REMARK    3  A    between atoms: C_2  and  C_4
REMARK    4  A    between atoms: C_4  and  C_5
REMARK    5  A    between atoms: C_5  and  S_6
REMARK    6  A    between atoms: S_6  and  C_7
REMARK    7  A    between atoms: N_19  and  C_20
REMARK                            x       y       z     vdW  Elec       q    Type
REMARK                         _______ _______ _______ _____ _____    ______ ____
ROOT
ATOM      1  C   UNL     1      -0.396   1.532  -5.274  0.00  0.00    +0.177 A 
ATOM      2  N   UNL     1      -1.530   1.804  -4.662  0.00  0.00    -0.216 NA
ATOM      3  C   UNL     1      -1.536   2.258  -3.413  0.00  0.00    +0.117 A 
ATOM      4  C   UNL     1      -0.353   2.471  -2.691  0.00  0.00    +0.076 A 
ATOM      5  C   UNL     1      -0.517   2.978  -1.319  0.00  0.00    -0.023 A 
ATOM      6  C   UNL     1      -1.773   3.186  -0.894  0.00  0.00    -0.004 A 
ATOM      7  S   UNL     1      -2.805   2.729  -2.268  0.00  0.00    -0.073 S 
ATOM      8  C   UNL     1      -1.818   3.707   0.518  0.00  0.00    +0.043 C 
ATOM      9  C   UNL     1      -0.382   4.214   0.790  0.00  0.00    +0.010 C 
ATOM     10  C   UNL     1       0.442   3.349  -0.184  0.00  0.00    +0.037 C 
ATOM     11  C   UNL     1       0.865   2.171  -3.378  0.00  0.00    +0.268 A 
ATOM     12  O   UNL     1       1.941   2.327  -2.828  0.00  0.00    -0.267 OA
ATOM     13  N   UNL     1       0.804   1.713  -4.643  0.00  0.00    -0.255 N 
ENDROOT
BRANCH  13  14
ATOM     14  C   UNL     1       1.991   1.416  -5.325  0.00  0.00    +0.052 A 
ATOM     15  C   UNL     1       2.536   0.141  -5.251  0.00  0.00    +0.026 A 
ATOM     16  C   UNL     1       3.704  -0.149  -5.929  0.00  0.00    +0.002 A 
ATOM     17  C   UNL     1       4.336   0.831  -6.672  0.00  0.00    +0.000 A 
ATOM     18  C   UNL     1       3.798   2.103  -6.744  0.00  0.00    +0.002 A 
ATOM     19  C   UNL     1       2.628   2.398  -6.072  0.00  0.00    +0.026 A 
ENDBRANCH  13  14
BRANCH   1  20
ATOM     20  S   UNL     1      -0.424   0.930  -6.929  0.00  0.00    -0.087 S 
BRANCH  20  21
ATOM     21  C   UNL     1      -2.210   0.897  -7.221  0.00  0.00    +0.077 C 
BRANCH  21  22
ATOM     22  C   UNL     1      -2.486   0.392  -8.639  0.00  0.00    +0.014 C 
BRANCH  22  24
ATOM     23  C   UNL     1      -4.544   1.792  -8.851  0.00  0.00    +0.007 C 
ATOM     24  C   UNL     1      -3.996   0.364  -8.886  0.00  0.00    -0.016 C 
ATOM     25  C   UNL     1      -4.278  -0.257 -10.255  0.00  0.00    +0.007 C 
ENDBRANCH  22  24
ENDBRANCH  21  22
ENDBRANCH  20  21
ENDBRANCH   1  20
TORSDOF 5
