REMARK  Name = ZINC35500596
REMARK  4 active torsions:
REMARK  status: ('A' for Active; 'I' for Inactive)
REMARK    1  A    between atoms: C_1  and  N_2
REMARK    2  A    between atoms: N_2  and  C_3
REMARK    3  A    between atoms: C_3  and  C_5
REMARK    4  A    between atoms: C_3  and  C_15
REMARK                            x       y       z     vdW  Elec       q    Type
REMARK                         _______ _______ _______ _____ _____    ______ ____
ROOT
ATOM      1  C   UNL     1       0.690  -0.478  -1.207  0.00  0.00    -0.003 C 
ENDROOT
BRANCH   1   2
ATOM      2  C   UNL     1       2.137  -0.060  -1.158  0.00  0.00    -0.053 A 
ATOM      3  C   UNL     1       2.834  -0.128   0.036  0.00  0.00    +0.004 A 
ATOM      4  C   UNL     1       4.160   0.253   0.089  0.00  0.00    +0.030 A 
ATOM      5  C   UNL     1       4.794   0.705  -1.058  0.00  0.00    +0.087 A 
ATOM      6  C   UNL     1       4.092   0.774  -2.262  0.00  0.00    +0.157 A 
ATOM      7  C   UNL     1       2.763   0.385  -2.306  0.00  0.00    +0.051 A 
ATOM      8  O   UNL     1       4.949   1.245  -3.201  0.00  0.00    -0.408 OA
ATOM      9  C   UNL     1       6.145   1.469  -2.633  0.00  0.00    +0.419 A 
ATOM     10  O   UNL     1       7.128   1.894  -3.210  0.00  0.00    -0.223 OA
ATOM     11  N   UNL     1       6.088   1.151  -1.325  0.00  0.00    -0.288 N 
ATOM     12  H   UNL     1       6.814   1.219  -0.686  0.00  0.00    +0.172 HD
ENDBRANCH   1   2
BRANCH   1  13
ATOM     13  C   UNL     1       0.603  -1.981  -1.277  0.00  0.00    -0.019 A 
ATOM     14  C   UNL     1       0.398  -2.774  -2.357  0.00  0.00    +0.011 A 
ATOM     15  C   UNL     1       0.356  -4.145  -2.184  0.00  0.00    +0.023 A 
ATOM     16  C   UNL     1       0.520  -4.655  -0.938  0.00  0.00    +0.055 A 
ATOM     17  S   UNL     1       0.752  -3.178   0.038  0.00  0.00    -0.088 S 
ATOM     18 BR   UNL     1       0.513  -6.462  -0.381  0.00  0.00    -0.043 Br
ENDBRANCH   1  13
BRANCH   1  20
ATOM     19  C   UNL     1      -0.018   1.465   0.010  0.00  0.00    -0.099 C 
ATOM     20  N   UNL     1       0.002  -0.004   0.002  0.00  0.00    +0.385 N 
ATOM     21  H   UNL     1       0.490  -0.338   0.820  0.00  0.00    -0.085 HD
ATOM     22  H   UNL     1      -0.945  -0.353   0.009  0.00  0.00    -0.085 HD
ENDBRANCH   1  20
TORSDOF 3
