REMARK  Name = ZINC05180295
REMARK  6 active torsions:
REMARK  status: ('A' for Active; 'I' for Inactive)
REMARK    1  A    between atoms: C_1  and  C_2
REMARK    2  A    between atoms: C_5  and  C_26
REMARK    3  A    between atoms: C_6  and  S_8
REMARK    4  A    between atoms: S_8  and  N_11
REMARK    5  A    between atoms: N_22  and  C_23
REMARK    6  A    between atoms: C_23  and  C_24
REMARK                            x       y       z     vdW  Elec       q    Type
REMARK                         _______ _______ _______ _____ _____    ______ ____
ROOT
ATOM      1  N   UNL     1      -1.287  -2.314  -1.511  0.00  0.00    -0.197 N 
ATOM      2  C   UNL     1      -0.461  -3.428  -1.469  0.00  0.00    +0.179 A 
ATOM      3  C   UNL     1      -0.557  -4.414  -2.480  0.00  0.00    +0.161 A 
ATOM      4  N   UNL     1       0.225  -5.473  -2.455  0.00  0.00    -0.227 NA
ATOM      5  C   UNL     1       1.110  -5.624  -1.458  0.00  0.00    +0.091 A 
ATOM      6  C   UNL     1       1.950  -6.748  -1.405  0.00  0.00    +0.030 A 
ATOM      7  C   UNL     1       2.840  -6.879  -0.382  0.00  0.00    +0.002 A 
ATOM      8  C   UNL     1       2.931  -5.912   0.615  0.00  0.00    +0.002 A 
ATOM      9  C   UNL     1       2.131  -4.810   0.595  0.00  0.00    +0.030 A 
ATOM     10  C   UNL     1       1.202  -4.641  -0.444  0.00  0.00    +0.091 A 
ATOM     11  N   UNL     1       0.403  -3.564  -0.485  0.00  0.00    -0.226 NA
ATOM     12  N   UNL     1      -1.476  -4.261  -3.508  0.00  0.00    -0.323 N 
ATOM     13  H   UNL     1      -1.859  -2.164  -2.280  0.00  0.00    +0.175 HD
ATOM     14  H   UNL     1      -2.050  -3.479  -3.532  0.00  0.00    +0.148 HD
ENDROOT
BRANCH   1  15
ATOM     15  S   UNL     1      -1.295  -1.241  -0.250  0.00  0.00    +0.074 S 
ATOM     16  O   UNL     1      -2.261  -0.248  -0.568  0.00  0.00    -0.150 OA
ATOM     17  O   UNL     1       0.063  -0.924   0.022  0.00  0.00    -0.150 OA
BRANCH  15  23
ATOM     18  C   UNL     1      -0.677  -3.163   4.571  0.00  0.00    +0.044 C 
ATOM     19  C   UNL     1      -1.566  -2.961   3.371  0.00  0.00    -0.049 A 
ATOM     20  C   UNL     1      -2.858  -3.452   3.378  0.00  0.00    +0.004 A 
ATOM     21  C   UNL     1      -3.674  -3.266   2.277  0.00  0.00    +0.005 A 
ATOM     22  C   UNL     1      -3.196  -2.591   1.169  0.00  0.00    -0.024 A 
ATOM     23  C   UNL     1      -1.904  -2.102   1.162  0.00  0.00    +0.112 A 
ATOM     24  C   UNL     1      -1.088  -2.287   2.263  0.00  0.00    +0.032 A 
ATOM     25  C   UNL     1      -4.085  -2.388  -0.030  0.00  0.00    +0.046 C 
ENDBRANCH  15  23
ENDBRANCH   1  15
BRANCH  12  26
ATOM     26  C   UNL     1      -1.578  -5.278  -4.557  0.00  0.00    +0.130 C 
BRANCH  26  27
ATOM     27  C   UNL     1      -2.643  -4.876  -5.544  0.00  0.00    -0.016 C 
ATOM     28  C   UNL     1      -2.355  -4.788  -6.819  0.00  0.00    +0.005 C 
ENDBRANCH  26  27
ENDBRANCH  12  26
TORSDOF 4
