REMARK  Name = ZINC58775645
REMARK  12 active torsions:
REMARK  status: ('A' for Active; 'I' for Inactive)
REMARK    1  A    between atoms: C_1  and  C_2
REMARK    2  A    between atoms: C_5  and  C_8
REMARK    3  A    between atoms: N_14  and  C_15
REMARK    4  A    between atoms: C_15  and  C_16
REMARK    5  A    between atoms: C_16  and  C_17
REMARK    6  A    between atoms: N_19  and  C_20
REMARK    7  A    between atoms: C_20  and  C_21
REMARK    8  A    between atoms: C_21  and  C_23
REMARK    9  A    between atoms: C_21  and  N_26
REMARK   10  A    between atoms: C_23  and  C_24
REMARK   11  A    between atoms: C_23  and  C_25
REMARK   12  A    between atoms: C_29  and  C_32
REMARK                            x       y       z     vdW  Elec       q    Type
REMARK                         _______ _______ _______ _____ _____    ______ ____
ROOT
ATOM      1  C   UNL     1      -0.672  -4.012   4.816  0.00  0.00    +0.215 C 
ATOM      2  O   UNL     1       0.340  -4.004   5.484  0.00  0.00    -0.276 OA
ATOM      3  N   UNL     1      -1.852  -3.680   5.376  0.00  0.00    -0.317 N 
ATOM      4  H   UNL     1      -2.662  -3.687   4.841  0.00  0.00    +0.149 HD
ENDROOT
BRANCH   1   5
ATOM      5  C   UNL     1      -0.611  -4.394   3.359  0.00  0.00    +0.117 C 
BRANCH   5   6
ATOM      6  C   UNL     1       0.835  -4.723   2.979  0.00  0.00    +0.135 C 
BRANCH   6  13
ATOM      7  C   UNL     1       1.235  -4.043   0.571  0.00  0.00    +0.163 A 
ATOM      8  N   UNL     1       1.214  -4.629  -0.593  0.00  0.00    -0.153 NA
ATOM      9  N   UNL     1       0.868  -5.973  -0.396  0.00  0.00    -0.254 N 
ATOM     10  H   UNL     1       0.777  -6.649  -1.085  0.00  0.00    +0.191 HD
ATOM     11  C   UNL     1       0.687  -6.155   0.928  0.00  0.00    +0.176 A 
ATOM     12  S   UNL     1       0.253  -7.622   1.697  0.00  0.00    -0.011 S 
ATOM     13  N   UNL     1       0.915  -4.975   1.538  0.00  0.00    -0.303 N 
BRANCH   7  18
ATOM     14  C   UNL     1       2.478   1.496   1.520  0.00  0.00    +0.044 C 
ATOM     15  C   UNL     1       2.152   0.046   1.272  0.00  0.00    -0.050 A 
ATOM     16  C   UNL     1       2.548  -0.556   0.090  0.00  0.00    +0.004 A 
ATOM     17  C   UNL     1       2.253  -1.883  -0.143  0.00  0.00    +0.012 A 
ATOM     18  C   UNL     1       1.555  -2.619   0.815  0.00  0.00    +0.019 A 
ATOM     19  C   UNL     1       1.159  -2.006   2.004  0.00  0.00    +0.012 A 
ATOM     20  C   UNL     1       1.464  -0.679   2.228  0.00  0.00    +0.004 A 
ENDBRANCH   7  18
ENDBRANCH   6  13
ENDBRANCH   5   6
ENDBRANCH   1   5
BRANCH   3  21
ATOM     21  C   UNL     1      -1.912  -3.309   6.792  0.00  0.00    +0.089 C 
BRANCH  21  22
ATOM     22  C   UNL     1      -3.374  -3.156   7.217  0.00  0.00    -0.049 C 
BRANCH  22  23
ATOM     23  N   UNL     1      -4.008  -4.480   7.274  0.00  0.00    +0.383 N 
ATOM     24  C   UNL     1      -3.264  -5.338   8.204  0.00  0.00    -0.078 C 
ATOM     25  C   UNL     1      -3.966  -6.691   8.329  0.00  0.00    -0.016 C 
ATOM     26  C   UNL     1      -4.025  -7.359   6.952  0.00  0.00    -0.018 C 
ATOM     27  C   UNL     1      -4.738  -6.423   5.972  0.00  0.00    -0.016 C 
ATOM     28  C   UNL     1      -4.007  -5.079   5.934  0.00  0.00    -0.078 C 
ATOM     29  C   UNL     1      -4.796  -8.676   7.054  0.00  0.00    +0.007 C 
ATOM     30  H   UNL     1      -4.959  -4.383   7.597  0.00  0.00    -0.081 HD
ENDBRANCH  22  23
BRANCH  22  31
ATOM     31  C   UNL     1      -3.437  -2.501   8.598  0.00  0.00    -0.029 C 
ATOM     32  C   UNL     1      -2.892  -1.074   8.511  0.00  0.00    +0.005 C 
ATOM     33  C   UNL     1      -4.889  -2.463   9.079  0.00  0.00    +0.005 C 
ENDBRANCH  22  31
ENDBRANCH  21  22
ENDBRANCH   3  21
TORSDOF 8
