REMARK  Name = ZINC45111842
REMARK  7 active torsions:
REMARK  status: ('A' for Active; 'I' for Inactive)
REMARK    1  A    between atoms: C_1  and  C_2
REMARK    2  A    between atoms: C_2  and  C_3
REMARK    3  A    between atoms: C_16  and  C_18
REMARK    4  A    between atoms: C_18  and  C_19
REMARK    5  A    between atoms: C_22  and  C_24
REMARK    6  A    between atoms: C_24  and  O_26
REMARK    7  A    between atoms: O_26  and  C_27
REMARK                            x       y       z     vdW  Elec       q    Type
REMARK                         _______ _______ _______ _____ _____    ______ ____
ROOT
ATOM      1  C   UNL     1       0.718  -0.497  -1.257  0.00  0.00    -0.006 C 
ATOM      2  C   UNL     1       0.639  -2.025  -1.327  0.00  0.00    +0.008 C 
ATOM      3  C   UNL     1       1.128  -2.508  -2.693  0.00  0.00    +0.037 C 
ATOM      4  C   UNL     1       2.507  -1.911  -2.964  0.00  0.00    -0.023 A 
ATOM      5  C   UNL     1       2.936  -0.829  -2.272  0.00  0.00    -0.004 A 
ATOM      6  S   UNL     1       4.559  -0.488  -2.903  0.00  0.00    -0.073 S 
ATOM      7  C   UNL     1       4.660  -1.792  -4.088  0.00  0.00    +0.116 A 
ATOM      8  C   UNL     1       3.419  -2.454  -3.954  0.00  0.00    +0.075 A 
ATOM      9  C   UNL     1       3.191  -3.588  -4.804  0.00  0.00    +0.260 A 
ATOM     10  O   UNL     1       2.154  -4.228  -4.766  0.00  0.00    -0.267 OA
ATOM     11  N   UNL     1       4.201  -3.901  -5.649  0.00  0.00    -0.310 N 
ATOM     12  H   UNL     1       4.089  -4.661  -6.242  0.00  0.00    +0.170 HD
ATOM     13  C   UNL     1       5.360  -3.203  -5.707  0.00  0.00    +0.118 A 
ATOM     14  N   UNL     1       5.607  -2.160  -4.945  0.00  0.00    -0.226 NA
ATOM     15  C   UNL     1       2.195  -0.080  -1.206  0.00  0.00    +0.046 C 
ENDROOT
BRANCH   1  17
ATOM     16  C   UNL     1      -0.019   1.526   0.010  0.00  0.00    +0.004 C 
ATOM     17  C   UNL     1       0.002  -0.004   0.002  0.00  0.00    +0.000 C 
ENDBRANCH   1  17
BRANCH  13  18
ATOM     18  C   UNL     1       6.417  -3.643  -6.688  0.00  0.00    +0.148 C 
BRANCH  18  19
ATOM     19  C   UNL     1       7.612  -2.731  -6.581  0.00  0.00    +0.113 A 
ATOM     20  C   UNL     1       8.674  -2.918  -5.766  0.00  0.00    +0.046 A 
ATOM     21  C   UNL     1       9.552  -1.845  -5.979  0.00  0.00    +0.057 A 
ATOM     22  C   UNL     1       8.975  -1.047  -6.926  0.00  0.00    +0.212 A 
ATOM     23  O   UNL     1       7.800  -1.606  -7.283  0.00  0.00    -0.453 OA
BRANCH  22  24
ATOM     24  C   UNL     1       9.535   0.195  -7.464  0.00  0.00    +0.375 C 
ATOM     25  O   UNL     1      10.611   0.599  -7.065  0.00  0.00    -0.241 OA
BRANCH  24  26
ATOM     26  O   UNL     1       8.858   0.891  -8.400  0.00  0.00    -0.462 OA
ATOM     27  C   UNL     1       9.465   2.092  -8.880  0.00  0.00    +0.280 C 
ENDBRANCH  24  26
ENDBRANCH  22  24
ENDBRANCH  18  19
ENDBRANCH  13  18
TORSDOF 5
