REMARK  Name = ZINC35808699
REMARK  14 active torsions:
REMARK  status: ('A' for Active; 'I' for Inactive)
REMARK    1  A    between atoms: C_1  and  C_2
REMARK    2  A    between atoms: C_2  and  C_3
REMARK    3  A    between atoms: C_3  and  C_4
REMARK    4  A    between atoms: C_4  and  C_5
REMARK    5  A    between atoms: C_5  and  C_6
REMARK    6  A    between atoms: C_6  and  C_7
REMARK    7  A    between atoms: N_9  and  C_10
REMARK    8  A    between atoms: N_9  and  C_15
REMARK    9  A    between atoms: C_10  and  C_11
REMARK   10  A    between atoms: C_11  and  C_12
REMARK   11  A    between atoms: C_12  and  C_13
REMARK   12  A    between atoms: C_12  and  C_14
REMARK   13  A    between atoms: C_15  and  C_16
REMARK   14  A    between atoms: C_26  and  C_28
REMARK                            x       y       z     vdW  Elec       q    Type
REMARK                         _______ _______ _______ _____ _____    ______ ____
ROOT
ATOM      1  C   UNL     1      -6.540  -6.774  -1.155  0.00  0.00    +0.234 C 
ATOM      2  O   UNL     1      -5.724  -6.379  -1.961  0.00  0.00    -0.274 OA
ATOM      3  N   UNL     1      -7.734  -7.237  -1.576  0.00  0.00    -0.289 N 
ATOM      4  C   UNL     1      -8.733  -7.712  -0.607  0.00  0.00    +0.114 C 
ATOM      5  C   UNL     1      -8.950  -9.215  -0.835  0.00  0.00    +0.062 C 
ATOM      6  C   UNL     1      -9.034  -9.469  -2.305  0.00  0.00    -0.003 A 
ATOM      7  C   UNL     1      -8.646  -8.649  -3.319  0.00  0.00    -0.012 A 
ATOM      8  C   UNL     1      -8.825  -9.128  -4.615  0.00  0.00    +0.013 A 
ATOM      9  C   UNL     1      -9.366 -10.352  -4.816  0.00  0.00    +0.046 A 
ATOM     10  S   UNL     1      -9.656 -10.904  -3.142  0.00  0.00    -0.101 S 
ATOM     11  C   UNL     1      -8.057  -7.269  -3.008  0.00  0.00    +0.139 C 
ENDROOT
BRANCH  11  12
ATOM     12  C   UNL     1      -9.065  -6.196  -3.329  0.00  0.00    -0.004 A 
ATOM     13  C   UNL     1     -10.399  -6.523  -3.482  0.00  0.00    +0.008 A 
ATOM     14  C   UNL     1     -11.324  -5.539  -3.776  0.00  0.00    +0.020 A 
ATOM     15  C   UNL     1     -10.914  -4.225  -3.916  0.00  0.00    +0.042 A 
ATOM     16  C   UNL     1      -9.580  -3.896  -3.763  0.00  0.00    +0.040 A 
ATOM     17  C   UNL     1      -8.655  -4.881  -3.464  0.00  0.00    +0.048 A 
ATOM     18 CL   UNL     1      -6.981  -4.469  -3.265  0.00  0.00    -0.083 Cl
ATOM     19 CL   UNL     1     -12.076  -2.989  -4.286  0.00  0.00    -0.083 Cl
ENDBRANCH  11  12
BRANCH   1  20
ATOM     20  C   UNL     1      -6.220  -6.745   0.317  0.00  0.00    +0.203 C 
BRANCH  20  23
ATOM     21  C   UNL     1      -4.698  -4.876   0.680  0.00  0.00    +0.216 C 
ATOM     22  O   UNL     1      -5.656  -4.132   0.667  0.00  0.00    -0.276 OA
ATOM     23  N   UNL     1      -4.873  -6.202   0.513  0.00  0.00    -0.293 N 
BRANCH  21  24
ATOM     24  C   UNL     1      -3.313  -4.318   0.881  0.00  0.00    +0.096 C 
BRANCH  24  25
ATOM     25  C   UNL     1      -3.394  -2.799   1.044  0.00  0.00    +0.009 C 
BRANCH  25  26
ATOM     26  C   UNL     1      -1.988  -2.232   1.248  0.00  0.00    +0.000 C 
BRANCH  26  27
ATOM     27  C   UNL     1      -2.069  -0.713   1.410  0.00  0.00    -0.000 C 
BRANCH  27  29
ATOM     28  C   UNL     1      -0.743   1.373   1.777  0.00  0.00    +0.004 C 
ATOM     29  C   UNL     1      -0.662  -0.146   1.615  0.00  0.00    -0.003 C 
ENDBRANCH  27  29
ENDBRANCH  26  27
ENDBRANCH  25  26
ENDBRANCH  24  25
ENDBRANCH  21  24
BRANCH  23  30
ATOM     30  C   UNL     1      -3.716  -7.101   0.529  0.00  0.00    +0.108 C 
BRANCH  30  31
ATOM     31  C   UNL     1      -3.457  -7.574   1.961  0.00  0.00    +0.022 C 
BRANCH  31  32
ATOM     32  C   UNL     1      -2.249  -8.512   1.977  0.00  0.00    -0.016 C 
ATOM     33  C   UNL     1      -1.913  -8.886   3.422  0.00  0.00    +0.007 C 
ATOM     34  C   UNL     1      -2.577  -9.780   1.185  0.00  0.00    +0.007 C 
ENDBRANCH  31  32
ENDBRANCH  30  31
ENDBRANCH  23  30
ENDBRANCH  20  23
ENDBRANCH   1  20
TORSDOF 11
