REMARK  Name = ZINC16646275
REMARK  16 active torsions:
REMARK  status: ('A' for Active; 'I' for Inactive)
REMARK    1  A    between atoms: C_1  and  C_2
REMARK    2  A    between atoms: C_2  and  C_3
REMARK    3  A    between atoms: C_3  and  C_4
REMARK    4  A    between atoms: C_4  and  N_5
REMARK    5  A    between atoms: N_5  and  C_6
REMARK    6  A    between atoms: C_6  and  C_7
REMARK    7  A    between atoms: N_9  and  C_10
REMARK    8  A    between atoms: N_9  and  C_22
REMARK    9  A    between atoms: C_10  and  C_11
REMARK   10  A    between atoms: C_11  and  C_12
REMARK   11  A    between atoms: C_22  and  C_23
REMARK   12  A    between atoms: C_26  and  O_29
REMARK   13  A    between atoms: O_29  and  C_30
REMARK   14  A    between atoms: C_31  and  C_33
REMARK   15  A    between atoms: C_37  and  O_39
REMARK   16  A    between atoms: O_39  and  C_40
REMARK                            x       y       z     vdW  Elec       q    Type
REMARK                         _______ _______ _______ _____ _____    ______ ____
ROOT
ATOM      1  C   UNL     1      -3.961  -1.500  -1.479  0.00  0.00    +0.233 C 
ATOM      2  O   UNL     1      -4.786  -2.348  -1.745  0.00  0.00    -0.274 OA
ATOM      3  N   UNL     1      -2.648  -1.804  -1.511  0.00  0.00    -0.296 N 
ENDROOT
BRANCH   1   4
ATOM      4  C   UNL     1      -4.403  -0.107  -1.112  0.00  0.00    +0.203 C 
BRANCH   4   5
ATOM      5  N   UNL     1      -5.865  -0.033  -1.150  0.00  0.00    -0.289 N 
ATOM      6  C   UNL     1      -6.494   0.311  -2.292  0.00  0.00    +0.247 C 
ATOM      7  O   UNL     1      -5.851   0.497  -3.307  0.00  0.00    -0.270 OA
BRANCH   6   8
ATOM      8  C   UNL     1      -7.965   0.461  -2.310  0.00  0.00    +0.040 A 
ATOM      9  C   UNL     1      -8.656   0.729  -1.127  0.00  0.00    +0.013 A 
ATOM     10  C   UNL     1     -10.028   0.873  -1.148  0.00  0.00    +0.004 A 
ATOM     11  C   UNL     1     -10.723   0.742  -2.337  0.00  0.00    +0.045 A 
ATOM     12  C   UNL     1     -10.044   0.470  -3.517  0.00  0.00    +0.121 A 
ATOM     13  C   UNL     1      -8.667   0.329  -3.508  0.00  0.00    +0.058 A 
BRANCH  12  14
ATOM     14  O   UNL     1     -10.733   0.342  -4.682  0.00  0.00    -0.495 OA
ATOM     15  C   UNL     1     -12.152   0.500  -4.618  0.00  0.00    +0.277 C 
ENDBRANCH  12  14
ENDBRANCH   6   8
BRANCH   5  16
ATOM     16  C   UNL     1      -6.645  -0.333   0.053  0.00  0.00    +0.108 C 
BRANCH  16  17
ATOM     17  C   UNL     1      -6.536   0.835   1.036  0.00  0.00    +0.019 C 
BRANCH  17  19
ATOM     18  C   UNL     1      -7.241   1.690   3.275  0.00  0.00    +0.004 C 
ATOM     19  C   UNL     1      -7.350   0.522   2.293  0.00  0.00    -0.002 C 
ENDBRANCH  17  19
ENDBRANCH  16  17
ENDBRANCH   5  16
ENDBRANCH   4   5
ENDBRANCH   1   4
BRANCH   3  20
ATOM     20  C   UNL     1      -1.651  -0.780  -1.189  0.00  0.00    +0.113 C 
BRANCH  20  21
ATOM     21  C   UNL     1      -1.359  -0.806   0.313  0.00  0.00    +0.056 C 
BRANCH  21  22
ATOM     22  C   UNL     1      -0.333   0.247   0.643  0.00  0.00    -0.021 A 
ATOM     23  C   UNL     1       0.993   0.067   0.745  0.00  0.00    +0.087 A 
ATOM     24  N   UNL     1       1.602   1.251   1.060  0.00  0.00    -0.360 N 
ATOM     25  H   UNL     1       2.557   1.370   1.186  0.00  0.00    +0.165 HD
ATOM     26  C   UNL     1       0.659   2.247   1.173  0.00  0.00    +0.047 A 
ATOM     27  C   UNL     1      -0.595   1.663   0.917  0.00  0.00    +0.003 A 
ATOM     28  C   UNL     1      -1.751   2.444   0.966  0.00  0.00    +0.010 A 
ATOM     29  C   UNL     1      -1.657   3.776   1.254  0.00  0.00    +0.001 A 
ATOM     30  C   UNL     1      -0.423   4.358   1.508  0.00  0.00    +0.002 A 
ATOM     31  C   UNL     1       0.730   3.604   1.469  0.00  0.00    +0.026 A 
ENDBRANCH  21  22
ENDBRANCH  20  21
ENDBRANCH   3  20
BRANCH   3  32
ATOM     32  C   UNL     1      -2.218  -3.158  -1.867  0.00  0.00    +0.143 C 
BRANCH  32  33
ATOM     33  C   UNL     1      -2.125  -4.000  -0.620  0.00  0.00    -0.030 A 
ATOM     34  C   UNL     1      -0.936  -4.062   0.083  0.00  0.00    +0.009 A 
ATOM     35  C   UNL     1      -0.850  -4.828   1.230  0.00  0.00    +0.046 A 
ATOM     36  C   UNL     1      -1.954  -5.545   1.668  0.00  0.00    +0.120 A 
ATOM     37  C   UNL     1      -3.143  -5.485   0.958  0.00  0.00    +0.046 A 
ATOM     38  C   UNL     1      -3.226  -4.713  -0.185  0.00  0.00    +0.009 A 
BRANCH  36  39
ATOM     39  O   UNL     1      -1.869  -6.303   2.793  0.00  0.00    -0.495 OA
ATOM     40  C   UNL     1      -0.613  -6.317   3.474  0.00  0.00    +0.277 C 
ENDBRANCH  36  39
ENDBRANCH  32  33
ENDBRANCH   3  32
TORSDOF 13
