REMARK  Name = ZINC09410269
REMARK  6 active torsions:
REMARK  status: ('A' for Active; 'I' for Inactive)
REMARK    1  A    between atoms: C_6  and  N_7
REMARK    2  A    between atoms: C_8  and  C_10
REMARK    3  A    between atoms: C_10  and  N_11
REMARK    4  A    between atoms: N_19  and  C_22
REMARK    5  A    between atoms: C_22  and  C_23
REMARK    6  A    between atoms: C_23  and  C_24
REMARK                            x       y       z     vdW  Elec       q    Type
REMARK                         _______ _______ _______ _____ _____    ______ ____
ROOT
ATOM      1  N   UNL     1       6.903  -3.180   4.136  0.00  0.00    -0.284 N 
ATOM      2  C   UNL     1       6.476  -3.413   5.455  0.00  0.00    +0.066 A 
ATOM      3  C   UNL     1       5.865  -2.538   6.349  0.00  0.00    +0.034 A 
ATOM      4  C   UNL     1       5.523  -2.967   7.586  0.00  0.00    +0.048 A 
ATOM      5  S   UNL     1       6.024  -4.628   7.589  0.00  0.00    -0.090 S 
ATOM      6  C   UNL     1       6.676  -4.707   5.942  0.00  0.00    +0.100 A 
ATOM      7  C   UNL     1       7.274  -5.699   5.160  0.00  0.00    +0.271 A 
ATOM      8  O   UNL     1       7.443  -6.820   5.606  0.00  0.00    -0.266 OA
ATOM      9  N   UNL     1       7.663  -5.396   3.901  0.00  0.00    -0.259 N 
ATOM     10  C   UNL     1       7.473  -4.157   3.417  0.00  0.00    +0.333 A 
ATOM     11  O   UNL     1       7.832  -3.912   2.281  0.00  0.00    -0.246 OA
ENDROOT
BRANCH   1  12
ATOM     12  C   UNL     1       6.728  -1.852   3.543  0.00  0.00    +0.222 C 
BRANCH  12  14
ATOM     13  N   UNL     1       5.010  -0.649   2.231  0.00  0.00    -0.284 N 
ATOM     14  C   UNL     1       5.390  -1.783   2.852  0.00  0.00    +0.237 C 
ATOM     15  O   UNL     1       4.655  -2.748   2.855  0.00  0.00    -0.274 OA
ATOM     16  H   UNL     1       5.627   0.097   2.162  0.00  0.00    +0.155 HD
BRANCH  13  22
ATOM     17  C   UNL     1       2.657  -1.190   2.295  0.00  0.00    +0.027 A 
ATOM     18  C   UNL     1       1.388  -1.090   1.757  0.00  0.00    +0.051 A 
ATOM     19  C   UNL     1       1.177  -0.347   0.608  0.00  0.00    +0.166 A 
ATOM     20  C   UNL     1       2.246   0.301  -0.008  0.00  0.00    +0.168 A 
ATOM     21  C   UNL     1       3.517   0.200   0.532  0.00  0.00    +0.072 A 
ATOM     22  C   UNL     1       3.724  -0.546   1.684  0.00  0.00    +0.037 A 
ATOM     23  O   UNL     1       1.782   0.958  -1.110  0.00  0.00    -0.453 OA
ATOM     24  C   UNL     1       0.355   1.044  -0.934  0.00  0.00    +0.466 C 
ATOM     25  O   UNL     1       0.043  -0.094  -0.110  0.00  0.00    -0.453 OA
ENDBRANCH  13  22
ENDBRANCH  12  14
ENDBRANCH   1  12
BRANCH   9  26
ATOM     26  C   UNL     1       8.292  -6.420   3.062  0.00  0.00    +0.139 C 
BRANCH  26  27
ATOM     27  C   UNL     1       9.808  -6.385   3.265  0.00  0.00    +0.118 C 
BRANCH  27  28
ATOM     28  C   UNL     1      10.455  -7.438   2.403  0.00  0.00    +0.217 C 
ATOM     29  O   UNL     1       9.771  -8.147   1.696  0.00  0.00    -0.276 OA
ATOM     30  N   UNL     1      11.794  -7.591   2.418  0.00  0.00    -0.301 N 
ATOM     31  C   UNL     1      12.637  -6.736   3.264  0.00  0.00    +0.108 C 
ATOM     32  C   UNL     1      13.523  -7.635   4.140  0.00  0.00    +0.019 C 
ATOM     33  C   UNL     1      14.305  -8.598   3.244  0.00  0.00    +0.003 C 
ATOM     34  C   UNL     1      13.328  -9.489   2.473  0.00  0.00    +0.019 C 
ATOM     35  C   UNL     1      12.440  -8.614   1.583  0.00  0.00    +0.108 C 
ENDBRANCH  27  28
ENDBRANCH  26  27
ENDBRANCH   9  26
TORSDOF 6
