REMARK  Name = ZINC35991741
REMARK  11 active torsions:
REMARK  status: ('A' for Active; 'I' for Inactive)
REMARK    1  A    between atoms: C_1  and  C_2
REMARK    2  A    between atoms: C_2  and  N_3
REMARK    3  A    between atoms: N_6  and  C_9
REMARK    4  A    between atoms: C_9  and  C_10
REMARK    5  A    between atoms: C_11  and  C_28
REMARK    6  A    between atoms: C_12  and  C_21
REMARK    7  A    between atoms: N_17  and  C_18
REMARK    8  A    between atoms: C_18  and  C_19
REMARK    9  A    between atoms: C_28  and  O_30
REMARK   10  A    between atoms: O_30  and  C_31
REMARK   11  A    between atoms: C_31  and  C_32
REMARK                            x       y       z     vdW  Elec       q    Type
REMARK                         _______ _______ _______ _____ _____    ______ ____
ROOT
ATOM      1  C   UNL     1       1.414  -4.371  -5.036  0.00  0.00    +0.041 C 
ATOM      2  C   UNL     1       0.833  -5.051  -6.048  0.00  0.00    +0.080 C 
ATOM      3  C   UNL     1       0.723  -6.557  -5.915  0.00  0.00    +0.144 C 
ATOM      4  N   UNL     1       1.262  -7.159  -4.684  0.00  0.00    -0.288 N 
ATOM      5  C   UNL     1       1.814  -6.346  -3.761  0.00  0.00    +0.307 C 
ATOM      6  O   UNL     1       2.261  -6.833  -2.741  0.00  0.00    -0.252 OA
ATOM      7  N   UNL     1       1.890  -5.020  -3.933  0.00  0.00    -0.254 N 
ATOM      8  H   UNL     1       1.220  -8.117  -4.540  0.00  0.00    +0.151 HD
ENDROOT
BRANCH   3   9
ATOM      9  C   UNL     1       1.437  -7.180  -7.087  0.00  0.00    -0.022 A 
ATOM     10  C   UNL     1       2.814  -7.300  -7.073  0.00  0.00    +0.007 A 
ATOM     11  C   UNL     1       3.469  -7.872  -8.147  0.00  0.00    +0.020 A 
ATOM     12  C   UNL     1       2.746  -8.325  -9.236  0.00  0.00    +0.041 A 
ATOM     13  C   UNL     1       1.368  -8.204  -9.250  0.00  0.00    +0.020 A 
ATOM     14  C   UNL     1       0.714  -7.637  -8.172  0.00  0.00    +0.007 A 
ATOM     15 CL   UNL     1       3.568  -9.043 -10.587  0.00  0.00    -0.084 Cl
ENDBRANCH   3   9
BRANCH   2  16
ATOM     16  C   UNL     1       0.344  -4.381  -7.194  0.00  0.00    +0.339 C 
ATOM     17  O   UNL     1       0.555  -3.191  -7.339  0.00  0.00    -0.245 OA
BRANCH  16  18
ATOM     18  O   UNL     1      -0.355  -5.061  -8.126  0.00  0.00    -0.462 OA
BRANCH  18  19
ATOM     19  C   UNL     1      -0.819  -4.321  -9.257  0.00  0.00    +0.229 C 
ATOM     20  C   UNL     1      -1.585  -5.253 -10.198  0.00  0.00    +0.048 C 
ENDBRANCH  18  19
ENDBRANCH  16  18
ENDBRANCH   2  16
BRANCH   1  21
ATOM     21  C   UNL     1       1.543  -2.873  -5.128  0.00  0.00    +0.136 C 
BRANCH  21  25
ATOM     22  N   UNL     1       4.736  -1.208  -7.343  0.00  0.00    +0.381 N 
ATOM     23  C   UNL     1       4.558  -0.770  -5.952  0.00  0.00    -0.063 C 
ATOM     24  C   UNL     1       3.130  -1.081  -5.498  0.00  0.00    +0.066 C 
ATOM     25  N   UNL     1       2.887  -2.526  -5.609  0.00  0.00    -0.300 NA
ATOM     26  C   UNL     1       3.086  -2.984  -6.992  0.00  0.00    +0.066 C 
ATOM     27  C   UNL     1       4.514  -2.658  -7.434  0.00  0.00    -0.063 C 
ATOM     28  H   UNL     1       4.073  -0.729  -7.933  0.00  0.00    -0.082 HD
BRANCH  22  30
ATOM     29  C   UNL     1       6.292   0.624  -7.808  0.00  0.00    -0.017 C 
ATOM     30  C   UNL     1       6.101  -0.893  -7.784  0.00  0.00    -0.082 C 
ENDBRANCH  22  30
ENDBRANCH  21  25
ENDBRANCH   1  21
BRANCH   7  31
ATOM     31  C   UNL     1       2.513  -4.220  -2.875  0.00  0.00    +0.141 C 
BRANCH  31  32
ATOM     32  C   UNL     1       1.473  -3.844  -1.851  0.00  0.00    -0.015 C 
ATOM     33  C   UNL     1       1.633  -4.191  -0.598  0.00  0.00    +0.005 C 
ENDBRANCH  31  32
ENDBRANCH   7  31
TORSDOF 9
