REMARK  Name = ZINC62174018
REMARK  7 active torsions:
REMARK  status: ('A' for Active; 'I' for Inactive)
REMARK    1  A    between atoms: C_1  and  C_2
REMARK    2  A    between atoms: C_7  and  C_8
REMARK    3  A    between atoms: C_11  and  N_16
REMARK    4  A    between atoms: C_13  and  O_15
REMARK    5  A    between atoms: C_21  and  C_23
REMARK    6  A    between atoms: C_23  and  C_24
REMARK    7  A    between atoms: C_24  and  O_25
REMARK                            x       y       z     vdW  Elec       q    Type
REMARK                         _______ _______ _______ _____ _____    ______ ____
ROOT
ATOM      1  C   UNL     1      -0.749   1.984  -1.127  0.00  0.00    +0.044 C 
ATOM      2  C   UNL     1      -0.497   0.511  -0.929  0.00  0.00    -0.047 A 
ATOM      3  C   UNL     1      -0.471  -0.338  -2.018  0.00  0.00    +0.013 A 
ATOM      4  C   UNL     1      -0.242  -1.692  -1.843  0.00  0.00    +0.021 A 
ATOM      5  C   UNL     1      -0.039  -2.197  -0.570  0.00  0.00    +0.126 A 
ATOM      6  C   UNL     1      -0.063  -1.339   0.524  0.00  0.00    +0.049 A 
ATOM      7  C   UNL     1      -0.286   0.011   0.343  0.00  0.00    -0.044 A 
ATOM      8  C   UNL     1      -0.305   0.938   1.530  0.00  0.00    +0.044 C 
ATOM      9  O   UNL     1       0.179  -3.520  -0.352  0.00  0.00    -0.493 OA
ATOM     10  C   UNL     1       0.567  -4.326  -1.466  0.00  0.00    +0.217 C 
ATOM     11  C   UNL     1      -0.396  -4.044  -2.626  0.00  0.00    +0.004 C 
ATOM     12  C   UNL     1      -0.216  -2.587  -3.057  0.00  0.00    +0.138 C 
ENDROOT
BRANCH  11  13
ATOM     13  N   UNL     1      -0.088  -4.936  -3.752  0.00  0.00    +0.388 N 
ATOM     14  C   UNL     1       1.328  -4.796  -4.112  0.00  0.00    -0.078 C 
ATOM     15  C   UNL     1       1.635  -5.661  -5.336  0.00  0.00    -0.019 C 
ATOM     16  C   UNL     1       1.332  -7.126  -5.008  0.00  0.00    -0.003 C 
ATOM     17  C   UNL     1      -0.128  -7.248  -4.562  0.00  0.00    -0.015 C 
ATOM     18  C   UNL     1      -0.370  -6.324  -3.367  0.00  0.00    -0.066 C 
ATOM     19  H   UNL     1      -0.661  -4.685  -4.544  0.00  0.00    -0.081 HD
BRANCH  18  20
ATOM     20  C   UNL     1      -1.827  -6.442  -2.918  0.00  0.00    +0.012 C 
BRANCH  20  21
ATOM     21  C   UNL     1      -2.106  -7.877  -2.464  0.00  0.00    +0.154 C 
BRANCH  21  22
ATOM     22  O   UNL     1      -3.430  -7.959  -1.931  0.00  0.00    -0.395 OA
ATOM     23  H   UNL     1      -3.649  -8.822  -1.554  0.00  0.00    +0.209 HD
ENDBRANCH  21  22
ENDBRANCH  20  21
ENDBRANCH  18  20
ENDBRANCH  11  13
BRANCH  12  24
ATOM     24  O   UNL     1      -1.276  -2.218  -3.941  0.00  0.00    -0.389 OA
ATOM     25  H   UNL     1      -1.179  -1.336  -4.325  0.00  0.00    +0.210 HD
ENDBRANCH  12  24
TORSDOF 5
