REMARK  Name = ZINC12203546
REMARK  8 active torsions:
REMARK  status: ('A' for Active; 'I' for Inactive)
REMARK    1  A    between atoms: C_1  and  C_2
REMARK    2  A    between atoms: C_2  and  N_61
REMARK    3  A    between atoms: C_6  and  C_8
REMARK    4  A    between atoms: C_8  and  N_9
REMARK    5  A    between atoms: C_10  and  C_12
REMARK    6  A    between atoms: C_12  and  C_13
REMARK    7  A    between atoms: C_13  and  C_14
REMARK    8  A    between atoms: C_19  and  N_63
REMARK                            x       y       z     vdW  Elec       q    Type
REMARK                         _______ _______ _______ _____ _____    ______ ____
ROOT
ATOM      1  C   UNL     1       2.891   4.046   0.552  0.00  0.00    +0.096 C 
ENDROOT
BRANCH   1   3
ATOM      2  N   UNL     1       1.402   2.121   0.110  0.00  0.00    -0.317 N 
ATOM      3  C   UNL     1       1.529   3.447   0.312  0.00  0.00    +0.213 C 
ATOM      4  O   UNL     1       0.547   4.159   0.301  0.00  0.00    -0.276 OA
ATOM      5  H   UNL     1       2.188   1.552   0.119  0.00  0.00    +0.149 HD
BRANCH   2   6
ATOM      6  C   UNL     1       0.078   1.538  -0.122  0.00  0.00    +0.089 C 
BRANCH   6  10
ATOM      7  C   UNL     1       0.409  -1.208  -2.513  0.00  0.00    -0.078 C 
ATOM      8  C   UNL     1      -0.774  -1.762  -1.691  0.00  0.00    -0.020 C 
ATOM      9  C   UNL     1      -1.157  -0.567  -0.780  0.00  0.00    -0.016 C 
ATOM     10  C   UNL     1       0.228   0.059  -0.486  0.00  0.00    -0.051 C 
ATOM     11  N   UNL     1       0.969  -0.077  -1.755  0.00  0.00    +0.382 N 
ATOM     12  H   UNL     1       0.865   0.784  -2.304  0.00  0.00    -0.081 HD
BRANCH  11  14
ATOM     13  C   UNL     1       3.141  -0.568  -2.804  0.00  0.00    -0.017 C 
ATOM     14  C   UNL     1       2.412  -0.307  -1.484  0.00  0.00    -0.082 C 
ENDBRANCH  11  14
ENDBRANCH   6  10
ENDBRANCH   2   6
ENDBRANCH   1   3
BRANCH   1  15
ATOM     15  C   UNL     1       2.755   5.557   0.750  0.00  0.00    +0.012 C 
BRANCH  15  16
ATOM     16  C   UNL     1       4.138   6.166   0.993  0.00  0.00    -0.014 C 
ATOM     17  C   UNL     1       4.705   5.637   2.313  0.00  0.00    -0.015 C 
ATOM     18  C   UNL     1       6.059   6.296   2.582  0.00  0.00    -0.078 C 
ATOM     19  C   UNL     1       5.395   8.289   1.374  0.00  0.00    -0.078 C 
ATOM     20  C   UNL     1       4.020   7.690   1.070  0.00  0.00    -0.015 C 
ATOM     21  N   UNL     1       5.873   7.760   2.669  0.00  0.00    +0.382 N 
ATOM     22  H   UNL     1       5.172   7.964   3.391  0.00  0.00    -0.081 HD
BRANCH  21  23
ATOM     23  C   UNL     1       7.147   8.410   3.040  0.00  0.00    -0.067 C 
ATOM     24  C   UNL     1       8.189   8.198   1.945  0.00  0.00    -0.005 C 
ATOM     25  C   UNL     1       9.398   9.105   2.192  0.00  0.00    +0.067 C 
ATOM     26  S   UNL     1      10.161   8.640   3.775  0.00  0.00    -0.161 S 
ATOM     27  C   UNL     1       8.761   8.682   4.934  0.00  0.00    +0.067 C 
ATOM     28  C   UNL     1       7.627   7.824   4.365  0.00  0.00    -0.005 C 
ENDBRANCH  21  23
ENDBRANCH  15  16
ENDBRANCH   1  15
TORSDOF 7
