REMARK  Name = ZINC09124170
REMARK  9 active torsions:
REMARK  status: ('A' for Active; 'I' for Inactive)
REMARK    1  A    between atoms: C_1  and  C_2
REMARK    2  A    between atoms: C_4  and  O_32
REMARK    3  A    between atoms: C_5  and  C_9
REMARK    4  A    between atoms: N_17  and  C_29
REMARK    5  A    between atoms: C_18  and  C_20
REMARK    6  A    between atoms: C_23  and  O_28
REMARK    7  A    between atoms: C_24  and  O_26
REMARK    8  A    between atoms: O_26  and  C_27
REMARK    9  A    between atoms: C_29  and  C_30
REMARK                            x       y       z     vdW  Elec       q    Type
REMARK                         _______ _______ _______ _____ _____    ______ ____
ROOT
ATOM      1  C   UNL     1      -0.368  -3.730   0.356  0.00  0.00    +0.102 A 
ATOM      2  C   UNL     1      -0.043  -4.781   1.220  0.00  0.00    +0.035 A 
ATOM      3  C   UNL     1      -0.042  -5.922   0.442  0.00  0.00    +0.126 A 
ATOM      4  N   UNL     1      -0.357  -5.519  -0.824  0.00  0.00    -0.272 N 
ATOM      5  H   UNL     1      -0.433  -6.105  -1.593  0.00  0.00    +0.189 HD
ATOM      6  N   UNL     1      -0.546  -4.247  -0.844  0.00  0.00    -0.173 NA
ATOM      7  C   UNL     1       0.292  -7.068   1.295  0.00  0.00    +0.266 C 
ATOM      8  O   UNL     1       0.375  -8.219   0.911  0.00  0.00    -0.268 OA
ATOM      9  N   UNL     1       0.494  -6.665   2.563  0.00  0.00    -0.281 N 
ATOM     10  C   UNL     1       0.302  -5.210   2.620  0.00  0.00    +0.142 C 
ENDROOT
BRANCH   1  15
ATOM     11  C   UNL     1      -0.859   1.833   1.783  0.00  0.00    +0.045 C 
ATOM     12  C   UNL     1      -0.731   0.379   1.407  0.00  0.00    -0.029 A 
ATOM     13  C   UNL     1      -0.813   0.001   0.080  0.00  0.00    +0.050 A 
ATOM     14  C   UNL     1      -0.696  -1.334  -0.270  0.00  0.00    +0.126 A 
ATOM     15  C   UNL     1      -0.494  -2.297   0.722  0.00  0.00    +0.045 A 
ATOM     16  C   UNL     1      -0.412  -1.907   2.056  0.00  0.00    +0.034 A 
ATOM     17  C   UNL     1      -0.525  -0.572   2.392  0.00  0.00    +0.045 A 
ATOM     18 CL   UNL     1      -0.417  -0.086   4.055  0.00  0.00    -0.083 Cl
BRANCH  14  19
ATOM     19  O   UNL     1      -0.777  -1.706  -1.575  0.00  0.00    -0.506 OA
ATOM     20  H   UNL     1       0.073  -1.715  -2.035  0.00  0.00    +0.292 HD
ENDBRANCH  14  19
ENDBRANCH   1  15
BRANCH  10  21
ATOM     21  C   UNL     1       1.573  -4.537   3.071  0.00  0.00    -0.019 A 
ATOM     22  C   UNL     1       1.524  -3.547   4.034  0.00  0.00    +0.009 A 
ATOM     23  C   UNL     1       2.687  -2.926   4.451  0.00  0.00    +0.049 A 
ATOM     24  C   UNL     1       3.904  -3.295   3.903  0.00  0.00    +0.158 A 
ATOM     25  C   UNL     1       3.953  -4.292   2.933  0.00  0.00    +0.162 A 
ATOM     26  C   UNL     1       2.785  -4.914   2.523  0.00  0.00    +0.055 A 
BRANCH  25  27
ATOM     27  O   UNL     1       5.146  -4.659   2.392  0.00  0.00    -0.491 OA
ATOM     28  C   UNL     1       5.110  -5.608   1.325  0.00  0.00    +0.277 C 
ENDBRANCH  25  27
BRANCH  24  29
ATOM     29  O   UNL     1       5.049  -2.685   4.311  0.00  0.00    -0.503 OA
ATOM     30  H   UNL     1       5.479  -3.118   5.061  0.00  0.00    +0.292 HD
ENDBRANCH  24  29
ENDBRANCH  10  21
BRANCH   9  31
ATOM     31  C   UNL     1       0.845  -7.530   3.692  0.00  0.00    +0.135 C 
BRANCH  31  32
ATOM     32  C   UNL     1       2.345  -7.633   3.799  0.00  0.00    -0.016 C 
ATOM     33  C   UNL     1       2.944  -7.330   4.924  0.00  0.00    +0.005 C 
ENDBRANCH  31  32
ENDBRANCH   9  31
TORSDOF 7
