REMARK  Name = ZINC04836709
REMARK  6 active torsions:
REMARK  status: ('A' for Active; 'I' for Inactive)
REMARK    1  A    between atoms: C_1  and  C_2
REMARK    2  A    between atoms: C_5  and  N_20
REMARK    3  A    between atoms: C_7  and  N_8
REMARK    4  A    between atoms: C_9  and  C_11
REMARK    5  A    between atoms: C_11  and  S_12
REMARK    6  A    between atoms: S_12  and  C_13
REMARK                            x       y       z     vdW  Elec       q    Type
REMARK                         _______ _______ _______ _____ _____    ______ ____
ROOT
ATOM      1  N   UNL     1       3.074   4.299  -0.004  0.00  0.00    -0.285 N 
ATOM      2  C   UNL     1       1.855   3.722   0.001  0.00  0.00    +0.227 C 
ATOM      3  O   UNL     1       0.858   4.412   0.021  0.00  0.00    -0.275 OA
ATOM      4  H   UNL     1       3.871   3.749   0.061  0.00  0.00    +0.155 HD
ENDROOT
BRANCH   1  11
ATOM      5  C   UNL     1       5.425   5.529   1.024  0.00  0.00    +0.045 C 
ATOM      6  C   UNL     1       4.320   6.330   0.385  0.00  0.00    -0.029 A 
ATOM      7  C   UNL     1       4.431   7.704   0.285  0.00  0.00    +0.007 A 
ATOM      8  C   UNL     1       3.418   8.440  -0.301  0.00  0.00    +0.033 A 
ATOM      9  C   UNL     1       2.291   7.804  -0.788  0.00  0.00    +0.128 A 
ATOM     10  C   UNL     1       2.176   6.431  -0.696  0.00  0.00    +0.056 A 
ATOM     11  C   UNL     1       3.189   5.689  -0.103  0.00  0.00    +0.038 A 
BRANCH   9  12
ATOM     12  N   UNL     1       1.209   8.596  -1.415  0.00  0.00    +0.056 N 
ATOM     13  O   UNL     1       1.312   9.807  -1.502  0.00  0.00    -0.126 OA
ATOM     14  O   UNL     1       0.215   8.038  -1.845  0.00  0.00    -0.126 OA
ENDBRANCH   9  12
ENDBRANCH   1  11
BRANCH   2  15
ATOM     15  C   UNL     1       1.732   2.220  -0.018  0.00  0.00    +0.170 C 
BRANCH  15  16
ATOM     16  S   UNL     1      -0.021   1.757  -0.005  0.00  0.00    -0.116 S 
BRANCH  16  17
ATOM     17  C   UNL     1       0.003  -0.004  -0.029  0.00  0.00    +0.008 A 
ATOM     18  C   UNL     1       1.215  -0.684  -0.057  0.00  0.00    +0.016 A 
ATOM     19  C   UNL     1       1.230  -2.065  -0.070  0.00  0.00    +0.016 A 
ATOM     20  C   UNL     1       0.041  -2.772  -0.067  0.00  0.00    +0.018 A 
ATOM     21  C   UNL     1      -1.168  -2.098  -0.045  0.00  0.00    +0.016 A 
ATOM     22  C   UNL     1      -1.190  -0.717  -0.026  0.00  0.00    +0.016 A 
ATOM     23 BR   UNL     1       0.067  -4.662  -0.093  0.00  0.00    -0.050 Br
ENDBRANCH  16  17
ENDBRANCH  15  16
ENDBRANCH   2  15
TORSDOF 5
