REMARK  Name = ZINC38930469
REMARK  10 active torsions:
REMARK  status: ('A' for Active; 'I' for Inactive)
REMARK    1  A    between atoms: C_1  and  C_2
REMARK    2  A    between atoms: C_2  and  O_3
REMARK    3  A    between atoms: O_3  and  C_4
REMARK    4  A    between atoms: C_4  and  C_6
REMARK    5  A    between atoms: C_6  and  N_7
REMARK    6  A    between atoms: C_11  and  S_26
REMARK    7  A    between atoms: N_16  and  C_17
REMARK    8  A    between atoms: C_17  and  C_19
REMARK    9  A    between atoms: C_19  and  C_20
REMARK   10  A    between atoms: S_26  and  N_29
REMARK                            x       y       z     vdW  Elec       q    Type
REMARK                         _______ _______ _______ _____ _____    ______ ____
ROOT
ATOM      1  N   UNL     1       1.497  -3.844   2.426  0.00  0.00    -0.310 N 
ATOM      2  C   UNL     1       0.456  -4.553   2.994  0.00  0.00    +0.058 A 
ATOM      3  C   UNL     1      -0.670  -4.075   3.681  0.00  0.00    +0.029 A 
ATOM      4  C   UNL     1      -1.608  -4.949   4.179  0.00  0.00    +0.030 A 
ATOM      5  C   UNL     1      -1.471  -6.317   4.019  0.00  0.00    +0.106 A 
ATOM      6  C   UNL     1      -0.369  -6.814   3.344  0.00  0.00    +0.045 A 
ATOM      7  C   UNL     1       0.570  -5.942   2.846  0.00  0.00    +0.041 A 
ATOM      8  S   UNL     1       2.087  -6.128   1.946  0.00  0.00    -0.052 S 
ATOM      9  C   UNL     1       2.499  -4.506   1.794  0.00  0.00    +0.167 A 
ATOM     10  N   UNL     1       3.568  -3.988   1.192  0.00  0.00    -0.156 NA
ENDROOT
BRANCH   5  11
ATOM     11  S   UNL     1      -2.687  -7.416   4.667  0.00  0.00    +0.056 S 
ATOM     12  O   UNL     1      -2.043  -8.668   4.855  0.00  0.00    -0.153 OA
ATOM     13  O   UNL     1      -3.335  -6.725   5.726  0.00  0.00    -0.153 OA
BRANCH  11  14
ATOM     14  N   UNL     1      -3.824  -7.641   3.483  0.00  0.00    -0.204 NA
ATOM     15  H   UNL     1      -3.728  -7.194   2.628  0.00  0.00    +0.144 HD
ATOM     16  H   UNL     1      -4.585  -8.220   3.646  0.00  0.00    +0.144 HD
ENDBRANCH  11  14
ENDBRANCH   5  11
BRANCH  10  17
ATOM     17  C   UNL     1       4.460  -4.788   0.618  0.00  0.00    +0.239 C 
ATOM     18  O   UNL     1       4.300  -5.993   0.642  0.00  0.00    -0.274 OA
BRANCH  17  19
ATOM     19  C   UNL     1       5.669  -4.202  -0.063  0.00  0.00    +0.101 C 
BRANCH  19  20
ATOM     20  C   UNL     1       6.528  -5.330  -0.637  0.00  0.00    -0.002 C 
ATOM     21  C   UNL     1       7.081  -6.183   0.506  0.00  0.00    +0.004 C 
ATOM     22  C   UNL     1       7.940  -7.311  -0.068  0.00  0.00    +0.000 C 
ATOM     23  C   UNL     1       9.101  -6.714  -0.866  0.00  0.00    +0.000 C 
ATOM     24  C   UNL     1       8.548  -5.861  -2.009  0.00  0.00    +0.000 C 
ATOM     25  C   UNL     1       7.689  -4.733  -1.435  0.00  0.00    +0.004 C 
ENDBRANCH  19  20
ENDBRANCH  17  19
ENDBRANCH  10  17
BRANCH   1  26
ATOM     26  C   UNL     1       1.516  -2.381   2.500  0.00  0.00    +0.244 C 
BRANCH  26  27
ATOM     27  C   UNL     1       0.801  -1.808   1.304  0.00  0.00    +0.327 C 
ATOM     28  O   UNL     1       0.324  -2.546   0.475  0.00  0.00    -0.249 OA
BRANCH  27  29
ATOM     29  O   UNL     1       0.693  -0.477   1.160  0.00  0.00    -0.464 OA
BRANCH  29  31
ATOM     30  C   UNL     1      -0.019   1.526   0.010  0.00  0.00    +0.048 C 
ATOM     31  C   UNL     1       0.002  -0.004   0.002  0.00  0.00    +0.229 C 
ENDBRANCH  29  31
ENDBRANCH  27  29
ENDBRANCH  26  27
ENDBRANCH   1  26
TORSDOF 9
