REMARK  Name = ZINC12330187
REMARK  5 active torsions:
REMARK  status: ('A' for Active; 'I' for Inactive)
REMARK    1  A    between atoms: C_6  and  C_7
REMARK    2  A    between atoms: C_7  and  C_9
REMARK    3  A    between atoms: C_7  and  O_27
REMARK    4  A    between atoms: C_9  and  N_57
REMARK    5  A    between atoms: C_16  and  O_26
REMARK                            x       y       z     vdW  Elec       q    Type
REMARK                         _______ _______ _______ _____ _____    ______ ____
ROOT
ATOM      1  C   UNL     1      -1.381  -0.339   2.391  0.00  0.00    -0.075 C 
ATOM      2  C   UNL     1      -2.087   0.296   3.592  0.00  0.00    +0.029 C 
ATOM      3  C   UNL     1      -1.481  -0.255   4.884  0.00  0.00    +0.110 C 
ATOM      4  C   UNL     1       0.023   0.024   4.899  0.00  0.00    +0.029 C 
ATOM      5  C   UNL     1       0.667  -0.602   3.659  0.00  0.00    -0.075 C 
ATOM      6  C   UNL     1      -2.140   0.425   6.088  0.00  0.00    +0.084 C 
ATOM      7  C   UNL     1      -1.446  -0.066   7.361  0.00  0.00    +0.152 C 
ATOM      8  C   UNL     1      -1.336  -1.569   7.331  0.00  0.00    +0.024 A 
ATOM      9  C   UNL     1      -1.093  -2.243   8.517  0.00  0.00    +0.029 A 
ATOM     10  C   UNL     1      -0.978  -3.620   8.525  0.00  0.00    +0.042 A 
ATOM     11  C   UNL     1      -1.105  -4.332   7.345  0.00  0.00    +0.023 A 
ATOM     12  C   UNL     1      -1.348  -3.665   6.162  0.00  0.00    +0.047 A 
ATOM     13  C   UNL     1      -1.467  -2.279   6.150  0.00  0.00    +0.127 A 
ATOM     14  O   UNL     1      -1.714  -1.660   4.966  0.00  0.00    -0.485 OA
ATOM     15 CL   UNL     1      -0.676  -4.458  10.015  0.00  0.00    -0.084 Cl
ATOM     16  N   UNL     1       0.058  -0.007   2.450  0.00  0.00    +0.382 N 
ATOM     17  H   UNL     1       0.163   1.013   2.492  0.00  0.00    -0.082 HD
ENDROOT
BRANCH   7  18
ATOM     18  O   UNL     1      -2.207   0.333   8.502  0.00  0.00    -0.387 OA
ATOM     19  H   UNL     1      -1.823   0.058   9.347  0.00  0.00    +0.210 HD
ENDBRANCH   7  18
BRANCH  16  20
ATOM     20  C   UNL     1       0.742  -0.511   1.242  0.00  0.00    -0.042 C 
BRANCH  20  21
ATOM     21  C   UNL     1       0.019   0.020   0.002  0.00  0.00    +0.128 C 
BRANCH  21  27
ATOM     22  C   UNL     1       1.876   0.223  -1.664  0.00  0.00    +0.006 A 
ATOM     23  C   UNL     1       2.540  -0.206  -2.797  0.00  0.00    +0.004 A 
ATOM     24  C   UNL     1       2.066  -1.292  -3.514  0.00  0.00    -0.044 A 
ATOM     25  C   UNL     1       0.928  -1.952  -3.090  0.00  0.00    -0.044 A 
ATOM     26  C   UNL     1       0.267  -1.525  -1.951  0.00  0.00    +0.010 A 
ATOM     27  C   UNL     1       0.741  -0.442  -1.237  0.00  0.00    -0.021 A 
ATOM     28  C   UNL     1       0.619  -3.094  -4.034  0.00  0.00    +0.036 C 
ATOM     29  C   UNL     1       1.428  -2.792  -5.313  0.00  0.00    +0.009 C 
ATOM     30  C   UNL     1       2.599  -1.944  -4.771  0.00  0.00    +0.036 C 
ENDBRANCH  21  27
BRANCH  21  31
ATOM     31  O   UNL     1      -0.002   1.448   0.038  0.00  0.00    -0.389 OA
ATOM     32  H   UNL     1       0.876   1.854   0.051  0.00  0.00    +0.210 HD
ENDBRANCH  21  31
ENDBRANCH  20  21
ENDBRANCH  16  20
TORSDOF 5
