REMARK  Name = ZINC61088608
REMARK  6 active torsions:
REMARK  status: ('A' for Active; 'I' for Inactive)
REMARK    1  A    between atoms: C_3  and  O_21
REMARK    2  A    between atoms: C_6  and  C_7
REMARK    3  A    between atoms: C_7  and  C_8
REMARK    4  A    between atoms: C_8  and  N_9
REMARK    5  A    between atoms: C_10  and  C_12
REMARK    6  A    between atoms: C_14  and  N_20
REMARK                            x       y       z     vdW  Elec       q    Type
REMARK                         _______ _______ _______ _____ _____    ______ ____
ROOT
ATOM      1  N   UNL     1      -3.005  -1.775  -1.420  0.00  0.00    -0.311 N 
ATOM      2  C   UNL     1      -3.596  -2.113  -2.584  0.00  0.00    +0.245 C 
ATOM      3  O   UNL     1      -3.084  -1.797  -3.640  0.00  0.00    -0.270 OA
ATOM      4  H   UNL     1      -3.414  -2.028  -0.578  0.00  0.00    +0.149 HD
ENDROOT
BRANCH   2   5
ATOM      5  C   UNL     1      -4.866  -2.868  -2.575  0.00  0.00    +0.053 A 
ATOM      6  C   UNL     1      -5.459  -3.227  -1.363  0.00  0.00    +0.039 A 
ATOM      7  C   UNL     1      -6.649  -3.934  -1.362  0.00  0.00    +0.061 A 
ATOM      8  C   UNL     1      -7.252  -4.285  -2.567  0.00  0.00    +0.145 A 
ATOM      9  C   UNL     1      -6.664  -3.929  -3.769  0.00  0.00    +0.056 A 
ATOM     10  C   UNL     1      -5.480  -3.219  -3.780  0.00  0.00    +0.033 A 
ATOM     11 BR   UNL     1      -4.686  -2.729  -5.424  0.00  0.00    -0.049 Br
ATOM     12  F   UNL     1      -8.413  -4.974  -2.564  0.00  0.00    -0.204 F 
BRANCH   7  13
ATOM     13  N   UNL     1      -7.246  -4.296  -0.149  0.00  0.00    -0.356 N 
ATOM     14  H   UNL     1      -6.826  -4.052   0.690  0.00  0.00    +0.142 HD
ATOM     15  H   UNL     1      -8.080  -4.791  -0.149  0.00  0.00    +0.142 HD
ENDBRANCH   7  13
ENDBRANCH   2   5
BRANCH   1  16
ATOM     16  C   UNL     1      -1.746  -1.027  -1.429  0.00  0.00    +0.109 C 
BRANCH  16  17
ATOM     17  C   UNL     1      -1.293  -0.774   0.011  0.00  0.00    +0.054 C 
BRANCH  17  23
ATOM     18  C   UNL     1      -0.017   1.378   0.010  0.00  0.00    +0.007 A 
ATOM     19  C   UNL     1       1.169   2.087   0.002  0.00  0.00    +0.045 A 
ATOM     20  C   UNL     1       2.380   1.409  -0.013  0.00  0.00    +0.117 A 
ATOM     21  C   UNL     1       2.396   0.022  -0.021  0.00  0.00    +0.045 A 
ATOM     22  C   UNL     1       1.207  -0.681  -0.013  0.00  0.00    +0.007 A 
ATOM     23  C   UNL     1       0.002  -0.004   0.002  0.00  0.00    -0.046 A 
BRANCH  20  24
ATOM     24  O   UNL     1       3.548   2.104  -0.021  0.00  0.00    -0.507 OA
ATOM     25  H   UNL     1       3.895   2.300   0.860  0.00  0.00    +0.292 HD
ENDBRANCH  20  24
ENDBRANCH  17  23
ENDBRANCH  16  17
ENDBRANCH   1  16
TORSDOF 6
