REMARK  Name = ZINC49459835
REMARK  2 active torsions:
REMARK  status: ('A' for Active; 'I' for Inactive)
REMARK    1  A    between atoms: C_3  and  C_7
REMARK    2  A    between atoms: C_7  and  N_8
REMARK                            x       y       z     vdW  Elec       q    Type
REMARK                         _______ _______ _______ _____ _____    ______ ____
ROOT
ATOM      1  N   UNL     1       4.078  -0.511  -1.456  0.00  0.00    -0.297 N 
ATOM      2  C   UNL     1       5.368  -0.887  -1.351  0.00  0.00    +0.303 C 
ATOM      3  O   UNL     1       6.104  -0.322  -0.565  0.00  0.00    -0.253 OA
ATOM      4  N   UNL     1       5.842  -1.888  -2.119  0.00  0.00    -0.282 N 
ATOM      5  C   UNL     1       4.976  -2.458  -3.111  0.00  0.00    +0.113 C 
ATOM      6  C   UNL     1       5.202  -3.925  -3.313  0.00  0.00    +0.007 C 
ATOM      7  C   UNL     1       5.314  -4.692  -2.006  0.00  0.00    +0.008 C 
ATOM      8  C   UNL     1       6.717  -4.750  -1.435  0.00  0.00    -0.009 C 
ATOM      9  C   UNL     1       7.725  -5.193  -2.499  0.00  0.00    +0.007 C 
ATOM     10  C   UNL     1       7.658  -4.175  -3.639  0.00  0.00    -0.009 C 
ATOM     11  C   UNL     1       6.282  -4.280  -4.297  0.00  0.00    +0.008 C 
ATOM     12  C   UNL     1       7.905  -2.768  -3.145  0.00  0.00    +0.026 C 
ATOM     13  C   UNL     1       7.208  -2.335  -1.905  0.00  0.00    +0.078 C 
ATOM     14  C   UNL     1       7.193  -3.428  -0.851  0.00  0.00    +0.026 C 
ATOM     15  H   UNL     1       3.510  -0.908  -2.135  0.00  0.00    +0.150 HD
ENDROOT
BRANCH   1  16
ATOM     16  C   UNL     1       3.533   0.498  -0.545  0.00  0.00    +0.137 C 
BRANCH  16  19
ATOM     17  C   UNL     1      -0.019   1.547  -0.003  0.00  0.00    +0.031 C 
ATOM     18  C   UNL     1       1.495   1.893  -0.006  0.00  0.00    +0.035 C 
ATOM     19  C   UNL     1       2.058   0.740  -0.875  0.00  0.00    +0.135 C 
ATOM     20  O   UNL     1       1.272  -0.410  -0.527  0.00  0.00    -0.375 OA
ATOM     21  C   UNL     1      -0.002   0.004  -0.019  0.00  0.00    +0.160 C 
ENDBRANCH  16  19
ENDBRANCH   1  16
TORSDOF 2
