REMARK  Name = ZINC02247000
REMARK  7 active torsions:
REMARK  status: ('A' for Active; 'I' for Inactive)
REMARK    1  A    between atoms: C_1  and  C_2
REMARK    2  A    between atoms: C_2  and  N_3
REMARK    3  A    between atoms: C_7  and  C_8
REMARK    4  A    between atoms: C_10  and  S_19
REMARK    5  A    between atoms: C_11  and  N_13
REMARK    6  A    between atoms: S_19  and  C_22
REMARK    7  A    between atoms: C_25  and  C_28
REMARK                            x       y       z     vdW  Elec       q    Type
REMARK                         _______ _______ _______ _____ _____    ______ ____
ROOT
ATOM      1  C   UNL     1      -2.295   1.845   3.102  0.00  0.00    +0.225 A 
ATOM      2  N   UNL     1      -1.954   1.241   1.980  0.00  0.00    -0.189 NA
ATOM      3  C   UNL     1      -1.012   1.961   1.373  0.00  0.00    +0.243 A 
ATOM      4  C   UNL     1      -0.753   3.051   2.151  0.00  0.00    +0.236 A 
ATOM      5  O   UNL     1      -1.563   2.973   3.225  0.00  0.00    -0.420 OA
ENDROOT
BRANCH   1  10
ATOM      6  N   UNL     1      -5.468  -1.569   4.108  0.00  0.00    -0.256 N 
ATOM      7  C   UNL     1      -4.976  -0.440   4.590  0.00  0.00    +0.258 C 
ATOM      8  O   UNL     1      -5.363   0.027   5.646  0.00  0.00    -0.269 OA
ATOM      9  C   UNL     1      -3.940   0.228   3.783  0.00  0.00    +0.082 C 
ATOM     10  C   UNL     1      -3.265   1.389   4.023  0.00  0.00    +0.088 C 
ATOM     11  S   UNL     1      -3.805  -0.905   2.406  0.00  0.00    -0.061 S 
ATOM     12  C   UNL     1      -5.032  -2.086   2.941  0.00  0.00    +0.121 C 
ATOM     13  S   UNL     1      -5.534  -3.526   2.163  0.00  0.00    -0.027 S 
BRANCH   6  15
ATOM     14  C   UNL     1      -5.849  -3.262   5.832  0.00  0.00    +0.025 C 
ATOM     15  C   UNL     1      -6.506  -2.277   4.862  0.00  0.00    +0.111 C 
ENDBRANCH   6  15
ENDBRANCH   1  10
BRANCH   4  16
ATOM     16  N   UNL     1       0.165   4.051   1.886  0.00  0.00    -0.294 N 
ATOM     17  C   UNL     1       1.205   4.100   2.924  0.00  0.00    +0.136 C 
ATOM     18  C   UNL     1       2.230   5.178   2.561  0.00  0.00    +0.179 C 
ATOM     19  O   UNL     1       1.561   6.432   2.405  0.00  0.00    -0.377 OA
ATOM     20  C   UNL     1       0.542   6.420   1.401  0.00  0.00    +0.179 C 
ATOM     21  C   UNL     1      -0.500   5.355   1.753  0.00  0.00    +0.136 C 
ENDBRANCH   4  16
BRANCH   3  22
ATOM     22  S   UNL     1      -0.232   1.570  -0.158  0.00  0.00    +0.047 S 
ATOM     23  O   UNL     1      -0.377   0.168  -0.341  0.00  0.00    -0.163 OA
ATOM     24  O   UNL     1       1.037   2.209  -0.142  0.00  0.00    -0.163 OA
BRANCH  22  25
ATOM     25  C   UNL     1      -1.170   2.344  -1.433  0.00  0.00    +0.095 A 
ATOM     26  C   UNL     1      -2.214   1.664  -2.032  0.00  0.00    +0.028 A 
ATOM     27  C   UNL     1      -2.953   2.273  -3.029  0.00  0.00    +0.005 A 
ATOM     28  C   UNL     1      -2.642   3.558  -3.433  0.00  0.00    -0.050 A 
ATOM     29  C   UNL     1      -1.594   4.235  -2.838  0.00  0.00    +0.005 A 
ATOM     30  C   UNL     1      -0.859   3.628  -1.837  0.00  0.00    +0.028 A 
ATOM     31  C   UNL     1      -3.444   4.220  -4.524  0.00  0.00    +0.044 C 
ENDBRANCH  22  25
ENDBRANCH   3  22
TORSDOF 5
