REMARK  Name = ZINC02532980
REMARK  9 active torsions:
REMARK  status: ('A' for Active; 'I' for Inactive)
REMARK    1  A    between atoms: C_1  and  C_2
REMARK    2  A    between atoms: C_9  and  N_28
REMARK    3  A    between atoms: C_10  and  C_13
REMARK    4  A    between atoms: N_17  and  C_21
REMARK    5  A    between atoms: C_21  and  C_22
REMARK    6  A    between atoms: N_28  and  C_29
REMARK    7  A    between atoms: C_29  and  C_30
REMARK    8  A    between atoms: C_33  and  O_36
REMARK    9  A    between atoms: O_36  and  C_37
REMARK                            x       y       z     vdW  Elec       q    Type
REMARK                         _______ _______ _______ _____ _____    ______ ____
ROOT
ATOM      1  C   UNL     1      -9.542  -3.551   3.880  0.00  0.00    +0.047 C 
ATOM      2  C   UNL     1      -8.634  -2.626   3.110  0.00  0.00    -0.007 A 
ATOM      3  C   UNL     1      -8.868  -2.376   1.791  0.00  0.00    +0.008 A 
ATOM      4  C   UNL     1      -8.016  -1.513   1.089  0.00  0.00    +0.019 A 
ATOM      5  C   UNL     1      -6.969  -0.934   1.719  0.00  0.00    +0.096 A 
ATOM      6  N   UNL     1      -6.726  -1.178   3.038  0.00  0.00    -0.267 N 
ATOM      7  C   UNL     1      -7.540  -2.015   3.749  0.00  0.00    +0.145 A 
ATOM      8  N   UNL     1      -7.319  -2.266   5.040  0.00  0.00    -0.214 NA
ATOM      9  C   UNL     1      -6.304  -1.718   5.691  0.00  0.00    +0.134 A 
ATOM     10  C   UNL     1      -5.427  -0.843   5.006  0.00  0.00    +0.081 A 
ATOM     11  C   UNL     1      -5.675  -0.579   3.638  0.00  0.00    +0.267 A 
ATOM     12  O   UNL     1      -4.948   0.172   3.010  0.00  0.00    -0.267 OA
ENDROOT
BRANCH  10  13
ATOM     13  C   UNL     1      -4.335  -0.241   5.675  0.00  0.00    +0.037 C 
ATOM     14  C   UNL     1      -3.057  -0.571   5.326  0.00  0.00    +0.077 C 
ATOM     15  C   UNL     1      -2.594  -1.550   4.402  0.00  0.00    +0.258 C 
ATOM     16  O   UNL     1      -3.378  -2.248   3.783  0.00  0.00    -0.269 OA
ATOM     17  N   UNL     1      -1.289  -1.685   4.239  0.00  0.00    -0.253 N 
ATOM     18  C   UNL     1      -0.420  -0.907   4.922  0.00  0.00    +0.121 C 
ATOM     19  S   UNL     1       1.291  -0.903   4.864  0.00  0.00    -0.027 S 
ATOM     20  S   UNL     1      -1.510   0.116   5.901  0.00  0.00    -0.061 S 
BRANCH  17  21
ATOM     21  C   UNL     1      -0.778  -2.687   3.300  0.00  0.00    +0.146 C 
BRANCH  21  22
ATOM     22  C   UNL     1      -0.563  -4.011   4.035  0.00  0.00    +0.136 C 
ATOM     23  C   UNL     1      -0.024  -5.084   3.063  0.00  0.00    +0.035 C 
ATOM     24  C   UNL     1       0.981  -5.892   3.915  0.00  0.00    +0.031 C 
ATOM     25  C   UNL     1       0.930  -5.211   5.301  0.00  0.00    +0.160 C 
ATOM     26  O   UNL     1       0.470  -3.868   5.039  0.00  0.00    -0.375 OA
ENDBRANCH  21  22
ENDBRANCH  17  21
ENDBRANCH  10  13
BRANCH   9  27
ATOM     27  N   UNL     1      -6.103  -1.997   7.025  0.00  0.00    -0.324 N 
ATOM     28  H   UNL     1      -5.359  -1.593   7.498  0.00  0.00    +0.148 HD
BRANCH  27  29
ATOM     29  C   UNL     1      -7.013  -2.904   7.728  0.00  0.00    +0.138 C 
BRANCH  29  30
ATOM     30  C   UNL     1      -6.576  -3.040   9.164  0.00  0.00    -0.030 A 
ATOM     31  C   UNL     1      -5.686  -4.035   9.524  0.00  0.00    +0.009 A 
ATOM     32  C   UNL     1      -5.280  -4.158  10.838  0.00  0.00    +0.046 A 
ATOM     33  C   UNL     1      -5.774  -3.289  11.800  0.00  0.00    +0.120 A 
ATOM     34  C   UNL     1      -6.672  -2.295  11.438  0.00  0.00    +0.046 A 
ATOM     35  C   UNL     1      -7.071  -2.173  10.121  0.00  0.00    +0.009 A 
BRANCH  33  36
ATOM     36  O   UNL     1      -5.380  -3.412  13.095  0.00  0.00    -0.495 OA
ATOM     37  C   UNL     1      -4.455  -4.458  13.395  0.00  0.00    +0.277 C 
ENDBRANCH  33  36
ENDBRANCH  29  30
ENDBRANCH  27  29
ENDBRANCH   9  27
TORSDOF 7
