REMARK  Name = ZINC13728642
REMARK  7 active torsions:
REMARK  status: ('A' for Active; 'I' for Inactive)
REMARK    1  A    between atoms: C_4  and  C_7
REMARK    2  A    between atoms: C_7  and  O_8
REMARK    3  A    between atoms: O_8  and  C_9
REMARK    4  A    between atoms: C_14  and  C_15
REMARK    5  A    between atoms: C_15  and  N_16
REMARK    6  A    between atoms: N_16  and  C_17
REMARK    7  A    between atoms: C_26  and  O_29
REMARK                            x       y       z     vdW  Elec       q    Type
REMARK                         _______ _______ _______ _____ _____    ______ ____
ROOT
ATOM      1  C   UNL     1      -2.553   3.879   0.046  0.00  0.00    -0.042 C 
ENDROOT
BRANCH   1   7
ATOM      2  C   UNL     1      -1.223   1.754   0.017  0.00  0.00    +0.122 A 
ATOM      3  C   UNL     1      -0.013   1.076   0.008  0.00  0.00    +0.047 A 
ATOM      4  C   UNL     1       1.174   1.783   0.000  0.00  0.00    +0.023 A 
ATOM      5  C   UNL     1       1.156   3.167   0.008  0.00  0.00    +0.041 A 
ATOM      6  C   UNL     1      -0.051   3.844   0.022  0.00  0.00    +0.025 A 
ATOM      7  C   UNL     1      -1.239   3.140   0.030  0.00  0.00    -0.021 A 
ATOM      8 CL   UNL     1       2.648   4.053  -0.002  0.00  0.00    -0.084 Cl
BRANCH   2   9
ATOM      9  O   UNL     1      -2.392   1.059   0.019  0.00  0.00    -0.487 OA
BRANCH   9  10
ATOM     10  C   UNL     1      -2.299  -0.367   0.011  0.00  0.00    +0.264 C 
BRANCH  10  14
ATOM     11  C   UNL     1      -6.226  -2.049   0.020  0.00  0.00    +0.000 A 
ATOM     12  C   UNL     1      -5.596  -1.770  -1.178  0.00  0.00    +0.000 A 
ATOM     13  C   UNL     1      -4.325  -1.226  -1.181  0.00  0.00    +0.007 A 
ATOM     14  C   UNL     1      -3.684  -0.960   0.014  0.00  0.00    -0.010 A 
ATOM     15  C   UNL     1      -4.312  -1.244   1.213  0.00  0.00    +0.007 A 
ATOM     16  C   UNL     1      -5.585  -1.783   1.216  0.00  0.00    +0.000 A 
ENDBRANCH  10  14
ENDBRANCH   9  10
ENDBRANCH   2   9
ENDBRANCH   1   7
BRANCH   1  17
ATOM     17  N   UNL     1      -3.084   3.902   1.416  0.00  0.00    +0.386 N 
ATOM     18  H   UNL     1      -3.239   2.872   1.767  0.00  0.00    -0.085 HD
ATOM     19  H   UNL     1      -2.369   4.412   2.078  0.00  0.00    -0.085 HD
BRANCH  17  20
ATOM     20  C   UNL     1      -4.367   4.616   1.470  0.00  0.00    -0.065 C 
ATOM     21  C   UNL     1      -4.170   6.057   0.996  0.00  0.00    -0.009 C 
ATOM     22  C   UNL     1      -5.506   6.800   1.053  0.00  0.00    -0.009 C 
ATOM     23  C   UNL     1      -6.519   6.099   0.146  0.00  0.00    +0.007 C 
ATOM     24  C   UNL     1      -6.716   4.658   0.620  0.00  0.00    -0.009 C 
ATOM     25  C   UNL     1      -5.380   3.915   0.563  0.00  0.00    -0.009 C 
ATOM     26  C   UNL     1      -7.237   4.661   2.059  0.00  0.00    +0.038 C 
ATOM     27  C   UNL     1      -6.224   5.363   2.966  0.00  0.00    +0.065 C 
ATOM     28  C   UNL     1      -6.027   6.804   2.491  0.00  0.00    +0.038 C 
ATOM     29  C   UNL     1      -4.888   4.620   2.909  0.00  0.00    +0.022 C 
BRANCH  27  30
ATOM     30  O   UNL     1      -6.710   5.366   4.310  0.00  0.00    -0.389 OA
ATOM     31  H   UNL     1      -6.114   5.830   5.109  0.00  0.00    +0.210 HD
ENDBRANCH  27  30
ENDBRANCH  17  20
ENDBRANCH   1  17
TORSDOF 7
