REMARK  Name = ZINC27671620
REMARK  11 active torsions:
REMARK  status: ('A' for Active; 'I' for Inactive)
REMARK    1  A    between atoms: C_1  and  C_2
REMARK    2  A    between atoms: C_2  and  O_3
REMARK    3  A    between atoms: O_3  and  C_4
REMARK    4  A    between atoms: C_4  and  C_6
REMARK    5  A    between atoms: C_7  and  C_22
REMARK    6  A    between atoms: C_12  and  C_14
REMARK    7  A    between atoms: C_17  and  O_20
REMARK    8  A    between atoms: O_20  and  C_21
REMARK    9  A    between atoms: C_22  and  S_23
REMARK   10  A    between atoms: S_23  and  C_24
REMARK   11  A    between atoms: C_27  and  C_30
REMARK                            x       y       z     vdW  Elec       q    Type
REMARK                         _______ _______ _______ _____ _____    ______ ____
ROOT
ATOM      1  C   UNL     1      -1.021   8.335   1.212  0.00  0.00    +0.079 C 
ATOM      2  C   UNL     1      -0.723   7.779   0.017  0.00  0.00    +0.034 C 
ATOM      3  N   UNL     1      -1.192   8.316  -1.147  0.00  0.00    -0.272 N 
ATOM      4  C   UNL     1      -1.973   9.402  -1.202  0.00  0.00    +0.304 C 
ATOM      5  O   UNL     1      -2.346   9.804  -2.287  0.00  0.00    -0.252 OA
ATOM      6  N   UNL     1      -2.356  10.068  -0.094  0.00  0.00    -0.288 N 
ATOM      7  C   UNL     1      -1.898   9.571   1.215  0.00  0.00    +0.144 C 
ATOM      8  H   UNL     1      -0.930   7.854  -2.111  0.00  0.00    +0.156 HD
ATOM      9  H   UNL     1      -2.994  10.961  -0.150  0.00  0.00    +0.151 HD
ENDROOT
BRANCH   7  10
ATOM     10  C   UNL     1      -3.116   9.274   2.050  0.00  0.00    -0.022 A 
ATOM     11  C   UNL     1      -4.166   8.555   1.509  0.00  0.00    +0.009 A 
ATOM     12  C   UNL     1      -5.282   8.277   2.275  0.00  0.00    +0.046 A 
ATOM     13  C   UNL     1      -5.353   8.729   3.584  0.00  0.00    +0.120 A 
ATOM     14  C   UNL     1      -4.301   9.455   4.123  0.00  0.00    +0.046 A 
ATOM     15  C   UNL     1      -3.185   9.726   3.355  0.00  0.00    +0.009 A 
BRANCH  13  16
ATOM     16  O   UNL     1      -6.452   8.462   4.338  0.00  0.00    -0.495 OA
ATOM     17  C   UNL     1      -7.497   7.710   3.717  0.00  0.00    +0.277 C 
ENDBRANCH  13  16
ENDBRANCH   7  10
BRANCH   1  18
ATOM     18  C   UNL     1      -0.532   7.782   2.418  0.00  0.00    +0.339 C 
ATOM     19  O   UNL     1       0.048   6.712   2.406  0.00  0.00    -0.245 OA
BRANCH  18  20
ATOM     20  O   UNL     1      -0.708   8.441   3.583  0.00  0.00    -0.462 OA
BRANCH  20  22
ATOM     21  C   UNL     1      -0.482   8.712   5.973  0.00  0.00    +0.048 C 
ATOM     22  C   UNL     1      -0.189   7.824   4.762  0.00  0.00    +0.229 C 
ENDBRANCH  20  22
ENDBRANCH  18  20
ENDBRANCH   1  18
BRANCH   2  23
ATOM     23  C   UNL     1       0.147   6.549  -0.031  0.00  0.00    +0.128 C 
BRANCH  23  24
ATOM     24  S   UNL     1      -0.895   5.081  -0.222  0.00  0.00    -0.081 S 
BRANCH  24  25
ATOM     25  C   UNL     1       0.344   3.828  -0.248  0.00  0.00    +0.185 A 
ATOM     26  N   UNL     1       0.135   2.485  -0.381  0.00  0.00    -0.201 NA
ATOM     27  H   UNL     1       2.215   4.944  -0.028  0.00  0.00    +0.191 HD
ATOM     28  C   UNL     1       1.384   1.910  -0.345  0.00  0.00    +0.182 A 
ATOM     29  N   UNL     1       2.253   2.883  -0.198  0.00  0.00    -0.152 NA
ATOM     30  N   UNL     1       1.641   4.012  -0.145  0.00  0.00    -0.253 N 
BRANCH  28  31
ATOM     31  C   UNL     1       1.691   0.468  -0.451  0.00  0.00    +0.021 A 
ATOM     32  C   UNL     1       0.657  -0.460  -0.589  0.00  0.00    +0.013 A 
ATOM     33  C   UNL     1       0.950  -1.804  -0.693  0.00  0.00    +0.021 A 
ATOM     34  C   UNL     1       2.265  -2.234  -0.650  0.00  0.00    +0.041 A 
ATOM     35  C   UNL     1       3.295  -1.319  -0.508  0.00  0.00    +0.021 A 
ATOM     36  C   UNL     1       3.015   0.028  -0.408  0.00  0.00    +0.013 A 
ATOM     37 CL   UNL     1       2.626  -3.928  -0.774  0.00  0.00    -0.084 Cl
ENDBRANCH  28  31
ENDBRANCH  24  25
ENDBRANCH  23  24
ENDBRANCH   2  23
TORSDOF 9
