REMARK  Name = ZINC10535963
REMARK  7 active torsions:
REMARK  status: ('A' for Active; 'I' for Inactive)
REMARK    1  A    between atoms: C_1  and  C_2
REMARK    2  A    between atoms: C_2  and  C_4
REMARK    3  A    between atoms: C_2  and  S_19
REMARK    4  A    between atoms: N_6  and  C_7
REMARK    5  A    between atoms: C_8  and  C_17
REMARK    6  A    between atoms: S_19  and  C_20
REMARK    7  A    between atoms: C_23  and  C_26
REMARK                            x       y       z     vdW  Elec       q    Type
REMARK                         _______ _______ _______ _____ _____    ______ ____
ROOT
ATOM      1  C   UNL     1      -5.571   3.786   5.442  0.00  0.00    +0.231 C 
ATOM      2  O   UNL     1      -5.120   4.386   6.394  0.00  0.00    -0.274 OA
ATOM      3  N   UNL     1      -6.873   3.442   5.418  0.00  0.00    -0.278 N 
ATOM      4  H   UNL     1      -7.234   2.962   4.656  0.00  0.00    +0.155 HD
ENDROOT
BRANCH   3   5
ATOM      5  C   UNL     1      -7.699   3.774   6.483  0.00  0.00    +0.090 A 
ATOM      6  C   UNL     1      -9.049   3.510   6.640  0.00  0.00    +0.084 A 
ATOM      7  C   UNL     1      -9.692   3.966   7.865  0.00  0.00    -0.018 A 
ATOM      8  C   UNL     1      -8.880   4.620   8.724  0.00  0.00    -0.004 A 
ATOM      9  S   UNL     1      -7.289   4.612   7.941  0.00  0.00    -0.077 S 
ATOM     10  C   UNL     1      -9.238   5.220  10.047  0.00  0.00    +0.043 C 
ATOM     11  C   UNL     1     -10.023   4.190  10.872  0.00  0.00    +0.005 C 
ATOM     12  C   UNL     1     -11.507   4.350  10.561  0.00  0.00    +0.001 C 
ATOM     13  C   UNL     1     -11.696   4.782   9.108  0.00  0.00    +0.005 C 
ATOM     14  C   UNL     1     -11.165   3.712   8.160  0.00  0.00    +0.037 C 
BRANCH   6  15
ATOM     15  C   UNL     1      -9.789   2.810   5.633  0.00  0.00    +0.102 C 
ATOM     16  N   UNL     1     -10.376   2.255   4.834  0.00  0.00    -0.191 NA
ENDBRANCH   6  15
ENDBRANCH   3   5
BRANCH   1  18
ATOM     17  C   UNL     1      -4.787   4.498   3.199  0.00  0.00    +0.029 C 
ATOM     18  C   UNL     1      -4.674   3.426   4.285  0.00  0.00    +0.136 C 
BRANCH  18  19
ATOM     19  S   UNL     1      -2.957   3.325   4.860  0.00  0.00    -0.093 S 
BRANCH  19  20
ATOM     20  C   UNL     1      -2.067   2.758   3.448  0.00  0.00    +0.098 A 
ATOM     21  C   UNL     1      -0.692   2.563   3.532  0.00  0.00    +0.035 A 
ATOM     22  C   UNL     1      -0.007   2.118   2.416  0.00  0.00    +0.016 A 
ATOM     23  C   UNL     1      -0.722   1.881   1.250  0.00  0.00    +0.073 A 
ATOM     24  C   UNL     1      -2.085   2.100   1.236  0.00  0.00    +0.124 A 
ATOM     25  N   UNL     1      -2.714   2.521   2.317  0.00  0.00    -0.248 NA
BRANCH  23  26
ATOM     26  C   UNL     1      -0.017   1.395   0.010  0.00  0.00    +0.419 C 
ATOM     27  F   UNL     1       0.002  -0.004   0.002  0.00  0.00    -0.166 F 
ATOM     28  F   UNL     1       1.296   1.879  -0.000  0.00  0.00    -0.166 F 
ATOM     29  F   UNL     1      -0.694   1.858  -1.124  0.00  0.00    -0.166 F 
ENDBRANCH  23  26
ENDBRANCH  19  20
ENDBRANCH  18  19
ENDBRANCH   1  18
TORSDOF 6
