REMARK  Name = ZINC28848044
REMARK  4 active torsions:
REMARK  status: ('A' for Active; 'I' for Inactive)
REMARK    1  A    between atoms: C_12  and  C_14
REMARK    2  A    between atoms: N_16  and  N_17
REMARK    3  A    between atoms: C_20  and  C_25
REMARK    4  A    between atoms: C_25  and  C_26
REMARK                            x       y       z     vdW  Elec       q    Type
REMARK                         _______ _______ _______ _____ _____    ______ ____
ROOT
ATOM      1  N   UNL     1       6.617  -3.462  -0.492  0.00  0.00    -0.137 N 
ATOM      2  C   UNL     1       6.871  -4.398   0.444  0.00  0.00    +0.260 C 
ATOM      3  O   UNL     1       6.267  -4.581   1.479  0.00  0.00    -0.272 OA
ATOM      4  C   UNL     1       8.069  -5.173  -0.067  0.00  0.00    +0.167 C 
ATOM      5  N   UNL     1       8.381  -4.522  -1.351  0.00  0.00    -0.286 N 
ATOM      6  C   UNL     1       7.476  -3.540  -1.514  0.00  0.00    +0.326 C 
ATOM      7  O   UNL     1       7.446  -2.804  -2.481  0.00  0.00    -0.251 OA
ATOM      8  H   UNL     1       9.226  -4.880  -1.958  0.00  0.00    +0.151 HD
ENDROOT
BRANCH   1  11
ATOM      9  C   UNL     1       5.850  -1.242  -0.102  0.00  0.00    +0.267 C 
ATOM     10  O   UNL     1       6.999  -0.895   0.101  0.00  0.00    -0.268 OA
ATOM     11  N   UNL     1       5.578  -2.526  -0.407  0.00  0.00    -0.219 N 
ATOM     12  H   UNL     1       4.539  -2.839  -0.591  0.00  0.00    +0.174 HD
BRANCH   9  24
ATOM     13  C   UNL     1      -1.231   3.137   0.031  0.00  0.00    +0.000 A 
ATOM     14  C   UNL     1      -1.216   1.753   0.017  0.00  0.00    +0.001 A 
ATOM     15  C   UNL     1      -0.013   1.076   0.008  0.00  0.00    +0.009 A 
ATOM     16  C   UNL     1       1.179   1.789   0.000  0.00  0.00    -0.008 A 
ATOM     17  C   UNL     1       1.163   3.194  -0.025  0.00  0.00    -0.039 A 
ATOM     18  C   UNL     1      -0.048   3.853   0.007  0.00  0.00    +0.004 A 
ATOM     19  C   UNL     1       2.450   3.960  -0.134  0.00  0.00    +0.040 C 
ATOM     20  C   UNL     1       3.596   3.322   0.642  0.00  0.00    +0.041 C 
ATOM     21  C   UNL     1       3.679   1.836   0.317  0.00  0.00    -0.032 A 
ATOM     22  C   UNL     1       2.493   1.155   0.029  0.00  0.00    +0.023 A 
ATOM     23  S   UNL     1       3.009  -0.507  -0.262  0.00  0.00    -0.083 S 
ATOM     24  C   UNL     1       4.763  -0.263  -0.013  0.00  0.00    +0.076 A 
ATOM     25  C   UNL     1       4.831   1.090   0.284  0.00  0.00    +0.025 A 
ENDBRANCH   9  24
ENDBRANCH   1  11
BRANCH   4  26
ATOM     26  C   UNL     1       7.707  -6.644  -0.282  0.00  0.00    +0.069 C 
BRANCH  26  27
ATOM     27  C   UNL     1       8.943  -7.414  -0.670  0.00  0.00    -0.020 A 
ATOM     28  C   UNL     1       9.347  -7.699  -1.919  0.00  0.00    +0.087 A 
ATOM     29  N   UNL     1      10.514  -8.413  -1.880  0.00  0.00    -0.360 N 
ATOM     30  H   UNL     1      10.992  -8.735  -2.816  0.00  0.00    +0.165 HD
ATOM     31  C   UNL     1      10.899  -8.609  -0.573  0.00  0.00    +0.047 A 
ATOM     32  C   UNL     1       9.935  -7.987   0.242  0.00  0.00    +0.003 A 
ATOM     33  C   UNL     1      10.065  -8.030   1.631  0.00  0.00    +0.010 A 
ATOM     34  C   UNL     1      11.135  -8.669   2.193  0.00  0.00    +0.001 A 
ATOM     35  C   UNL     1      12.091  -9.279   1.394  0.00  0.00    +0.002 A 
ATOM     36  C   UNL     1      11.980  -9.253   0.021  0.00  0.00    +0.026 A 
ENDBRANCH  26  27
ENDBRANCH   4  26
TORSDOF 4
