REMARK  Name = ZINC37443823
REMARK  10 active torsions:
REMARK  status: ('A' for Active; 'I' for Inactive)
REMARK    1  A    between atoms: C_1  and  C_2
REMARK    2  A    between atoms: C_5  and  C_37
REMARK    3  A    between atoms: N_8  and  C_10
REMARK    4  A    between atoms: C_10  and  C_11
REMARK    5  A    between atoms: C_11  and  C_12
REMARK    6  A    between atoms: C_12  and  N_13
REMARK    7  A    between atoms: C_14  and  C_16
REMARK    8  A    between atoms: C_16  and  C_36
REMARK    9  A    between atoms: N_29  and  C_30
REMARK   10  A    between atoms: C_30  and  C_31
REMARK                            x       y       z     vdW  Elec       q    Type
REMARK                         _______ _______ _______ _____ _____    ______ ____
ROOT
ATOM      1  C   UNL     1       1.974   0.769   8.260  0.00  0.00    +0.129 C 
ATOM      2  C   UNL     1       2.425   0.117   9.566  0.00  0.00    +0.157 C 
ATOM      3  N   UNL     1       1.608  -1.075   9.821  0.00  0.00    -0.334 N 
ATOM      4  C   UNL     1       1.913  -2.221  10.474  0.00  0.00    +0.050 A 
ATOM      5  C   UNL     1       3.081  -2.662  11.098  0.00  0.00    +0.026 A 
ATOM      6  C   UNL     1       3.047  -3.914  11.684  0.00  0.00    +0.002 A 
ATOM      7  C   UNL     1       1.913  -4.711  11.664  0.00  0.00    +0.001 A 
ATOM      8  C   UNL     1       0.750  -4.308  11.059  0.00  0.00    +0.010 A 
ATOM      9  C   UNL     1       0.753  -3.043  10.454  0.00  0.00    +0.001 A 
ATOM     10  C   UNL     1      -0.245  -2.337   9.758  0.00  0.00    +0.041 A 
ATOM     11  C   UNL     1       0.286  -1.157   9.376  0.00  0.00    +0.106 A 
ATOM     12  C   UNL     1      -0.316  -0.057   8.601  0.00  0.00    +0.264 C 
ATOM     13  O   UNL     1      -1.507  -0.026   8.354  0.00  0.00    -0.268 OA
ATOM     14  N   UNL     1       0.525   0.915   8.179  0.00  0.00    -0.276 N 
ATOM     15  C   UNL     1       2.617   2.153   8.152  0.00  0.00    +0.043 C 
ENDROOT
BRANCH   1  17
ATOM     16  N   UNL     1       1.665  -1.077   6.642  0.00  0.00    -0.314 N 
ATOM     17  C   UNL     1       2.443  -0.078   7.105  0.00  0.00    +0.238 C 
ATOM     18  O   UNL     1       3.521   0.139   6.593  0.00  0.00    -0.273 OA
ATOM     19  H   UNL     1       0.837  -1.296   7.096  0.00  0.00    +0.149 HD
BRANCH  16  20
ATOM     20  C   UNL     1       2.072  -1.830   5.453  0.00  0.00    +0.102 C 
BRANCH  20  21
ATOM     21  C   UNL     1       1.021  -2.898   5.142  0.00  0.00    +0.000 C 
BRANCH  21  22
ATOM     22  C   UNL     1       1.445  -3.685   3.901  0.00  0.00    -0.077 C 
BRANCH  22  28
ATOM     23  C   UNL     1      -2.057  -5.997   4.338  0.00  0.00    +0.005 C 
ATOM     24  C   UNL     1      -0.708  -6.713   4.430  0.00  0.00    -0.031 C 
ATOM     25  C   UNL     1      -0.420  -7.433   3.110  0.00  0.00    +0.003 C 
ATOM     26  C   UNL     1      -0.307  -6.397   1.988  0.00  0.00    -0.031 C 
ATOM     27  C   UNL     1       0.783  -5.384   2.345  0.00  0.00    -0.076 C 
ATOM     28  N   UNL     1       0.437  -4.710   3.602  0.00  0.00    +0.380 N 
ATOM     29  C   UNL     1       0.397  -5.688   4.698  0.00  0.00    -0.076 C 
ATOM     30  C   UNL     1       0.057  -7.100   0.678  0.00  0.00    +0.005 C 
ATOM     31  H   UNL     1      -0.468  -4.273   3.510  0.00  0.00    -0.082 HD
ENDBRANCH  22  28
ENDBRANCH  21  22
ENDBRANCH  20  21
ENDBRANCH  16  20
ENDBRANCH   1  17
BRANCH  14  32
ATOM     32  C   UNL     1      -0.036   2.150   7.625  0.00  0.00    +0.151 C 
BRANCH  32  33
ATOM     33  C   UNL     1      -0.092   2.047   6.123  0.00  0.00    +0.007 A 
ATOM     34  C   UNL     1      -1.049   1.490   5.341  0.00  0.00    +0.013 A 
ATOM     35  C   UNL     1      -0.889   1.511   3.968  0.00  0.00    +0.008 A 
ATOM     36  C   UNL     1       0.220   2.088   3.444  0.00  0.00    +0.045 A 
ATOM     37  S   UNL     1       1.080   2.633   4.911  0.00  0.00    -0.100 S 
ENDBRANCH  32  33
ENDBRANCH  14  32
TORSDOF 7
