REMARK  Name = ZINC35746235
REMARK  12 active torsions:
REMARK  status: ('A' for Active; 'I' for Inactive)
REMARK    1  A    between atoms: C_1  and  C_2
REMARK    2  A    between atoms: C_2  and  C_3
REMARK    3  A    between atoms: C_2  and  C_4
REMARK    4  A    between atoms: C_4  and  C_6
REMARK    5  A    between atoms: C_4  and  O_34
REMARK    6  A    between atoms: C_6  and  N_7
REMARK    7  A    between atoms: N_7  and  C_8
REMARK    8  A    between atoms: N_7  and  C_28
REMARK    9  A    between atoms: C_8  and  C_9
REMARK   10  A    between atoms: C_15  and  C_20
REMARK   11  A    between atoms: C_24  and  O_26
REMARK   12  A    between atoms: O_26  and  C_27
REMARK                            x       y       z     vdW  Elec       q    Type
REMARK                         _______ _______ _______ _____ _____    ______ ____
ROOT
ATOM      1  C   UNL     1      -4.240  -4.519  -0.153  0.00  0.00    +0.094 A 
ATOM      2  N   UNL     1      -4.506  -5.850  -0.143  0.00  0.00    -0.312 N 
ATOM      3  H   UNL     1      -3.781  -6.478   0.002  0.00  0.00    +0.170 HD
ATOM      4  C   UNL     1      -5.755  -6.315  -0.329  0.00  0.00    +0.260 A 
ATOM      5  O   UNL     1      -5.977  -7.514  -0.317  0.00  0.00    -0.267 OA
ATOM      6  C   UNL     1      -6.819  -5.381  -0.542  0.00  0.00    +0.080 A 
ATOM      7  C   UNL     1      -8.237  -5.633  -0.764  0.00  0.00    +0.004 A 
ATOM      8  C   UNL     1      -9.067  -4.577  -0.942  0.00  0.00    +0.056 A 
ATOM      9  S   UNL     1      -7.977  -3.172  -0.820  0.00  0.00    -0.076 S 
ATOM     10  C   UNL     1      -6.449  -4.026  -0.535  0.00  0.00    +0.116 A 
ATOM     11  N   UNL     1      -5.190  -3.642  -0.339  0.00  0.00    -0.229 NA
ENDROOT
BRANCH   7  12
ATOM     12  C   UNL     1      -8.762  -7.019  -0.795  0.00  0.00    -0.013 A 
ATOM     13  C   UNL     1      -8.143  -7.984  -1.589  0.00  0.00    +0.009 A 
ATOM     14  C   UNL     1      -8.634  -9.274  -1.615  0.00  0.00    +0.004 A 
ATOM     15  C   UNL     1      -9.739  -9.613  -0.857  0.00  0.00    +0.045 A 
ATOM     16  C   UNL     1     -10.362  -8.659  -0.065  0.00  0.00    +0.121 A 
ATOM     17  C   UNL     1      -9.873  -7.363  -0.027  0.00  0.00    +0.054 A 
BRANCH  16  18
ATOM     18  O   UNL     1     -11.448  -8.997   0.679  0.00  0.00    -0.495 OA
ATOM     19  C   UNL     1     -11.895 -10.352   0.596  0.00  0.00    +0.277 C 
ENDBRANCH  16  18
ENDBRANCH   7  12
BRANCH   1  20
ATOM     20  C   UNL     1      -2.826  -4.044   0.061  0.00  0.00    -0.003 C 
BRANCH  20  21
ATOM     21  N   UNL     1      -2.815  -2.581   0.194  0.00  0.00    +0.388 N 
ATOM     22  H   UNL     1      -3.478  -2.180  -0.453  0.00  0.00    -0.081 HD
BRANCH  21  23
ATOM     23  C   UNL     1      -3.185  -2.212   1.567  0.00  0.00    -0.068 C 
ATOM     24  C   UNL     1      -2.210  -2.862   2.550  0.00  0.00    -0.015 C 
ATOM     25  C   UNL     1      -2.595  -2.477   3.980  0.00  0.00    -0.002 C 
ATOM     26  C   UNL     1      -4.015  -2.963   4.274  0.00  0.00    -0.000 C 
ATOM     27  C   UNL     1      -4.990  -2.312   3.290  0.00  0.00    -0.002 C 
ATOM     28  C   UNL     1      -4.606  -2.697   1.861  0.00  0.00    -0.015 C 
ENDBRANCH  21  23
BRANCH  21  29
ATOM     29  C   UNL     1      -1.470  -2.072  -0.105  0.00  0.00    -0.046 C 
BRANCH  29  30
ATOM     30  C   UNL     1      -1.492  -0.542  -0.106  0.00  0.00    +0.101 C 
BRANCH  30  32
ATOM     31  C   UNL     1      -0.097   1.518  -0.333  0.00  0.00    +0.010 C 
ATOM     32  C   UNL     1      -0.075  -0.012  -0.332  0.00  0.00    +0.010 C 
ATOM     33  C   UNL     1       0.840  -0.508   0.789  0.00  0.00    +0.010 C 
ENDBRANCH  30  32
BRANCH  30  34
ATOM     34  O   UNL     1      -2.347  -0.079  -1.153  0.00  0.00    -0.393 OA
ATOM     35  H   UNL     1      -2.075  -0.360  -2.037  0.00  0.00    +0.210 HD
ENDBRANCH  30  34
ENDBRANCH  29  30
ENDBRANCH  21  29
ENDBRANCH  20  21
ENDBRANCH   1  20
TORSDOF 9
