REMARK  Name = ZINC04073156
REMARK  4 active torsions:
REMARK  status: ('A' for Active; 'I' for Inactive)
REMARK    1  A    between atoms: C_7  and  C_11
REMARK    2  A    between atoms: C_11  and  C_12
REMARK    3  A    between atoms: C_12  and  N_13
REMARK    4  A    between atoms: N_13  and  C_14
REMARK                            x       y       z     vdW  Elec       q    Type
REMARK                         _______ _______ _______ _____ _____    ______ ____
ROOT
ATOM      1  C   UNL     1      -1.292  -5.187  -2.599  0.00  0.00    +0.046 A 
ATOM      2  C   UNL     1      -1.240  -4.442  -3.794  0.00  0.00    +0.020 A 
ATOM      3  C   UNL     1      -0.557  -3.216  -3.852  0.00  0.00    +0.012 A 
ATOM      4  C   UNL     1      -0.523  -2.517  -5.019  0.00  0.00    +0.001 A 
ATOM      5  C   UNL     1      -1.158  -3.003  -6.162  0.00  0.00    +0.002 A 
ATOM      6  C   UNL     1      -1.829  -4.185  -6.144  0.00  0.00    +0.026 A 
ATOM      7  C   UNL     1      -1.888  -4.941  -4.955  0.00  0.00    +0.049 A 
ATOM      8  N   UNL     1      -2.542  -6.101  -4.925  0.00  0.00    -0.354 N 
ATOM      9  C   UNL     1      -2.617  -6.838  -3.818  0.00  0.00    +0.049 A 
ATOM     10  C   UNL     1      -1.990  -6.410  -2.618  0.00  0.00    +0.020 A 
ATOM     11  C   UNL     1      -2.079  -7.209  -1.465  0.00  0.00    +0.012 A 
ATOM     12  C   UNL     1      -2.760  -8.386  -1.511  0.00  0.00    +0.001 A 
ATOM     13  C   UNL     1      -3.372  -8.812  -2.689  0.00  0.00    +0.002 A 
ATOM     14  C   UNL     1      -3.317  -8.062  -3.821  0.00  0.00    +0.026 A 
ATOM     15  H   UNL     1      -2.975  -6.418  -5.733  0.00  0.00    +0.166 HD
ENDROOT
BRANCH   1  16
ATOM     16  N   UNL     1      -0.675  -4.736  -1.452  0.00  0.00    -0.343 N 
ATOM     17  H   UNL     1       0.262  -4.932  -1.297  0.00  0.00    +0.146 HD
BRANCH  16  18
ATOM     18  C   UNL     1      -1.435  -3.962  -0.467  0.00  0.00    +0.106 C 
BRANCH  18  19
ATOM     19  C   UNL     1      -1.566  -4.770   0.826  0.00  0.00    +0.056 C 
BRANCH  19  26
ATOM     20  C   UNL     1      -6.152  -4.229   1.632  0.00  0.00    +0.001 A 
ATOM     21  C   UNL     1      -6.417  -3.379   2.698  0.00  0.00    +0.002 A 
ATOM     22  C   UNL     1      -5.388  -2.791   3.400  0.00  0.00    +0.026 A 
ATOM     23  C   UNL     1      -4.069  -3.050   3.040  0.00  0.00    +0.047 A 
ATOM     24  C   UNL     1      -3.806  -3.911   1.960  0.00  0.00    +0.003 A 
ATOM     25  C   UNL     1      -4.864  -4.496   1.261  0.00  0.00    +0.010 A 
ATOM     26  C   UNL     1      -2.347  -3.974   1.839  0.00  0.00    -0.021 A 
ATOM     27  C   UNL     1      -1.839  -3.189   2.801  0.00  0.00    +0.087 A 
ATOM     28  N   UNL     1      -2.853  -2.628   3.529  0.00  0.00    -0.360 N 
ATOM     29  H   UNL     1      -2.733  -2.024   4.278  0.00  0.00    +0.165 HD
ENDBRANCH  19  26
ENDBRANCH  18  19
ENDBRANCH  16  18
ENDBRANCH   1  16
TORSDOF 4
