REMARK  Name = ZINC40825535
REMARK  9 active torsions:
REMARK  status: ('A' for Active; 'I' for Inactive)
REMARK    1  A    between atoms: C_1  and  C_2
REMARK    2  A    between atoms: C_2  and  C_3
REMARK    3  A    between atoms: C_2  and  C_4
REMARK    4  A    between atoms: C_4  and  C_6
REMARK    5  A    between atoms: C_4  and  N_21
REMARK    6  A    between atoms: C_6  and  N_7
REMARK    7  A    between atoms: C_8  and  C_10
REMARK    8  A    between atoms: N_21  and  C_22
REMARK    9  A    between atoms: N_21  and  C_23
REMARK                            x       y       z     vdW  Elec       q    Type
REMARK                         _______ _______ _______ _____ _____    ______ ____
ROOT
ATOM      1  N   UNL     1      -3.502  -0.322   1.292  0.00  0.00    -0.314 N 
ATOM      2  C   UNL     1      -4.385   0.189   2.172  0.00  0.00    +0.255 C 
ATOM      3  O   UNL     1      -4.066   1.122   2.879  0.00  0.00    -0.272 OA
ATOM      4  H   UNL     1      -3.756  -1.068   0.727  0.00  0.00    +0.149 HD
ENDROOT
BRANCH   2   5
ATOM      5  C   UNL     1      -5.769  -0.398   2.278  0.00  0.00    +0.275 C 
ATOM      6  C   UNL     1      -5.677  -1.840   2.799  0.00  0.00    +0.155 C 
ATOM      7  N   UNL     1      -7.051  -2.353   2.932  0.00  0.00    -0.337 N 
ATOM      8  C   UNL     1      -8.020  -1.492   3.472  0.00  0.00    +0.070 A 
ATOM      9  C   UNL     1      -9.243  -1.995   3.886  0.00  0.00    +0.026 A 
ATOM     10  C   UNL     1     -10.195  -1.142   4.413  0.00  0.00    +0.002 A 
ATOM     11  C   UNL     1      -9.928   0.210   4.527  0.00  0.00    +0.004 A 
ATOM     12  C   UNL     1      -8.709   0.716   4.117  0.00  0.00    +0.047 A 
ATOM     13  C   UNL     1      -7.747  -0.132   3.588  0.00  0.00    +0.142 A 
ATOM     14  O   UNL     1      -6.549   0.376   3.192  0.00  0.00    -0.476 OA
ATOM     15  H   UNL     1      -7.279  -3.255   2.656  0.00  0.00    +0.146 HD
ENDBRANCH   2   5
BRANCH   1  16
ATOM     16  C   UNL     1      -2.156   0.249   1.189  0.00  0.00    +0.089 C 
BRANCH  16  17
ATOM     17  C   UNL     1      -1.419  -0.393   0.012  0.00  0.00    -0.049 C 
BRANCH  17  18
ATOM     18  N   UNL     1      -1.477  -1.855   0.137  0.00  0.00    +0.379 N 
ATOM     19  C   UNL     1      -0.785  -2.472  -1.004  0.00  0.00    -0.096 C 
ATOM     20  C   UNL     1      -0.823  -2.266   1.386  0.00  0.00    -0.096 C 
ATOM     21  H   UNL     1      -2.440  -2.154   0.147  0.00  0.00    -0.082 HD
ENDBRANCH  17  18
BRANCH  17  23
ATOM     22  C   UNL     1      -3.530  -0.458  -1.322  0.00  0.00    +0.005 C 
ATOM     23  C   UNL     1      -2.082   0.034  -1.299  0.00  0.00    -0.029 C 
ATOM     24  C   UNL     1      -2.060   1.560  -1.409  0.00  0.00    +0.005 C 
ENDBRANCH  17  23
ENDBRANCH  16  17
ENDBRANCH   1  16
TORSDOF 5
