REMARK  Name = ZINC14729882
REMARK  12 active torsions:
REMARK  status: ('A' for Active; 'I' for Inactive)
REMARK    1  A    between atoms: C_1  and  C_2
REMARK    2  A    between atoms: C_4  and  C_32
REMARK    3  A    between atoms: C_9  and  N_23
REMARK    4  A    between atoms: N_10  and  C_11
REMARK    5  A    between atoms: C_11  and  C_13
REMARK    6  A    between atoms: C_13  and  S_14
REMARK    7  A    between atoms: S_14  and  C_15
REMARK    8  A    between atoms: C_17  and  C_22
REMARK    9  A    between atoms: C_19  and  C_21
REMARK   10  A    between atoms: N_23  and  C_24
REMARK   11  A    between atoms: C_24  and  C_25
REMARK   12  A    between atoms: C_25  and  C_26
REMARK                            x       y       z     vdW  Elec       q    Type
REMARK                         _______ _______ _______ _____ _____    ______ ____
ROOT
ATOM      1  C   UNL     1       0.784  -4.417   0.687  0.00  0.00    +0.066 C 
ATOM      2  C   UNL     1      -0.581  -4.047   1.207  0.00  0.00    +0.044 A 
ATOM      3  C   UNL     1      -1.723  -4.480   0.551  0.00  0.00    +0.046 A 
ATOM      4  C   UNL     1      -2.959  -4.117   1.063  0.00  0.00    +0.044 A 
ATOM      5  N   UNL     1      -3.011  -3.373   2.155  0.00  0.00    -0.217 NA
ATOM      6  C   UNL     1      -1.901  -2.977   2.758  0.00  0.00    +0.231 A 
ATOM      7  N   UNL     1      -0.705  -3.310   2.298  0.00  0.00    -0.217 NA
ATOM      8  N   UNL     1      -1.993  -2.196   3.903  0.00  0.00    -0.295 N 
ATOM      9  C   UNL     1      -0.864  -1.669   4.464  0.00  0.00    +0.218 C 
ATOM     10  N   UNL     1      -0.608  -1.868   5.750  0.00  0.00    -0.145 NA
ATOM     11  C   UNL     1      -4.227  -4.564   0.383  0.00  0.00    +0.066 C 
ATOM     12  H   UNL     1      -2.860  -2.026   4.305  0.00  0.00    +0.172 HD
ENDROOT
BRANCH  10  13
ATOM     13  C   UNL     1      -1.339  -2.734   6.449  0.00  0.00    +0.249 C 
ATOM     14  O   UNL     1      -2.238  -3.347   5.907  0.00  0.00    -0.273 OA
BRANCH  13  15
ATOM     15  C   UNL     1      -1.051  -2.955   7.912  0.00  0.00    +0.175 C 
BRANCH  15  16
ATOM     16  S   UNL     1      -2.208  -4.184   8.577  0.00  0.00    -0.077 S 
BRANCH  16  17
ATOM     17  C   UNL     1      -1.749  -4.328  10.271  0.00  0.00    +0.189 A 
ATOM     18  N   UNL     1      -0.748  -3.594  10.736  0.00  0.00    -0.227 NA
ATOM     19  C   UNL     1      -0.378  -3.678  12.003  0.00  0.00    +0.043 A 
ATOM     20  C   UNL     1      -1.051  -4.548  12.847  0.00  0.00    +0.046 A 
ATOM     21  C   UNL     1      -2.093  -5.301  12.329  0.00  0.00    +0.043 A 
ATOM     22  N   UNL     1      -2.416  -5.165  11.054  0.00  0.00    -0.227 NA
ATOM     23  C   UNL     1      -2.852  -6.260  13.210  0.00  0.00    +0.066 C 
ATOM     24  C   UNL     1       0.761  -2.839  12.522  0.00  0.00    +0.066 C 
ENDBRANCH  16  17
ENDBRANCH  15  16
ENDBRANCH  13  15
ENDBRANCH  10  13
BRANCH   9  25
ATOM     25  N   UNL     1      -0.002  -0.940   3.702  0.00  0.00    -0.252 NA
BRANCH  25  26
ATOM     26  C   UNL     1      -0.492  -0.231   2.518  0.00  0.00    +0.151 C 
BRANCH  26  27
ATOM     27  C   UNL     1       0.380   1.001   2.264  0.00  0.00    +0.078 C 
BRANCH  27  28
ATOM     28  C   UNL     1      -0.018   1.638   0.958  0.00  0.00    +0.035 A 
ATOM     29  C   UNL     1       0.697   1.617  -0.183  0.00  0.00    +0.105 A 
ATOM     30  N   UNL     1      -0.026   2.310  -1.116  0.00  0.00    -0.352 N 
ATOM     31  H   UNL     1       0.228   2.469  -2.039  0.00  0.00    +0.166 HD
ATOM     32  C   UNL     1      -1.159   2.730  -0.513  0.00  0.00    +0.171 A 
ATOM     33  N   UNL     1      -1.150   2.320   0.726  0.00  0.00    -0.350 N 
ATOM     34  H   UNL     1      -1.850   2.485   1.377  0.00  0.00    +0.166 HD
ENDBRANCH  27  28
ENDBRANCH  26  27
ENDBRANCH  25  26
ENDBRANCH   9  25
TORSDOF 8
