REMARK  Name = ZINC32570629
REMARK  9 active torsions:
REMARK  status: ('A' for Active; 'I' for Inactive)
REMARK    1  A    between atoms: C_1  and  C_2
REMARK    2  A    between atoms: C_2  and  C_4
REMARK    3  A    between atoms: C_2  and  S_10
REMARK    4  A    between atoms: N_6  and  C_7
REMARK    5  A    between atoms: C_7  and  C_8
REMARK    6  A    between atoms: C_7  and  C_9
REMARK    7  A    between atoms: S_10  and  C_11
REMARK    8  A    between atoms: C_14  and  C_17
REMARK    9  A    between atoms: N_15  and  N_16
REMARK                            x       y       z     vdW  Elec       q    Type
REMARK                         _______ _______ _______ _____ _____    ______ ____
ROOT
ATOM      1  C   UNL     1      -0.153   0.018  -2.811  0.00  0.00    +0.209 A 
ATOM      2  N   UNL     1      -1.354   0.539  -2.690  0.00  0.00    -0.121 NA
ATOM      3  N   UNL     1      -1.877   0.717  -3.851  0.00  0.00    -0.127 NA
ATOM      4  C   UNL     1      -1.043   0.320  -4.784  0.00  0.00    +0.183 A 
ATOM      5  N   UNL     1       0.089  -0.134  -4.147  0.00  0.00    -0.224 N 
ENDROOT
BRANCH   4   6
ATOM      6  C   UNL     1      -1.273   0.360  -6.243  0.00  0.00    +0.035 A 
ATOM      7  C   UNL     1      -0.998  -0.761  -7.027  0.00  0.00    +0.013 A 
ATOM      8  C   UNL     1      -1.216  -0.718  -8.389  0.00  0.00    +0.001 A 
ATOM      9  C   UNL     1      -1.706   0.434  -8.978  0.00  0.00    +0.001 A 
ATOM     10  C   UNL     1      -1.982   1.549  -8.207  0.00  0.00    +0.016 A 
ATOM     11  C   UNL     1      -1.774   1.518  -6.843  0.00  0.00    +0.029 A 
ATOM     12 BR   UNL     1      -2.158   3.041  -5.790  0.00  0.00    -0.050 Br
ENDBRANCH   4   6
BRANCH   5  13
ATOM     13  N   UNL     1       1.219  -0.635  -4.729  0.00  0.00    -0.295 N 
ATOM     14  H   UNL     1       1.117  -1.619  -4.929  0.00  0.00    +0.163 HD
ATOM     15  H   UNL     1       1.455  -0.119  -5.563  0.00  0.00    +0.163 HD
ENDBRANCH   5  13
BRANCH   1  16
ATOM     16  S   UNL     1       0.942  -0.400  -1.496  0.00  0.00    -0.072 S 
BRANCH  16  18
ATOM     17  C   UNL     1      -0.196   1.561   0.035  0.00  0.00    +0.029 C 
ATOM     18  C   UNL     1       0.020   0.046   0.001  0.00  0.00    +0.137 C 
BRANCH  18  19
ATOM     19  C   UNL     1       0.803  -0.377   1.218  0.00  0.00    +0.226 C 
ATOM     20  O   UNL     1       2.008  -0.495   1.153  0.00  0.00    -0.275 OA
ATOM     21  N   UNL     1       0.163  -0.624   2.378  0.00  0.00    -0.312 N 
ATOM     22  H   UNL     1      -0.801  -0.529   2.430  0.00  0.00    +0.149 HD
BRANCH  21  23
ATOM     23  C   UNL     1       0.924  -1.035   3.561  0.00  0.00    +0.067 C 
ATOM     24  C   UNL     1       1.451   0.206   4.285  0.00  0.00    +0.027 C 
ATOM     25  C   UNL     1       0.014  -1.827   4.502  0.00  0.00    +0.027 C 
ENDBRANCH  21  23
ENDBRANCH  18  19
ENDBRANCH  16  18
ENDBRANCH   1  16
TORSDOF 6
