REMARK  Name = ZINC32648397
REMARK  6 active torsions:
REMARK  status: ('A' for Active; 'I' for Inactive)
REMARK    1  A    between atoms: C_1  and  C_2
REMARK    2  A    between atoms: C_3  and  C_13
REMARK    3  A    between atoms: C_13  and  C_14
REMARK    4  A    between atoms: C_14  and  N_15
REMARK    5  A    between atoms: N_15  and  S_16
REMARK    6  A    between atoms: S_16  and  C_19
REMARK                            x       y       z     vdW  Elec       q    Type
REMARK                         _______ _______ _______ _____ _____    ______ ____
ROOT
ATOM      1  C   UNL     1      -0.013   1.086   0.008  0.00  0.00    +0.054 C 
ENDROOT
BRANCH   1   4
ATOM      2  C   UNL     1      -2.308  -0.382  -1.478  0.00  0.00    +0.063 C 
ATOM      3  C   UNL     1      -1.735   0.957  -1.862  0.00  0.00    +0.017 A 
ATOM      4  C   UNL     1      -0.742   1.585  -1.213  0.00  0.00    -0.018 A 
ATOM      5  C   UNL     1      -0.496   2.844  -1.920  0.00  0.00    +0.006 A 
ATOM      6  C   UNL     1       0.395   3.904  -1.734  0.00  0.00    +0.010 A 
ATOM      7  C   UNL     1       0.373   4.968  -2.591  0.00  0.00    +0.004 A 
ATOM      8  C   UNL     1      -0.527   5.005  -3.647  0.00  0.00    +0.040 A 
ATOM      9  C   UNL     1      -1.416   3.970  -3.849  0.00  0.00    +0.147 A 
ATOM     10  C   UNL     1      -1.411   2.876  -2.987  0.00  0.00    +0.083 A 
ATOM     11  N   UNL     1      -2.151   1.716  -2.922  0.00  0.00    -0.356 N 
ATOM     12  H   UNL     1      -2.968   1.358  -3.566  0.00  0.00    +0.166 HD
ATOM     13  F   UNL     1      -2.289   4.017  -4.880  0.00  0.00    -0.203 F 
ENDBRANCH   1   4
BRANCH   1  14
ATOM     14  C   UNL     1      -0.729   1.579   1.267  0.00  0.00    +0.110 C 
BRANCH  14  15
ATOM     15  N   UNL     1      -0.020   1.094   2.454  0.00  0.00    -0.190 NA
ATOM     16  H   UNL     1       0.594   0.183   2.394  0.00  0.00    +0.148 HD
BRANCH  15  17
ATOM     17  S   UNL     1      -0.334   1.762   3.936  0.00  0.00    +0.058 S 
ATOM     18  O   UNL     1       0.479   1.069   4.874  0.00  0.00    -0.153 OA
ATOM     19  O   UNL     1      -0.272   3.171   3.768  0.00  0.00    -0.153 OA
BRANCH  17  20
ATOM     20  C   UNL     1      -2.006   1.376   4.338  0.00  0.00    +0.105 A 
ATOM     21  C   UNL     1      -3.022   2.238   3.969  0.00  0.00    +0.030 A 
ATOM     22  C   UNL     1      -4.334   1.934   4.278  0.00  0.00    +0.022 A 
ATOM     23  C   UNL     1      -4.630   0.771   4.968  0.00  0.00    +0.041 A 
ATOM     24  C   UNL     1      -3.612  -0.088   5.342  0.00  0.00    +0.022 A 
ATOM     25  C   UNL     1      -2.301   0.214   5.027  0.00  0.00    +0.030 A 
ATOM     26 CL   UNL     1      -6.277   0.391   5.363  0.00  0.00    -0.084 Cl
ENDBRANCH  17  20
ENDBRANCH  15  17
ENDBRANCH  14  15
ENDBRANCH   1  14
TORSDOF 5
