REMARK  Name = ZINC37943796
REMARK  6 active torsions:
REMARK  status: ('A' for Active; 'I' for Inactive)
REMARK    1  A    between atoms: C_1  and  C_2
REMARK    2  A    between atoms: C_6  and  C_20
REMARK    3  A    between atoms: C_8  and  C_10
REMARK    4  A    between atoms: C_8  and  N_13
REMARK    5  A    between atoms: C_20  and  C_21
REMARK    6  A    between atoms: C_20  and  C_22
REMARK                            x       y       z     vdW  Elec       q    Type
REMARK                         _______ _______ _______ _____ _____    ______ ____
ROOT
ATOM      1  C   UNL     1      -0.424  -0.519  -2.657  0.00  0.00    +0.007 C 
ATOM      2  C   UNL     1      -0.102  -1.688  -1.724  0.00  0.00    -0.015 C 
ATOM      3  C   UNL     1       1.189  -2.368  -2.184  0.00  0.00    +0.003 C 
ATOM      4  C   UNL     1       1.510  -3.538  -1.252  0.00  0.00    +0.003 C 
ATOM      5  C   UNL     1       1.688  -3.018   0.176  0.00  0.00    -0.010 C 
ATOM      6  C   UNL     1       0.397  -2.338   0.636  0.00  0.00    +0.016 C 
ATOM      7  C   UNL     1       0.075  -1.169  -0.296  0.00  0.00    +0.001 C 
ENDROOT
BRANCH   6   8
ATOM      8  N   UNL     1       0.568  -1.839   2.007  0.00  0.00    +0.390 N 
ATOM      9  C   UNL     1      -0.607  -1.187   2.397  0.00  0.00    -0.076 C 
ATOM     10  C   UNL     1      -0.477  -0.569   3.806  0.00  0.00    -0.003 C 
ATOM     11  C   UNL     1      -0.605  -1.662   4.835  0.00  0.00    +0.079 C 
ATOM     12  N   UNL     1       0.704  -2.231   5.233  0.00  0.00    -0.318 NA
ATOM     13  C   UNL     1       1.632  -2.431   4.098  0.00  0.00    +0.062 C 
ATOM     14  C   UNL     1       0.921  -2.973   2.884  0.00  0.00    -0.062 C 
ATOM     15  H   UNL     1       1.133  -1.676   5.958  0.00  0.00    +0.122 HD
ATOM     16  H   UNL     1       1.325  -1.173   2.017  0.00  0.00    -0.080 HD
ENDBRANCH   6   8
BRANCH   6  17
ATOM     17  C   UNL     1      -0.735  -3.334   0.601  0.00  0.00    +0.200 C 
ATOM     18  O   UNL     1      -0.495  -4.522   0.559  0.00  0.00    -0.278 OA
ATOM     19  N   UNL     1      -2.012  -2.903   0.616  0.00  0.00    -0.330 N 
ATOM     20  H   UNL     1      -2.204  -1.958   0.721  0.00  0.00    +0.145 HD
ATOM     21  H   UNL     1      -2.739  -3.539   0.523  0.00  0.00    +0.145 HD
ENDBRANCH   6  17
BRANCH   5  22
ATOM     22  C   UNL     1       2.836  -2.007   0.211  0.00  0.00    -0.015 C 
ATOM     23  C   UNL     1       3.413  -1.940   1.627  0.00  0.00    +0.007 C 
ATOM     24  C   UNL     1       3.930  -2.444  -0.765  0.00  0.00    +0.007 C 
ENDBRANCH   5  22
TORSDOF 3
