REMARK  Name = ZINC67490469
REMARK  7 active torsions:
REMARK  status: ('A' for Active; 'I' for Inactive)
REMARK    1  A    between atoms: C_1  and  C_2
REMARK    2  A    between atoms: C_7  and  N_12
REMARK    3  A    between atoms: C_9  and  C_11
REMARK    4  A    between atoms: C_13  and  C_15
REMARK    5  A    between atoms: N_17  and  C_18
REMARK    6  A    between atoms: C_22  and  S_24
REMARK    7  A    between atoms: S_24  and  C_25
REMARK                            x       y       z     vdW  Elec       q    Type
REMARK                         _______ _______ _______ _____ _____    ______ ____
ROOT
ATOM      1  C   UNL     1      -2.274  -4.292   1.745  0.00  0.00    +0.303 C 
ATOM      2  O   UNL     1      -3.179  -3.603   1.322  0.00  0.00    -0.265 OA
ATOM      3  N   UNL     1      -2.536  -5.521   2.232  0.00  0.00    -0.278 N 
ATOM      4  H   UNL     1      -1.807  -6.099   2.509  0.00  0.00    +0.155 HD
ENDROOT
BRANCH   3   5
ATOM      5  C   UNL     1      -3.857  -5.964   2.339  0.00  0.00    +0.035 A 
ATOM      6  C   UNL     1      -4.234  -6.776   3.403  0.00  0.00    +0.023 A 
ATOM      7  C   UNL     1      -5.540  -7.215   3.509  0.00  0.00    +0.003 A 
ATOM      8  C   UNL     1      -6.475  -6.849   2.560  0.00  0.00    +0.015 A 
ATOM      9  C   UNL     1      -6.104  -6.038   1.494  0.00  0.00    +0.015 A 
ATOM     10  C   UNL     1      -4.794  -5.590   1.387  0.00  0.00    +0.038 A 
BRANCH   9  11
ATOM     11  S   UNL     1      -7.296  -5.573   0.282  0.00  0.00    -0.056 S 
BRANCH  11  12
ATOM     12  C   UNL     1      -8.824  -6.375   0.840  0.00  0.00    +0.404 C 
ATOM     13  F   UNL     1      -8.633  -7.760   0.887  0.00  0.00    -0.197 F 
ATOM     14  F   UNL     1      -9.158  -5.907   2.116  0.00  0.00    -0.197 F 
ENDBRANCH  11  12
ENDBRANCH   9  11
ENDBRANCH   3   5
BRANCH   1  16
ATOM     15  N   UNL     1      -0.611  -2.550   1.240  0.00  0.00    -0.304 N 
ATOM     16  C   UNL     1      -0.872  -3.779   1.727  0.00  0.00    +0.300 C 
ATOM     17  O   UNL     1       0.032  -4.469   2.151  0.00  0.00    -0.265 OA
ATOM     18  H   UNL     1      -1.333  -1.998   0.901  0.00  0.00    +0.149 HD
BRANCH  15  24
ATOM     19  C   UNL     1      -0.015   1.526   0.015  0.00  0.00    +0.008 C 
ATOM     20  C   UNL     1       0.001  -0.004   0.002  0.00  0.00    -0.009 C 
ATOM     21  C   UNL     1       0.708  -0.495  -1.263  0.00  0.00    +0.003 C 
ATOM     22  C   UNL     1       0.724  -2.025  -1.276  0.00  0.00    +0.002 C 
ATOM     23  C   UNL     1       1.471  -2.538  -0.043  0.00  0.00    +0.022 C 
ATOM     24  C   UNL     1       0.765  -2.046   1.222  0.00  0.00    +0.076 C 
ATOM     25  C   UNL     1       0.748  -0.516   1.235  0.00  0.00    +0.009 C 
ATOM     26  C   UNL     1       0.042  -0.025   2.500  0.00  0.00    +0.009 C 
ENDBRANCH  15  24
ENDBRANCH   1  16
TORSDOF 5
