REMARK  Name = ZINC10944533
REMARK  7 active torsions:
REMARK  status: ('A' for Active; 'I' for Inactive)
REMARK    1  A    between atoms: C_1  and  N_2
REMARK    2  A    between atoms: C_3  and  C_5
REMARK    3  A    between atoms: C_16  and  C_18
REMARK    4  A    between atoms: C_18  and  O_19
REMARK    5  A    between atoms: O_19  and  C_20
REMARK    6  A    between atoms: C_20  and  C_22
REMARK    7  A    between atoms: C_27  and  O_28
REMARK                            x       y       z     vdW  Elec       q    Type
REMARK                         _______ _______ _______ _____ _____    ______ ____
ROOT
ATOM      1  C   UNL     1       3.331   2.030   1.037  0.00  0.00    +0.276 C 
ATOM      2  C   UNL     1       2.442   1.216   0.085  0.00  0.00    +0.168 C 
ATOM      3  N   UNL     1       1.141   1.902  -0.003  0.00  0.00    -0.261 N 
ATOM      4  C   UNL     1       1.148   3.304  -0.107  0.00  0.00    +0.078 A 
ATOM      5  C   UNL     1      -0.005   3.980  -0.469  0.00  0.00    +0.027 A 
ATOM      6  C   UNL     1       0.005   5.359  -0.560  0.00  0.00    +0.002 A 
ATOM      7  C   UNL     1       1.164   6.063  -0.287  0.00  0.00    +0.004 A 
ATOM      8  C   UNL     1       2.317   5.394   0.077  0.00  0.00    +0.047 A 
ATOM      9  C   UNL     1       2.316   4.010   0.171  0.00  0.00    +0.143 A 
ATOM     10  O   UNL     1       3.455   3.360   0.527  0.00  0.00    -0.476 OA
ATOM     11  C   UNL     1      -0.014   1.209   0.009  0.00  0.00    +0.258 C 
ATOM     12  O   UNL     1      -1.074   1.798   0.041  0.00  0.00    -0.272 OA
ENDROOT
BRANCH   1  15
ATOM     13  C   UNL     1       6.156  -0.455   1.743  0.00  0.00    +0.128 C 
ATOM     14  N   UNL     1       4.831   0.164   1.660  0.00  0.00    -0.315 N 
ATOM     15  C   UNL     1       4.694   1.393   1.123  0.00  0.00    +0.255 C 
ATOM     16  O   UNL     1       5.668   1.986   0.709  0.00  0.00    -0.272 OA
ATOM     17  H   UNL     1       4.053  -0.310   1.991  0.00  0.00    +0.148 HD
ENDBRANCH   1  15
BRANCH  11  18
ATOM     18  C   UNL     1       0.010  -0.298  -0.012  0.00  0.00    +0.328 C 
BRANCH  18  19
ATOM     19  O   UNL     1      -1.347  -0.803  -0.111  0.00  0.00    -0.452 OA
BRANCH  19  20
ATOM     20  C   UNL     1      -1.502  -2.141  -0.141  0.00  0.00    +0.343 C 
ATOM     21  O   UNL     1      -0.528  -2.866  -0.086  0.00  0.00    -0.245 OA
BRANCH  20  22
ATOM     22  C   UNL     1      -2.852  -2.725  -0.242  0.00  0.00    +0.102 A 
ATOM     23  C   UNL     1      -3.974  -1.895  -0.300  0.00  0.00    +0.038 A 
ATOM     24  C   UNL     1      -5.233  -2.448  -0.399  0.00  0.00    +0.042 A 
ATOM     25  C   UNL     1      -5.392  -3.825  -0.430  0.00  0.00    +0.023 A 
ATOM     26  C   UNL     1      -4.291  -4.656  -0.368  0.00  0.00    +0.047 A 
ATOM     27  C   UNL     1      -3.017  -4.117  -0.273  0.00  0.00    +0.131 A 
ATOM     28 CL   UNL     1      -6.627  -1.416  -0.478  0.00  0.00    -0.084 Cl
BRANCH  27  29
ATOM     29  O   UNL     1      -1.935  -4.933  -0.211  0.00  0.00    -0.506 OA
ATOM     30  H   UNL     1      -1.681  -5.182   0.688  0.00  0.00    +0.292 HD
ENDBRANCH  27  29
ENDBRANCH  20  22
ENDBRANCH  19  20
ENDBRANCH  18  19
ENDBRANCH  11  18
TORSDOF 6
