REMARK  Name = ZINC40650516
REMARK  5 active torsions:
REMARK  status: ('A' for Active; 'I' for Inactive)
REMARK    1  A    between atoms: C_1  and  C_2
REMARK    2  A    between atoms: C_13  and  N_30
REMARK    3  A    between atoms: C_14  and  N_18
REMARK    4  A    between atoms: N_18  and  N_19
REMARK    5  A    between atoms: C_20  and  C_22
REMARK                            x       y       z     vdW  Elec       q    Type
REMARK                         _______ _______ _______ _____ _____    ______ ____
ROOT
ATOM      1  C   UNL     1      -0.018   1.503   0.010  0.00  0.00    +0.044 C 
ATOM      2  C   UNL     1       0.002  -0.004   0.002  0.00  0.00    -0.049 A 
ATOM      3  C   UNL     1       0.006  -0.698  -1.199  0.00  0.00    +0.005 A 
ATOM      4  C   UNL     1       0.024  -2.068  -1.234  0.00  0.00    +0.029 A 
ATOM      5  C   UNL     1       0.041  -2.822  -0.038  0.00  0.00    +0.080 A 
ATOM      6  C   UNL     1       0.037  -2.081   1.166  0.00  0.00    +0.041 A 
ATOM      7  C   UNL     1       0.023  -0.709   1.192  0.00  0.00    +0.020 A 
ATOM      8  S   UNL     1       0.061  -3.361   2.398  0.00  0.00    -0.052 S 
ATOM      9  C   UNL     1       0.074  -4.752   1.276  0.00  0.00    +0.165 A 
ATOM     10  N   UNL     1       0.060  -4.165   0.101  0.00  0.00    -0.225 NA
ATOM     11  N   UNL     1       0.094  -6.103   1.570  0.00  0.00    -0.277 N 
ATOM     12  C   UNL     1       0.102  -7.037   0.542  0.00  0.00    +0.160 A 
ATOM     13  C   UNL     1       0.116  -8.399   0.827  0.00  0.00    +0.207 A 
ATOM     14  C   UNL     1       0.123  -9.295  -0.238  0.00  0.00    +0.171 A 
ATOM     15  N   UNL     1       0.116  -8.819  -1.482  0.00  0.00    -0.217 NA
ATOM     16  C   UNL     1       0.102  -7.522  -1.710  0.00  0.00    +0.225 A 
ATOM     17  N   UNL     1       0.090  -6.643  -0.729  0.00  0.00    -0.218 NA
ATOM     18  H   UNL     1       0.103  -6.398   2.494  0.00  0.00    +0.156 HD
ENDROOT
BRANCH  13  19
ATOM     19  N   UNL     1       0.124  -8.883   2.226  0.00  0.00    +0.063 N 
ATOM     20  O   UNL     1      -0.919  -9.090   2.800  0.00  0.00    -0.126 OA
ATOM     21  O   UNL     1       1.175  -9.070   2.795  0.00  0.00    -0.126 OA
ENDBRANCH  13  19
BRANCH  14  22
ATOM     22  N   UNL     1       0.138 -10.662  -0.007  0.00  0.00    -0.246 N 
ATOM     23  H   UNL     1       0.143 -11.000   0.901  0.00  0.00    +0.172 HD
BRANCH  22  24
ATOM     24  N   UNL     1       0.144 -11.554  -1.087  0.00  0.00    -0.231 N 
ATOM     25  C   UNL     1       0.159 -12.883  -0.863  0.00  0.00    +0.262 C 
ATOM     26  O   UNL     1       0.166 -13.307   0.276  0.00  0.00    -0.269 OA
ATOM     27  H   UNL     1       0.139 -11.216  -1.996  0.00  0.00    +0.173 HD
BRANCH  25  28
ATOM     28  C   UNL     1       0.166 -13.824  -2.002  0.00  0.00    +0.057 A 
ATOM     29  C   UNL     1       0.164 -13.340  -3.312  0.00  0.00    +0.016 A 
ATOM     30  C   UNL     1       0.171 -14.223  -4.370  0.00  0.00    +0.021 A 
ATOM     31  C   UNL     1       0.180 -15.589  -4.137  0.00  0.00    +0.042 A 
ATOM     32  C   UNL     1       0.182 -16.076  -2.842  0.00  0.00    +0.040 A 
ATOM     33  C   UNL     1       0.180 -15.203  -1.773  0.00  0.00    +0.054 A 
ATOM     34 CL   UNL     1       0.190 -15.815  -0.148  0.00  0.00    -0.083 Cl
ATOM     35 CL   UNL     1       0.188 -16.694  -5.476  0.00  0.00    -0.083 Cl
ENDBRANCH  25  28
ENDBRANCH  22  24
ENDBRANCH  14  22
TORSDOF 4
