REMARK  Name = ZINC54549528
REMARK  7 active torsions:
REMARK  status: ('A' for Active; 'I' for Inactive)
REMARK    1  A    between atoms: C_1  and  N_2
REMARK    2  A    between atoms: N_2  and  C_3
REMARK    3  A    between atoms: C_3  and  C_4
REMARK    4  A    between atoms: N_6  and  C_7
REMARK    5  A    between atoms: C_7  and  C_9
REMARK    6  A    between atoms: C_7  and  C_15
REMARK    7  A    between atoms: C_18  and  C_20
REMARK                            x       y       z     vdW  Elec       q    Type
REMARK                         _______ _______ _______ _____ _____    ______ ____
ROOT
ATOM      1  C   UNL     1      -1.245  -1.039   1.822  0.00  0.00    +0.231 C 
ATOM      2  O   UNL     1      -2.238  -0.674   1.228  0.00  0.00    -0.274 OA
ATOM      3  N   UNL     1      -1.364  -1.713   2.983  0.00  0.00    -0.307 N 
ATOM      4  H   UNL     1      -0.571  -2.005   3.459  0.00  0.00    +0.149 HD
ENDROOT
BRANCH   1   5
ATOM      5  C   UNL     1       0.121  -0.739   1.262  0.00  0.00    +0.203 C 
BRANCH   5   7
ATOM      6  C   UNL     1      -0.067   1.461   0.012  0.00  0.00    +0.133 C 
ATOM      7  N   UNL     1      -0.018  -0.003   0.003  0.00  0.00    -0.289 N 
ATOM      8  C   UNL     1      -0.102  -0.673  -1.163  0.00  0.00    +0.282 C 
ATOM      9  O   UNL     1      -0.158  -1.889  -1.164  0.00  0.00    -0.267 OA
BRANCH   8  10
ATOM     10  C   UNL     1      -0.124   0.062  -2.431  0.00  0.00    +0.191 A 
ATOM     11  C   UNL     1      -0.326  -0.478  -3.669  0.00  0.00    +0.056 A 
ATOM     12  C   UNL     1      -0.266   0.581  -4.587  0.00  0.00    +0.058 A 
ATOM     13  C   UNL     1      -0.034   1.710  -3.878  0.00  0.00    +0.171 A 
ATOM     14  O   UNL     1       0.046   1.393  -2.579  0.00  0.00    -0.444 OA
ATOM     15 BR   UNL     1       0.142   3.448  -4.601  0.00  0.00    -0.008 Br
ENDBRANCH   8  10
ENDBRANCH   5   7
ENDBRANCH   1   5
BRANCH   3  16
ATOM     16  C   UNL     1      -2.693  -2.005   3.528  0.00  0.00    +0.106 C 
BRANCH  16  17
ATOM     17  C   UNL     1      -2.615  -3.219   4.418  0.00  0.00    -0.027 A 
ATOM     18  C   UNL     1      -1.535  -3.388   5.264  0.00  0.00    +0.005 A 
ATOM     19  C   UNL     1      -1.464  -4.502   6.079  0.00  0.00    +0.000 A 
ATOM     20  C   UNL     1      -2.474  -5.446   6.049  0.00  0.00    +0.000 A 
ATOM     21  C   UNL     1      -3.554  -5.277   5.204  0.00  0.00    +0.000 A 
ATOM     22  C   UNL     1      -3.627  -4.161   4.391  0.00  0.00    +0.005 A 
ENDBRANCH  16  17
BRANCH  16  23
ATOM     23  C   UNL     1      -3.184  -0.806   4.343  0.00  0.00    +0.014 C 
ATOM     24  C   UNL     1      -4.577  -0.258   4.023  0.00  0.00    +0.006 C 
ATOM     25  C   UNL     1      -3.331   0.531   3.614  0.00  0.00    +0.006 C 
ENDBRANCH  16  23
ENDBRANCH   3  16
TORSDOF 6
