REMARK  Name = ZINC02153738
REMARK  9 active torsions:
REMARK  status: ('A' for Active; 'I' for Inactive)
REMARK    1  A    between atoms: C_1  and  C_2
REMARK    2  A    between atoms: C_9  and  C_33
REMARK    3  A    between atoms: C_10  and  C_17
REMARK    4  A    between atoms: C_15  and  C_16
REMARK    5  A    between atoms: C_17  and  C_18
REMARK    6  A    between atoms: N_20  and  CA_21
REMARK    7  A    between atoms: CA_21  and  C_23
REMARK    8  A    between atoms: CA_21  and  C_31
REMARK    9  A    between atoms: C_23  and  C_24
REMARK                            x       y       z     vdW  Elec       q    Type
REMARK                         _______ _______ _______ _____ _____    ______ ____
ROOT
ATOM      1  C   UNL     1      -1.190  -0.925   0.009  0.00  0.00    +0.047 C 
ATOM      2  C   UNL     1       0.002  -0.004   0.002  0.00  0.00    -0.005 A 
ATOM      3  C   UNL     1      -0.016   1.335   0.009  0.00  0.00    +0.199 A 
ATOM      4  O   UNL     1       1.239   1.818   0.000  0.00  0.00    -0.462 OA
ATOM      5  C   UNL     1       2.142   0.816  -0.014  0.00  0.00    +0.141 A 
ATOM      6  C   UNL     1       1.419  -0.394  -0.014  0.00  0.00    +0.024 A 
ATOM      7  C   UNL     1       2.085  -1.612  -0.026  0.00  0.00    +0.023 A 
ATOM      8  C   UNL     1       3.480  -1.627  -0.042  0.00  0.00    +0.022 A 
ATOM      9  C   UNL     1       4.216  -2.895  -0.057  0.00  0.00    -0.029 A 
ATOM     10  C   UNL     1       5.572  -2.849  -0.070  0.00  0.00    +0.049 A 
ATOM     11  C   UNL     1       6.232  -1.602  -0.069  0.00  0.00    +0.341 A 
ATOM     12  O   UNL     1       7.450  -1.576  -0.081  0.00  0.00    -0.245 OA
ATOM     13  O   UNL     1       5.555  -0.444  -0.056  0.00  0.00    -0.422 OA
ATOM     14  C   UNL     1       4.203  -0.416  -0.042  0.00  0.00    +0.146 A 
ATOM     15  C   UNL     1       3.529   0.793  -0.028  0.00  0.00    +0.035 A 
ATOM     16  C   UNL     1       4.303   2.086  -0.029  0.00  0.00    +0.051 C 
ATOM     17  C   UNL     1       3.486  -4.213  -0.057  0.00  0.00    +0.045 C 
ENDROOT
BRANCH  10  18
ATOM     18  C   UNL     1       6.371  -4.127  -0.085  0.00  0.00    +0.138 C 
BRANCH  18  19
ATOM     19  C   UNL     1       6.651  -4.561   1.331  0.00  0.00    +0.218 C 
ATOM     20  O   UNL     1       6.242  -3.898   2.261  0.00  0.00    -0.275 OA
ATOM     21  N   UNL     1       7.356  -5.686   1.564  0.00  0.00    -0.302 N 
ATOM     22  H   UNL     1       7.683  -6.216   0.821  0.00  0.00    +0.150 HD
BRANCH  21  23
ATOM     23  CA  UNL     1       7.628  -6.108   2.941  0.00  0.00    +0.191 C 
BRANCH  23  24
ATOM     24  C   UNL     1       6.459  -6.904   3.462  0.00  0.00    +0.376 C 
ATOM     25  O   UNL     1       5.498  -7.099   2.757  0.00  0.00    -0.244 OA
ATOM     26  OXT UNL     1       6.487  -7.397   4.710  0.00  0.00    -0.244 OA
ENDBRANCH  23  24
BRANCH  23  27
ATOM     27  C   UNL     1       8.889  -6.974   2.969  0.00  0.00    +0.069 C 
BRANCH  27  28
ATOM     28  C   UNL     1      10.078  -6.143   2.564  0.00  0.00    -0.045 A 
ATOM     29  C   UNL     1      10.447  -6.065   1.234  0.00  0.00    +0.005 A 
ATOM     30  C   UNL     1      11.535  -5.298   0.861  0.00  0.00    +0.020 A 
ATOM     31  C   UNL     1      12.262  -4.617   1.821  0.00  0.00    +0.041 A 
ATOM     32  C   UNL     1      11.896  -4.699   3.153  0.00  0.00    +0.020 A 
ATOM     33  C   UNL     1      10.804  -5.462   3.523  0.00  0.00    +0.005 A 
ATOM     34 CL   UNL     1      13.632  -3.659   1.355  0.00  0.00    -0.084 Cl
ENDBRANCH  27  28
ENDBRANCH  23  27
ENDBRANCH  21  23
ENDBRANCH  18  19
ENDBRANCH  10  18
TORSDOF 6
