REMARK  Name = ZINC39969357
REMARK  9 active torsions:
REMARK  status: ('A' for Active; 'I' for Inactive)
REMARK    1  A    between atoms: C_1  and  C_2
REMARK    2  A    between atoms: C_2  and  O_3
REMARK    3  A    between atoms: O_3  and  C_4
REMARK    4  A    between atoms: C_6  and  C_12
REMARK    5  A    between atoms: C_9  and  O_10
REMARK    6  A    between atoms: C_13  and  C_14
REMARK    7  A    between atoms: C_13  and  C_16
REMARK    8  A    between atoms: C_22  and  O_26
REMARK    9  A    between atoms: O_26  and  C_27
REMARK                            x       y       z     vdW  Elec       q    Type
REMARK                         _______ _______ _______ _____ _____    ______ ____
ROOT
ATOM      1  C   UNL     1       0.009  -5.010   0.592  0.00  0.00    +0.026 C 
ATOM      2  C   UNL     1      -0.191  -6.295   0.231  0.00  0.00    +0.072 C 
ENDROOT
BRANCH   2   3
ATOM      3  C   UNL     1       0.506  -6.854  -0.982  0.00  0.00    +0.216 C 
ATOM      4  N   UNL     1       1.463  -7.892  -0.580  0.00  0.00    -0.359 N 
ATOM      5  C   UNL     1       1.099  -9.004  -1.151  0.00  0.00    +0.061 A 
ATOM      6  C   UNL     1       1.663 -10.362  -1.122  0.00  0.00    +0.031 A 
ATOM      7  C   UNL     1       1.071 -11.347  -1.823  0.00  0.00    +0.048 A 
ATOM      8  C   UNL     1      -0.125 -11.112  -2.622  0.00  0.00    +0.122 A 
ATOM      9  C   UNL     1      -0.704  -9.889  -2.700  0.00  0.00    +0.073 A 
ATOM     10  C   UNL     1      -0.122  -8.763  -1.966  0.00  0.00    +0.064 A 
ATOM     11  N   UNL     1      -0.467  -7.506  -1.867  0.00  0.00    -0.359 N 
ATOM     12  H   UNL     1       2.227  -7.771   0.005  0.00  0.00    +0.162 HD
ATOM     13  H   UNL     1      -1.226  -7.082  -2.297  0.00  0.00    +0.162 HD
BRANCH   8  14
ATOM     14  O   UNL     1      -0.673 -12.146  -3.307  0.00  0.00    -0.495 OA
ATOM     15  C   UNL     1      -0.027 -13.415  -3.193  0.00  0.00    +0.277 C 
ENDBRANCH   8  14
ENDBRANCH   2   3
BRANCH   1  18
ATOM     16  C   UNL     1       1.737  -2.120  -1.062  0.00  0.00    +0.164 A 
ATOM     17  C   UNL     1       0.771  -2.872  -0.421  0.00  0.00    +0.057 A 
ATOM     18  C   UNL     1       1.033  -4.206  -0.090  0.00  0.00    -0.019 A 
ATOM     19  C   UNL     1       2.272  -4.772  -0.411  0.00  0.00    +0.032 A 
ATOM     20  C   UNL     1       3.230  -4.015  -1.050  0.00  0.00    +0.087 A 
ATOM     21  C   UNL     1       2.967  -2.692  -1.383  0.00  0.00    +0.177 A 
ATOM     22 CL   UNL     1       4.767  -4.718  -1.447  0.00  0.00    -0.080 Cl
BRANCH  21  23
ATOM     23  O   UNL     1       3.913  -1.952  -2.019  0.00  0.00    -0.502 OA
ATOM     24  H   UNL     1       4.510  -1.481  -1.422  0.00  0.00    +0.292 HD
ENDBRANCH  21  23
BRANCH  16  25
ATOM     25  O   UNL     1       1.486  -0.823  -1.385  0.00  0.00    -0.489 OA
BRANCH  25  27
ATOM     26  C   UNL     1       0.107   1.160  -1.467  0.00  0.00    +0.048 C 
ATOM     27  C   UNL     1       0.205  -0.302  -1.026  0.00  0.00    +0.226 C 
ENDBRANCH  25  27
ENDBRANCH  16  25
ENDBRANCH   1  18
BRANCH   2  28
ATOM     28  C   UNL     1      -1.067  -7.127   1.001  0.00  0.00    +0.099 C 
ATOM     29  N   UNL     1      -1.761  -7.787   1.611  0.00  0.00    -0.191 NA
ENDBRANCH   2  28
TORSDOF 7
