REMARK  Name = ZINC10074637
REMARK  8 active torsions:
REMARK  status: ('A' for Active; 'I' for Inactive)
REMARK    1  A    between atoms: C_1  and  C_2
REMARK    2  A    between atoms: C_5  and  N_8
REMARK    3  A    between atoms: C_18  and  S_19
REMARK    4  A    between atoms: S_19  and  C_20
REMARK    5  A    between atoms: C_20  and  C_22
REMARK    6  A    between atoms: C_20  and  C_23
REMARK    7  A    between atoms: C_27  and  C_34
REMARK    8  A    between atoms: C_30  and  C_33
REMARK                            x       y       z     vdW  Elec       q    Type
REMARK                         _______ _______ _______ _____ _____    ______ ____
ROOT
ATOM      1  N   UNL     1      -1.431  -1.867   0.337  0.00  0.00    -0.255 N 
ATOM      2  C   UNL     1      -1.364  -3.194   0.078  0.00  0.00    +0.267 A 
ATOM      3  O   UNL     1      -2.371  -3.872  -0.006  0.00  0.00    -0.267 OA
ATOM      4  C   UNL     1      -0.030  -3.786  -0.093  0.00  0.00    +0.065 A 
ATOM      5  C   UNL     1       0.145  -5.144  -0.355  0.00  0.00    +0.015 A 
ATOM      6  C   UNL     1       1.409  -5.644  -0.505  0.00  0.00    +0.001 A 
ATOM      7  C   UNL     1       2.518  -4.814  -0.398  0.00  0.00    +0.002 A 
ATOM      8  C   UNL     1       2.375  -3.480  -0.140  0.00  0.00    +0.028 A 
ATOM      9  C   UNL     1       1.096  -2.938   0.018  0.00  0.00    +0.079 A 
ATOM     10  N   UNL     1       0.909  -1.623   0.274  0.00  0.00    -0.223 NA
ATOM     11  C   UNL     1      -0.291  -1.117   0.422  0.00  0.00    +0.177 A 
ENDROOT
BRANCH   1  16
ATOM     12  C   UNL     1      -6.487   0.609   1.050  0.00  0.00    +0.044 C 
ATOM     13  C   UNL     1      -5.145  -0.049   0.860  0.00  0.00    -0.050 A 
ATOM     14  C   UNL     1      -4.682  -0.955   1.797  0.00  0.00    +0.005 A 
ATOM     15  C   UNL     1      -3.452  -1.559   1.626  0.00  0.00    +0.026 A 
ATOM     16  C   UNL     1      -2.680  -1.256   0.513  0.00  0.00    +0.052 A 
ATOM     17  C   UNL     1      -3.145  -0.342  -0.423  0.00  0.00    +0.026 A 
ATOM     18  C   UNL     1      -4.378   0.255  -0.250  0.00  0.00    +0.005 A 
ENDBRANCH   1  16
BRANCH  11  19
ATOM     19  S   UNL     1      -0.441   0.607   0.754  0.00  0.00    -0.075 S 
BRANCH  19  20
ATOM     20  C   UNL     1       1.306   1.078   0.766  0.00  0.00    +0.137 C 
ATOM     21  C   UNL     1       1.899   0.876  -0.630  0.00  0.00    +0.029 C 
BRANCH  20  22
ATOM     22  C   UNL     1       1.433   2.527   1.160  0.00  0.00    +0.229 C 
ATOM     23  O   UNL     1       0.505   3.288   0.981  0.00  0.00    -0.274 OA
ATOM     24  N   UNL     1       2.577   2.979   1.711  0.00  0.00    -0.300 N 
ATOM     25  C   UNL     1       2.757   4.408   1.998  0.00  0.00    +0.111 C 
ATOM     26  C   UNL     1       3.153   4.564   3.474  0.00  0.00    +0.004 C 
ATOM     27  C   UNL     1       4.388   3.707   3.758  0.00  0.00    +0.009 C 
ATOM     28  C   UNL     1       4.059   2.234   3.501  0.00  0.00    +0.004 C 
ATOM     29  C   UNL     1       3.670   2.051   2.030  0.00  0.00    +0.111 C 
ATOM     30  C   UNL     1       5.284   1.374   3.817  0.00  0.00    +0.009 C 
ATOM     31  C   UNL     1       1.998   4.108   4.367  0.00  0.00    +0.009 C 
ENDBRANCH  20  22
ENDBRANCH  19  20
ENDBRANCH  11  19
TORSDOF 4
