REMARK  Name = ZINC25573182
REMARK  3 active torsions:
REMARK  status: ('A' for Active; 'I' for Inactive)
REMARK    1  A    between atoms: N_9  and  C_11
REMARK    2  A    between atoms: C_11  and  C_12
REMARK    3  A    between atoms: C_21  and  C_23
REMARK                            x       y       z     vdW  Elec       q    Type
REMARK                         _______ _______ _______ _____ _____    ______ ____
ROOT
ATOM      1  C   UNL     1       5.835  -2.252   1.262  0.00  0.00    +0.125 A 
ATOM      2  N   UNL     1       7.084  -2.785   1.313  0.00  0.00    -0.309 N 
ATOM      3  H   UNL     1       7.336  -3.500   0.709  0.00  0.00    +0.170 HD
ATOM      4  C   UNL     1       7.975  -2.306   2.215  0.00  0.00    +0.266 A 
ATOM      5  O   UNL     1       9.104  -2.763   2.285  0.00  0.00    -0.267 OA
ATOM      6  C   UNL     1       7.565  -1.276   3.062  0.00  0.00    +0.102 A 
ATOM      7  C   UNL     1       6.265  -0.742   2.989  0.00  0.00    +0.086 A 
ATOM      8  N   UNL     1       5.441  -1.293   2.037  0.00  0.00    -0.232 NA
ATOM      9  C   UNL     1       5.982   0.286   3.893  0.00  0.00    +0.044 A 
ATOM     10  C   UNL     1       6.940   0.706   4.768  0.00  0.00    +0.022 A 
ATOM     11  S   UNL     1       8.327  -0.343   4.363  0.00  0.00    -0.081 S 
ENDROOT
BRANCH  10  12
ATOM     12  C   UNL     1       6.852   1.765   5.796  0.00  0.00    -0.011 A 
ATOM     13  C   UNL     1       5.665   2.479   5.967  0.00  0.00    +0.010 A 
ATOM     14  C   UNL     1       5.589   3.466   6.927  0.00  0.00    +0.020 A 
ATOM     15  C   UNL     1       6.688   3.749   7.721  0.00  0.00    +0.041 A 
ATOM     16  C   UNL     1       7.868   3.044   7.557  0.00  0.00    +0.020 A 
ATOM     17  C   UNL     1       7.954   2.050   6.604  0.00  0.00    +0.010 A 
ATOM     18 CL   UNL     1       6.585   4.993   8.928  0.00  0.00    -0.084 Cl
ENDBRANCH  10  12
BRANCH   1  19
ATOM     19  C   UNL     1       4.863  -2.801   0.250  0.00  0.00    +0.159 C 
BRANCH  19  28
ATOM     20  C   UNL     1      -0.017   1.376   0.010  0.00  0.00    +0.000 A 
ATOM     21  C   UNL     1       1.173   2.080   0.002  0.00  0.00    +0.000 A 
ATOM     22  C   UNL     1       2.374   1.400  -0.015  0.00  0.00    +0.005 A 
ATOM     23  C   UNL     1       2.395   0.013  -0.024  0.00  0.00    -0.030 A 
ATOM     24  C   UNL     1       1.208  -0.688  -0.012  0.00  0.00    -0.042 A 
ATOM     25  C   UNL     1       0.002  -0.004   0.002  0.00  0.00    +0.004 A 
ATOM     26  C   UNL     1       1.180  -2.195  -0.009  0.00  0.00    +0.051 C 
ATOM     27  C   UNL     1       2.541  -2.744  -0.440  0.00  0.00    +0.090 C 
ATOM     28  N   UNL     1       3.585  -2.085   0.361  0.00  0.00    -0.291 NA
ATOM     29  C   UNL     1       3.730  -0.684  -0.048  0.00  0.00    +0.120 C 
ENDBRANCH  19  28
ENDBRANCH   1  19
TORSDOF 3
