REMARK  Name = ZINC39591487
REMARK  8 active torsions:
REMARK  status: ('A' for Active; 'I' for Inactive)
REMARK    1  A    between atoms: C_1  and  C_2
REMARK    2  A    between atoms: C_2  and  C_4
REMARK    3  A    between atoms: C_2  and  O_16
REMARK    4  A    between atoms: N_6  and  C_7
REMARK    5  A    between atoms: C_10  and  N_13
REMARK    6  A    between atoms: O_16  and  C_17
REMARK    7  A    between atoms: C_17  and  C_19
REMARK    8  A    between atoms: C_20  and  C_21
REMARK                            x       y       z     vdW  Elec       q    Type
REMARK                         _______ _______ _______ _____ _____    ______ ____
ROOT
ATOM      1  C   UNL     1      -0.023   1.532  -0.004  0.00  0.00    +0.062 C 
ATOM      2  C   UNL     1       0.001   0.002  -0.001  0.00  0.00    +0.259 C 
ENDROOT
BRANCH   2   3
ATOM      3  C   UNL     1       0.708  -0.491  -1.237  0.00  0.00    +0.258 C 
ATOM      4  O   UNL     1       0.098  -1.123  -2.073  0.00  0.00    -0.271 OA
ATOM      5  N   UNL     1       2.018  -0.231  -1.413  0.00  0.00    -0.282 N 
ATOM      6  H   UNL     1       2.491   0.331  -0.778  0.00  0.00    +0.155 HD
BRANCH   5   7
ATOM      7  C   UNL     1       2.698  -0.770  -2.511  0.00  0.00    +0.034 A 
ATOM      8  C   UNL     1       4.024  -1.163  -2.384  0.00  0.00    +0.025 A 
ATOM      9  C   UNL     1       4.692  -1.695  -3.470  0.00  0.00    +0.034 A 
ATOM     10  C   UNL     1       4.041  -1.836  -4.682  0.00  0.00    +0.126 A 
ATOM     11  C   UNL     1       2.721  -1.445  -4.811  0.00  0.00    +0.034 A 
ATOM     12  C   UNL     1       2.046  -0.918  -3.728  0.00  0.00    +0.025 A 
BRANCH  10  13
ATOM     13  N   UNL     1       4.760  -2.407  -5.843  0.00  0.00    +0.056 N 
ATOM     14  O   UNL     1       5.915  -2.748  -5.731  0.00  0.00    -0.126 OA
ATOM     15  O   UNL     1       4.193  -2.531  -6.904  0.00  0.00    -0.126 OA
ENDBRANCH  10  13
ENDBRANCH   5   7
ENDBRANCH   2   3
BRANCH   2  16
ATOM     16  O   UNL     1      -1.339  -0.495   0.012  0.00  0.00    -0.449 OA
BRANCH  16  17
ATOM     17  C   UNL     1      -1.903  -0.706   1.219  0.00  0.00    +0.333 C 
ATOM     18  O   UNL     1      -1.273  -0.474   2.233  0.00  0.00    -0.246 OA
BRANCH  17  19
ATOM     19  C   UNL     1      -3.271  -1.214   1.309  0.00  0.00    +0.092 C 
ATOM     20  C   UNL     1      -3.834  -1.425   2.516  0.00  0.00    +0.015 C 
BRANCH  20  21
ATOM     21  C   UNL     1      -5.212  -1.936   2.607  0.00  0.00    -0.024 A 
ATOM     22  C   UNL     1      -5.937  -2.210   1.442  0.00  0.00    +0.008 A 
ATOM     23  C   UNL     1      -7.227  -2.689   1.535  0.00  0.00    +0.002 A 
ATOM     24  C   UNL     1      -7.804  -2.898   2.775  0.00  0.00    +0.015 A 
ATOM     25  C   UNL     1      -7.093  -2.630   3.932  0.00  0.00    +0.018 A 
ATOM     26  C   UNL     1      -5.799  -2.156   3.856  0.00  0.00    +0.023 A 
ATOM     27 BR   UNL     1      -7.894  -2.919   5.620  0.00  0.00    -0.050 Br
ENDBRANCH  20  21
ENDBRANCH  17  19
ENDBRANCH  16  17
ENDBRANCH   2  16
TORSDOF 7
