REMARK  Name = ZINC09429751
REMARK  6 active torsions:
REMARK  status: ('A' for Active; 'I' for Inactive)
REMARK    1  A    between atoms: C_1  and  C_2
REMARK    2  A    between atoms: C_2  and  N_3
REMARK    3  A    between atoms: C_7  and  N_8
REMARK    4  A    between atoms: N_8  and  C_9
REMARK    5  A    between atoms: N_25  and  C_32
REMARK    6  A    between atoms: N_28  and  C_31
REMARK                            x       y       z     vdW  Elec       q    Type
REMARK                         _______ _______ _______ _____ _____    ______ ____
ROOT
ATOM      1  C   UNL     1       0.050  -1.895  -7.043  0.00  0.00    +0.031 A 
ATOM      2  C   UNL     1      -1.322  -1.686  -7.116  0.00  0.00    +0.025 A 
ATOM      3  C   UNL     1      -1.973  -1.836  -8.325  0.00  0.00    +0.025 A 
ATOM      4  C   UNL     1      -1.256  -2.189  -9.456  0.00  0.00    +0.033 A 
ATOM      5  C   UNL     1       0.119  -2.390  -9.394  0.00  0.00    -0.023 A 
ATOM      6  C   UNL     1       0.766  -2.241  -8.179  0.00  0.00    +0.028 A 
ATOM      7  C   UNL     1       0.924  -2.744 -10.614  0.00  0.00    +0.064 C 
ATOM      8  C   UNL     1       0.055  -3.318 -11.736  0.00  0.00    +0.146 C 
ATOM      9  C   UNL     1      -1.137  -2.381 -11.959  0.00  0.00    +0.098 C 
ATOM     10  N   UNL     1      -1.892  -2.362 -10.688  0.00  0.00    -0.325 N 
ATOM     11  C   UNL     1      -3.306  -2.626 -10.960  0.00  0.00    +0.105 C 
ATOM     12  C   UNL     1      -3.479  -2.468 -12.492  0.00  0.00    +0.021 C 
ATOM     13  C   UNL     1      -2.089  -2.937 -13.032  0.00  0.00    +0.025 C 
ATOM     14  C   UNL     1       0.864  -3.402 -13.000  0.00  0.00    +0.240 C 
ATOM     15  O   UNL     1       1.340  -2.388 -13.464  0.00  0.00    -0.274 OA
ATOM     16  N   UNL     1       1.076  -4.566 -13.630  0.00  0.00    -0.228 N 
ATOM     17  C   UNL     1       0.576  -5.723 -13.171  0.00  0.00    +0.317 C 
ATOM     18  O   UNL     1       0.801  -6.750 -13.780  0.00  0.00    -0.252 OA
ATOM     19  N   UNL     1      -0.167  -5.774 -12.055  0.00  0.00    -0.228 N 
ATOM     20  C   UNL     1      -0.446  -4.677 -11.337  0.00  0.00    +0.240 C 
ATOM     21  O   UNL     1      -1.123  -4.784 -10.337  0.00  0.00    -0.274 OA
ATOM     22  C   UNL     1      -0.688  -7.068 -11.606  0.00  0.00    +0.143 C 
ATOM     23  C   UNL     1       1.877  -4.575 -14.857  0.00  0.00    +0.143 C 
ENDROOT
BRANCH   1  24
ATOM     24  N   UNL     1       0.712  -1.750  -5.819  0.00  0.00    -0.320 N 
ATOM     25  H   UNL     1       1.670  -1.891  -5.766  0.00  0.00    +0.152 HD
BRANCH  24  30
ATOM     26  N   UNL     1       0.692  -0.440  -1.214  0.00  0.00    -0.249 N 
ATOM     27  C   UNL     1      -0.024  -0.663  -2.336  0.00  0.00    +0.258 C 
ATOM     28  O   UNL     1      -1.222  -0.456  -2.363  0.00  0.00    -0.269 OA
ATOM     29  C   UNL     1       0.686  -1.163  -3.527  0.00  0.00    +0.113 C 
ATOM     30  C   UNL     1       0.018  -1.414  -4.712  0.00  0.00    +0.090 C 
ATOM     31  C   UNL     1       2.138  -1.383  -3.400  0.00  0.00    +0.256 C 
ATOM     32  O   UNL     1       2.791  -1.794  -4.340  0.00  0.00    -0.270 OA
ATOM     33  N   UNL     1       2.722  -1.116  -2.214  0.00  0.00    -0.263 N 
ATOM     34  C   UNL     1       2.014  -0.658  -1.172  0.00  0.00    +0.146 C 
ATOM     35  S   UNL     1       2.842  -0.340   0.293  0.00  0.00    -0.018 S 
ATOM     36  H   UNL     1       3.676  -1.256  -2.114  0.00  0.00    +0.157 HD
BRANCH  26  38
ATOM     37  C   UNL     1       0.011   1.588  -0.029  0.00  0.00    +0.025 C 
ATOM     38  C   UNL     1       0.010   0.058  -0.017  0.00  0.00    +0.112 C 
ENDBRANCH  26  38
ENDBRANCH  24  30
ENDBRANCH   1  24
TORSDOF 3
