REMARK  Name = ZINC35288663
REMARK  8 active torsions:
REMARK  status: ('A' for Active; 'I' for Inactive)
REMARK    1  A    between atoms: C_1  and  C_2
REMARK    2  A    between atoms: C_3  and  C_29
REMARK    3  A    between atoms: C_5  and  N_9
REMARK    4  A    between atoms: C_6  and  C_7
REMARK    5  A    between atoms: C_10  and  C_12
REMARK    6  A    between atoms: C_12  and  S_13
REMARK    7  A    between atoms: S_13  and  C_14
REMARK    8  A    between atoms: C_15  and  C_27
REMARK                            x       y       z     vdW  Elec       q    Type
REMARK                         _______ _______ _______ _____ _____    ______ ____
ROOT
ATOM      1  S   UNL     1       0.110  -7.121   2.108  0.00  0.00    -0.095 S 
ENDROOT
BRANCH   1   2
ATOM      2  C   UNL     1       0.131  -8.212   3.491  0.00  0.00    +0.115 A 
ATOM      3  C   UNL     1       0.155  -9.610   3.273  0.00  0.00    +0.084 A 
ATOM      4  C   UNL     1       0.172 -10.470   4.363  0.00  0.00    +0.031 A 
ATOM      5  C   UNL     1       0.164  -9.908   5.651  0.00  0.00    +0.005 A 
ATOM      6  C   UNL     1       0.178 -10.725   6.796  0.00  0.00    +0.059 A 
ATOM      7  C   UNL     1       0.169 -10.158   8.036  0.00  0.00    +0.167 A 
ATOM      8  C   UNL     1       0.146  -8.761   8.184  0.00  0.00    +0.168 A 
ATOM      9  C   UNL     1       0.132  -7.939   7.080  0.00  0.00    +0.078 A 
ATOM     10  C   UNL     1       0.140  -8.498   5.792  0.00  0.00    +0.076 A 
ATOM     11  N   UNL     1       0.130  -7.711   4.708  0.00  0.00    -0.239 NA
ATOM     12  O   UNL     1       0.141  -8.469   9.518  0.00  0.00    -0.453 OA
ATOM     13  C   UNL     1      -0.255  -9.685  10.178  0.00  0.00    +0.466 C 
ATOM     14  O   UNL     1       0.178 -10.723   9.280  0.00  0.00    -0.453 OA
BRANCH   3  15
ATOM     15  C   UNL     1       0.162 -10.133   1.940  0.00  0.00    +0.102 C 
ATOM     16  N   UNL     1       0.167 -10.548   0.882  0.00  0.00    -0.191 NA
ENDBRANCH   3  15
ENDBRANCH   1   2
BRANCH   1  17
ATOM     17  C   UNL     1       0.091  -5.467   2.853  0.00  0.00    +0.172 C 
BRANCH  17  19
ATOM     18  N   UNL     1       0.055  -3.116   2.084  0.00  0.00    -0.278 N 
ATOM     19  C   UNL     1       0.072  -4.426   1.764  0.00  0.00    +0.228 C 
ATOM     20  O   UNL     1       0.071  -4.765   0.600  0.00  0.00    -0.275 OA
ATOM     21  H   UNL     1       0.056  -2.845   3.015  0.00  0.00    +0.155 HD
BRANCH  18  26
ATOM     22  C   UNL     1      -0.018   1.503   0.010  0.00  0.00    +0.046 C 
ATOM     23  C   UNL     1       0.002  -0.004   0.002  0.00  0.00    -0.021 A 
ATOM     24  C   UNL     1       0.006  -0.713  -1.143  0.00  0.00    -0.007 A 
ATOM     25  S   UNL     1       0.033  -2.401  -0.579  0.00  0.00    -0.077 S 
ATOM     26  C   UNL     1       0.037  -2.157   1.081  0.00  0.00    +0.090 A 
ATOM     27  C   UNL     1       0.025  -0.778   1.222  0.00  0.00    +0.083 A 
ATOM     28  C   UNL     1      -0.008  -0.201  -2.560  0.00  0.00    +0.052 C 
BRANCH  27  29
ATOM     29  C   UNL     1       0.028  -0.152   2.510  0.00  0.00    +0.102 C 
ATOM     30  N   UNL     1       0.031   0.344   3.532  0.00  0.00    -0.191 NA
ENDBRANCH  27  29
ENDBRANCH  18  26
ENDBRANCH  17  19
ENDBRANCH   1  17
TORSDOF 6
