REMARK  Name = ZINC42848262
REMARK  6 active torsions:
REMARK  status: ('A' for Active; 'I' for Inactive)
REMARK    1  A    between atoms: C_3  and  C_6
REMARK    2  A    between atoms: C_6  and  N_7
REMARK    3  A    between atoms: C_8  and  C_21
REMARK    4  A    between atoms: C_11  and  S_12
REMARK    5  A    between atoms: S_12  and  C_13
REMARK    6  A    between atoms: C_16  and  C_19
REMARK                            x       y       z     vdW  Elec       q    Type
REMARK                         _______ _______ _______ _____ _____    ______ ____
ROOT
ATOM      1  N   UNL     1       4.040   0.725   1.368  0.00  0.00    -0.294 N 
ATOM      2  C   UNL     1       4.319   1.877   2.065  0.00  0.00    +0.165 A 
ATOM      3  N   UNL     1       4.833   1.515   3.217  0.00  0.00    -0.128 NA
ATOM      4  N   UNL     1       4.893   0.233   3.288  0.00  0.00    -0.122 NA
ATOM      5  C   UNL     1       4.416  -0.302   2.186  0.00  0.00    +0.198 A 
ENDROOT
BRANCH   2   6
ATOM      6  C   UNL     1       4.085   3.261   1.603  0.00  0.00    +0.019 A 
ATOM      7  C   UNL     1       4.719   4.329   2.240  0.00  0.00    +0.013 A 
ATOM      8  C   UNL     1       4.497   5.619   1.804  0.00  0.00    +0.021 A 
ATOM      9  C   UNL     1       3.646   5.856   0.738  0.00  0.00    +0.041 A 
ATOM     10  C   UNL     1       3.014   4.800   0.102  0.00  0.00    +0.021 A 
ATOM     11  C   UNL     1       3.233   3.506   0.525  0.00  0.00    +0.013 A 
ATOM     12 CL   UNL     1       3.370   7.482   0.196  0.00  0.00    -0.084 Cl
ENDBRANCH   2   6
BRANCH   1  13
ATOM     13  C   UNL     1       3.454   0.620   0.029  0.00  0.00    +0.200 C 
BRANCH  13  16
ATOM     14  C   UNL     1      -0.214   0.683   0.374  0.00  0.00    +0.041 A 
ATOM     15  C   UNL     1       1.036   1.341   0.316  0.00  0.00    +0.046 A 
ATOM     16  C   UNL     1       1.970   0.388   0.147  0.00  0.00    +0.125 A 
ATOM     17  O   UNL     1       1.355  -0.805   0.099  0.00  0.00    -0.466 OA
ATOM     18  C   UNL     1       0.031  -0.632   0.237  0.00  0.00    +0.195 A 
ENDBRANCH  13  16
ENDBRANCH   1  13
BRANCH   5  19
ATOM     19  S   UNL     1       4.290  -2.023   1.830  0.00  0.00    -0.030 S 
BRANCH  19  20
ATOM     20  C   UNL     1       4.936  -2.805   3.271  0.00  0.00    +0.104 A 
ATOM     21  C   UNL     1       4.992  -4.196   3.330  0.00  0.00    +0.036 A 
ATOM     22  C   UNL     1       5.494  -4.801   4.451  0.00  0.00    +0.023 A 
ATOM     23  C   UNL     1       5.937  -3.990   5.508  0.00  0.00    +0.070 A 
ATOM     24  C   UNL     1       5.851  -2.602   5.380  0.00  0.00    +0.130 A 
ATOM     25  N   UNL     1       5.365  -2.061   4.282  0.00  0.00    -0.247 NA
BRANCH  23  26
ATOM     26  C   UNL     1       6.470  -4.577   6.700  0.00  0.00    +0.101 C 
ATOM     27  N   UNL     1       6.892  -5.043   7.646  0.00  0.00    -0.191 NA
ENDBRANCH  23  26
ENDBRANCH  19  20
ENDBRANCH   5  19
TORSDOF 6
