REMARK  Name = ZINC10021601
REMARK  14 active torsions:
REMARK  status: ('A' for Active; 'I' for Inactive)
REMARK    1  A    between atoms: C_1  and  C_2
REMARK    2  A    between atoms: C_2  and  C_3
REMARK    3  A    between atoms: C_2  and  C_4
REMARK    4  A    between atoms: C_4  and  N_5
REMARK    5  A    between atoms: C_9  and  C_11
REMARK    6  A    between atoms: C_11  and  S_12
REMARK    7  A    between atoms: S_12  and  C_13
REMARK    8  A    between atoms: C_16  and  C_24
REMARK    9  A    between atoms: N_17  and  C_18
REMARK   10  A    between atoms: C_18  and  C_19
REMARK   11  A    between atoms: C_27  and  C_30
REMARK   12  A    between atoms: C_30  and  C_31
REMARK   13  A    between atoms: C_30  and  C_32
REMARK   14  A    between atoms: C_30  and  C_33
REMARK                            x       y       z     vdW  Elec       q    Type
REMARK                         _______ _______ _______ _____ _____    ______ ____
ROOT
ATOM      1  C   UNL     1       0.983   4.301  -2.209  0.00  0.00    +0.193 A 
ATOM      2  N   UNL     1       1.619   4.581  -3.324  0.00  0.00    -0.122 NA
ATOM      3  N   UNL     1       2.829   4.154  -3.261  0.00  0.00    -0.128 NA
ATOM      4  C   UNL     1       3.042   3.580  -2.100  0.00  0.00    +0.165 A 
ATOM      5  N   UNL     1       1.864   3.652  -1.393  0.00  0.00    -0.295 N 
ENDROOT
BRANCH   4   6
ATOM      6  C   UNL     1       4.307   2.970  -1.640  0.00  0.00    +0.019 A 
ATOM      7  C   UNL     1       4.309   2.095  -0.552  0.00  0.00    +0.012 A 
ATOM      8  C   UNL     1       5.492   1.525  -0.131  0.00  0.00    +0.005 A 
ATOM      9  C   UNL     1       6.677   1.826  -0.778  0.00  0.00    -0.042 A 
ATOM     10  C   UNL     1       6.684   2.696  -1.854  0.00  0.00    +0.005 A 
ATOM     11  C   UNL     1       5.506   3.269  -2.288  0.00  0.00    +0.012 A 
BRANCH   9  12
ATOM     12  C   UNL     1       7.967   1.204  -0.309  0.00  0.00    -0.013 C 
ATOM     13  C   UNL     1       8.942   2.306   0.110  0.00  0.00    +0.015 C 
ATOM     14  C   UNL     1       7.688   0.289   0.885  0.00  0.00    +0.015 C 
ATOM     15  C   UNL     1       8.582   0.385  -1.446  0.00  0.00    +0.015 C 
ENDBRANCH   9  12
ENDBRANCH   4   6
BRANCH   1  16
ATOM     16  S   UNL     1      -0.695   4.692  -1.836  0.00  0.00    -0.077 S 
BRANCH  16  17
ATOM     17  C   UNL     1      -1.172   5.524  -3.371  0.00  0.00    +0.173 C 
BRANCH  17  22
ATOM     18  N   UNL     1      -5.052   7.638  -5.265  0.00  0.00    -0.299 N 
ATOM     19  C   UNL     1      -4.476   6.994  -4.231  0.00  0.00    +0.306 C 
ATOM     20  O   UNL     1      -5.117   6.764  -3.225  0.00  0.00    -0.252 OA
ATOM     21  N   UNL     1      -3.188   6.604  -4.313  0.00  0.00    -0.240 N 
ATOM     22  C   UNL     1      -2.612   5.960  -3.279  0.00  0.00    +0.231 C 
ATOM     23  O   UNL     1      -3.252   5.730  -2.275  0.00  0.00    -0.274 OA
ATOM     24  H   UNL     1      -4.540   7.822  -6.068  0.00  0.00    +0.150 HD
ATOM     25  H   UNL     1      -2.676   6.788  -5.116  0.00  0.00    +0.159 HD
BRANCH  18  26
ATOM     26  C   UNL     1      -6.452   8.062  -5.176  0.00  0.00    +0.108 C 
BRANCH  26  28
ATOM     27  C   UNL     1      -6.808   7.766  -7.631  0.00  0.00    +0.009 C 
ATOM     28  C   UNL     1      -6.855   8.765  -6.473  0.00  0.00    -0.000 C 
ATOM     29  C   UNL     1      -8.276   9.317  -6.334  0.00  0.00    +0.009 C 
ENDBRANCH  26  28
ENDBRANCH  18  26
ENDBRANCH  17  22
ENDBRANCH  16  17
ENDBRANCH   1  16
BRANCH   5  30
ATOM     30  C   UNL     1       1.610   3.142  -0.043  0.00  0.00    +0.200 C 
BRANCH  30  31
ATOM     31  C   UNL     1       0.954   1.788  -0.132  0.00  0.00    +0.125 A 
ATOM     32  C   UNL     1       1.592   0.615  -0.291  0.00  0.00    +0.046 A 
ATOM     33  C   UNL     1       0.598  -0.390  -0.323  0.00  0.00    +0.041 A 
ATOM     34  C   UNL     1      -0.588   0.229  -0.181  0.00  0.00    +0.195 A 
ATOM     35  O   UNL     1      -0.366   1.549  -0.066  0.00  0.00    -0.466 OA
ENDBRANCH  30  31
ENDBRANCH   5  30
TORSDOF 9
