REMARK  Name = ZINC16976337
REMARK  3 active torsions:
REMARK  status: ('A' for Active; 'I' for Inactive)
REMARK    1  A    between atoms: C_1  and  C_2
REMARK    2  A    between atoms: C_10  and  C_11
REMARK    3  A    between atoms: N_14  and  C_15
REMARK                            x       y       z     vdW  Elec       q    Type
REMARK                         _______ _______ _______ _____ _____    ______ ____
ROOT
ATOM      1  C   UNL     1      -0.453  -0.380   2.532  0.00  0.00    +0.202 A 
ATOM      2  N   UNL     1      -0.298  -1.276   3.505  0.00  0.00    -0.191 NA
ATOM      3  C   UNL     1      -0.066  -0.871   4.749  0.00  0.00    +0.225 A 
ATOM      4  N   UNL     1       0.095  -1.799   5.759  0.00  0.00    -0.281 N 
ATOM      5  N   UNL     1       0.010   0.428   5.023  0.00  0.00    -0.181 NA
ATOM      6  C   UNL     1      -0.145   1.323   4.053  0.00  0.00    +0.218 A 
ATOM      7  N   UNL     1      -0.372   0.921   2.806  0.00  0.00    -0.192 NA
ATOM      8  N   UNL     1      -0.066   2.672   4.338  0.00  0.00    -0.327 N 
ATOM      9  H   UNL     1       0.103   2.966   5.247  0.00  0.00    +0.145 HD
ATOM     10  H   UNL     1      -0.179   3.325   3.631  0.00  0.00    +0.145 HD
ATOM     11  H   UNL     1       0.130  -2.745   5.547  0.00  0.00    +0.155 HD
ENDROOT
BRANCH   1  21
ATOM     12  C   UNL     1      -0.840   1.497   0.083  0.00  0.00    +0.048 C 
ATOM     13  C   UNL     1      -0.878  -0.009   0.083  0.00  0.00    +0.006 A 
ATOM     14  C   UNL     1      -1.098  -0.884  -1.071  0.00  0.00    +0.024 A 
ATOM     15  C   UNL     1      -1.326  -0.664  -2.430  0.00  0.00    +0.012 A 
ATOM     16  C   UNL     1      -1.497  -1.728  -3.270  0.00  0.00    +0.001 A 
ATOM     17  C   UNL     1      -1.445  -3.026  -2.779  0.00  0.00    +0.004 A 
ATOM     18  C   UNL     1      -1.221  -3.264  -1.440  0.00  0.00    +0.047 A 
ATOM     19  C   UNL     1      -1.044  -2.196  -0.568  0.00  0.00    +0.136 A 
ATOM     20  O   UNL     1      -0.814  -2.115   0.758  0.00  0.00    -0.451 OA
ATOM     21  C   UNL     1      -0.710  -0.828   1.149  0.00  0.00    +0.176 A 
ENDBRANCH   1  21
BRANCH   4  22
ATOM     22  C   UNL     1       0.209  -1.375   7.088  0.00  0.00    +0.069 A 
ATOM     23  C   UNL     1      -0.399  -0.196   7.497  0.00  0.00    +0.026 A 
ATOM     24  C   UNL     1      -0.285   0.220   8.809  0.00  0.00    +0.002 A 
ATOM     25  C   UNL     1       0.433  -0.536   9.717  0.00  0.00    +0.003 A 
ATOM     26  C   UNL     1       1.041  -1.712   9.315  0.00  0.00    +0.040 A 
ATOM     27  C   UNL     1       0.926  -2.138   8.004  0.00  0.00    +0.144 A 
ATOM     28  F   UNL     1       1.514  -3.289   7.613  0.00  0.00    -0.204 F 
ENDBRANCH   4  22
TORSDOF 2
