REMARK  Name = ZINC24091338
REMARK  7 active torsions:
REMARK  status: ('A' for Active; 'I' for Inactive)
REMARK    1  A    between atoms: C_4  and  C_7
REMARK    2  A    between atoms: C_12  and  C_19
REMARK    3  A    between atoms: C_19  and  O_21
REMARK    4  A    between atoms: O_21  and  C_22
REMARK    5  A    between atoms: C_22  and  C_23
REMARK    6  A    between atoms: N_25  and  C_26
REMARK    7  A    between atoms: C_26  and  C_27
REMARK                            x       y       z     vdW  Elec       q    Type
REMARK                         _______ _______ _______ _____ _____    ______ ____
ROOT
ATOM      1  C   UNL     1       1.481  -3.680   3.026  0.00  0.00    +0.340 C 
ATOM      2  O   UNL     1       0.606  -4.392   2.577  0.00  0.00    -0.245 OA
ENDROOT
BRANCH   1   7
ATOM      3  C   UNL     1      -0.019   1.525   0.010  0.00  0.00    +0.211 C 
ATOM      4  C   UNL     1       0.002  -0.004   0.002  0.00  0.00    +0.085 C 
ATOM      5  C   UNL     1       0.928  -0.521   1.071  0.00  0.00    -0.029 A 
ATOM      6  C   UNL     1       0.783  -1.811   1.539  0.00  0.00    +0.019 A 
ATOM      7  C   UNL     1       1.640  -2.297   2.527  0.00  0.00    +0.059 A 
ATOM      8  C   UNL     1       2.647  -1.480   3.045  0.00  0.00    +0.016 A 
ATOM      9  C   UNL     1       2.793  -0.191   2.580  0.00  0.00    +0.016 A 
ATOM     10  C   UNL     1       1.934   0.293   1.594  0.00  0.00    +0.062 A 
ATOM     11  C   UNL     1       2.081   1.681   1.091  0.00  0.00    +0.340 C 
ATOM     12  O   UNL     1       2.824   2.476   1.631  0.00  0.00    -0.245 OA
ATOM     13  O   UNL     1       1.350   2.025   0.000  0.00  0.00    -0.453 OA
BRANCH   3  17
ATOM     14  C   UNL     1      -2.081   2.942  -3.452  0.00  0.00    +0.000 A 
ATOM     15  C   UNL     1      -2.730   2.892  -2.232  0.00  0.00    +0.000 A 
ATOM     16  C   UNL     1      -2.063   2.433  -1.112  0.00  0.00    +0.007 A 
ATOM     17  C   UNL     1      -0.746   2.025  -1.211  0.00  0.00    -0.007 A 
ATOM     18  C   UNL     1      -0.095   2.080  -2.429  0.00  0.00    +0.007 A 
ATOM     19  C   UNL     1      -0.764   2.534  -3.550  0.00  0.00    +0.000 A 
ENDBRANCH   3  17
ENDBRANCH   1   7
BRANCH   1  20
ATOM     20  O   UNL     1       2.308  -4.151   3.980  0.00  0.00    -0.452 OA
BRANCH  20  21
ATOM     21  C   UNL     1       2.094  -5.517   4.422  0.00  0.00    +0.328 C 
BRANCH  21  22
ATOM     22  C   UNL     1       3.106  -5.866   5.484  0.00  0.00    +0.251 C 
ATOM     23  O   UNL     1       3.926  -5.044   5.833  0.00  0.00    -0.272 OA
ATOM     24  N   UNL     1       3.099  -7.091   6.045  0.00  0.00    -0.309 N 
ATOM     25  H   UNL     1       2.354  -7.837   5.728  0.00  0.00    +0.149 HD
BRANCH  24  26
ATOM     26  C   UNL     1       4.082  -7.430   7.077  0.00  0.00    +0.152 C 
BRANCH  26  27
ATOM     27  C   UNL     1       3.856  -8.870   7.543  0.00  0.00    +0.228 C 
ATOM     28  C   UNL     1       4.801  -9.190   8.709  0.00  0.00    +0.275 C 
ATOM     29  O   UNL     1       4.573 -10.545   9.111  0.00  0.00    -0.485 OA
ATOM     30  C   UNL     1       4.496 -11.473   8.119  0.00  0.00    +0.162 A 
ATOM     31  C   UNL     1       4.635 -12.818   8.431  0.00  0.00    +0.049 A 
ATOM     32  C   UNL     1       4.556 -13.772   7.434  0.00  0.00    +0.004 A 
ATOM     33  C   UNL     1       4.338 -13.389   6.124  0.00  0.00    +0.004 A 
ATOM     34  C   UNL     1       4.201 -12.052   5.805  0.00  0.00    +0.049 A 
ATOM     35  C   UNL     1       4.280 -11.089   6.801  0.00  0.00    +0.163 A 
ATOM     36  O   UNL     1       4.145  -9.775   6.471  0.00  0.00    -0.480 OA
ENDBRANCH  26  27
ENDBRANCH  24  26
ENDBRANCH  21  22
ENDBRANCH  20  21
ENDBRANCH   1  20
TORSDOF 7
