REMARK  Name = ZINC16910473
REMARK  7 active torsions:
REMARK  status: ('A' for Active; 'I' for Inactive)
REMARK    1  A    between atoms: C_1  and  C_2
REMARK    2  A    between atoms: C_2  and  C_4
REMARK    3  A    between atoms: C_2  and  O_7
REMARK    4  A    between atoms: O_7  and  C_8
REMARK    5  A    between atoms: C_13  and  C_14
REMARK    6  A    between atoms: N_18  and  N_22
REMARK    7  A    between atoms: C_23  and  C_25
REMARK                            x       y       z     vdW  Elec       q    Type
REMARK                         _______ _______ _______ _____ _____    ______ ____
ROOT
ATOM      1  C   UNL     1      -4.626   5.250   3.940  0.00  0.00    +0.032 C 
ATOM      2  C   UNL     1      -3.322   4.880   3.857  0.00  0.00    +0.079 C 
ATOM      3  C   UNL     1      -2.391   4.963   2.714  0.00  0.00    +0.275 C 
ATOM      4  O   UNL     1      -2.738   5.414   1.639  0.00  0.00    -0.267 OA
ATOM      5  N   UNL     1      -1.162   4.519   2.918  0.00  0.00    -0.170 N 
ATOM      6  C   UNL     1      -0.780   4.025   4.113  0.00  0.00    +0.138 C 
ATOM      7  S   UNL     1       0.752   3.414   4.571  0.00  0.00    -0.026 S 
ATOM      8  S   UNL     1      -2.260   4.162   5.103  0.00  0.00    -0.059 S 
ENDROOT
BRANCH   1  14
ATOM      9  C   UNL     1      -6.203   6.786   2.776  0.00  0.00    +0.129 A 
ATOM     10  C   UNL     1      -6.873   7.180   1.629  0.00  0.00    +0.046 A 
ATOM     11  C   UNL     1      -6.707   6.475   0.452  0.00  0.00    +0.004 A 
ATOM     12  C   UNL     1      -5.868   5.373   0.406  0.00  0.00    +0.001 A 
ATOM     13  C   UNL     1      -5.188   4.969   1.534  0.00  0.00    +0.011 A 
ATOM     14  C   UNL     1      -5.346   5.674   2.733  0.00  0.00    +0.018 A 
BRANCH   9  15
ATOM     15  O   UNL     1      -6.370   7.475   3.933  0.00  0.00    -0.477 OA
BRANCH  15  17
ATOM     16  C   UNL     1      -6.694   9.811   3.409  0.00  0.00    +0.064 C 
ATOM     17  C   UNL     1      -7.339   8.525   3.930  0.00  0.00    +0.282 C 
BRANCH  17  18
ATOM     18  C   UNL     1      -7.844   8.748   5.332  0.00  0.00    +0.395 C 
ATOM     19  O   UNL     1      -7.354   8.140   6.254  0.00  0.00    -0.242 OA
ATOM     20  O   UNL     1      -8.838   9.621   5.557  0.00  0.00    -0.242 OA
ENDBRANCH  17  18
ENDBRANCH  15  17
ENDBRANCH   9  15
ENDBRANCH   1  14
BRANCH   5  21
ATOM     21  N   UNL     1      -0.234   4.568   1.870  0.00  0.00    -0.226 N 
ATOM     22  C   UNL     1       0.109   3.439   1.219  0.00  0.00    +0.233 C 
ATOM     23  O   UNL     1      -0.387   2.380   1.541  0.00  0.00    -0.274 OA
ATOM     24  H   UNL     1       0.215   5.529   1.578  0.00  0.00    +0.173 HD
BRANCH  22  25
ATOM     25  C   UNL     1       1.107   3.492   0.091  0.00  0.00    +0.076 C 
ATOM     26  C   UNL     1       2.438   4.035   0.614  0.00  0.00    +0.013 C 
ATOM     27  C   UNL     1       3.452   4.089  -0.530  0.00  0.00    +0.001 C 
ATOM     28  C   UNL     1       3.661   2.682  -1.093  0.00  0.00    +0.000 C 
ATOM     29  C   UNL     1       2.330   2.139  -1.616  0.00  0.00    +0.001 C 
ATOM     30  C   UNL     1       1.316   2.085  -0.471  0.00  0.00    +0.013 C 
ENDBRANCH  22  25
ENDBRANCH   5  21
TORSDOF 6
