REMARK  Name = ZINC41051644
REMARK  7 active torsions:
REMARK  status: ('A' for Active; 'I' for Inactive)
REMARK    1  A    between atoms: C_1  and  C_2
REMARK    2  A    between atoms: C_2  and  C_3
REMARK    3  A    between atoms: C_2  and  C_4
REMARK    4  A    between atoms: C_2  and  C_5
REMARK    5  A    between atoms: C_5  and  C_7
REMARK    6  A    between atoms: C_5  and  N_9
REMARK    7  A    between atoms: N_9  and  C_10
REMARK                            x       y       z     vdW  Elec       q    Type
REMARK                         _______ _______ _______ _____ _____    ______ ____
ROOT
ATOM      1  C   UNL     1       0.718  -0.497  -1.257  0.00  0.00    +0.163 C 
ENDROOT
BRANCH   1   3
ATOM      2  C   UNL     1      -0.019   1.526   0.010  0.00  0.00    +0.013 C 
ATOM      3  C   UNL     1       0.002  -0.004   0.002  0.00  0.00    -0.009 C 
ATOM      4  C   UNL     1       0.742  -0.511   1.242  0.00  0.00    +0.013 C 
ATOM      5  C   UNL     1      -1.433  -0.534   0.013  0.00  0.00    +0.013 C 
ENDBRANCH   1   3
BRANCH   1   6
ATOM      6  N   UNL     1       0.738  -1.966  -1.265  0.00  0.00    -0.304 NA
ATOM      7  C   UNL     1       0.852  -2.484  -2.635  0.00  0.00    +0.102 C 
ATOM      8  H   UNL     1       1.481  -2.321  -0.682  0.00  0.00    +0.123 HD
ENDBRANCH   1   6
BRANCH   1   9
ATOM      9  C   UNL     1       2.099   0.012  -1.267  0.00  0.00    +0.082 C 
ATOM     10  N   UNL     1       3.165   0.405  -1.275  0.00  0.00    -0.195 NA
ENDBRANCH   1   9
TORSDOF 3
