REMARK  Name = ZINC27100476
REMARK  6 active torsions:
REMARK  status: ('A' for Active; 'I' for Inactive)
REMARK    1  A    between atoms: C_1  and  C_2
REMARK    2  A    between atoms: C_5  and  C_8
REMARK    3  A    between atoms: N_14  and  C_15
REMARK    4  A    between atoms: C_15  and  C_16
REMARK    5  A    between atoms: C_17  and  O_33
REMARK    6  A    between atoms: C_24  and  C_27
REMARK                            x       y       z     vdW  Elec       q    Type
REMARK                         _______ _______ _______ _____ _____    ______ ____
ROOT
ATOM      1  C   UNL     1       0.150   5.669   0.029  0.00  0.00    +0.020 A 
ATOM      2  C   UNL     1      -1.002   6.437   0.042  0.00  0.00    +0.122 A 
ATOM      3  C   UNL     1      -2.257   5.833   0.050  0.00  0.00    +0.046 A 
ATOM      4  C   UNL     1      -2.367   4.472   0.046  0.00  0.00    +0.019 A 
ATOM      5  C   UNL     1      -1.216   3.684   0.032  0.00  0.00    +0.065 A 
ATOM      6  C   UNL     1       0.056   4.284   0.024  0.00  0.00    +0.143 A 
ATOM      7  O   UNL     1       1.167   3.522   0.009  0.00  0.00    -0.462 OA
ATOM      8  C   UNL     1       1.141   2.187   0.003  0.00  0.00    +0.208 A 
ATOM      9  C   UNL     1      -0.018   1.479   0.010  0.00  0.00    +0.064 A 
ATOM     10  C   UNL     1      -1.295   2.212   0.020  0.00  0.00    +0.200 A 
ATOM     11  O   UNL     1      -2.366   1.630   0.022  0.00  0.00    -0.286 OA
ENDROOT
BRANCH   9  12
ATOM     12  C   UNL     1       0.002  -0.004   0.002  0.00  0.00    -0.011 A 
ATOM     13  C   UNL     1      -0.750  -0.719   0.933  0.00  0.00    +0.009 A 
ATOM     14  C   UNL     1      -0.732  -2.099   0.917  0.00  0.00    +0.001 A 
ATOM     15  C   UNL     1       0.040  -2.772  -0.013  0.00  0.00    +0.000 A 
ATOM     16  C   UNL     1       0.792  -2.068  -0.935  0.00  0.00    +0.001 A 
ATOM     17  C   UNL     1       0.777  -0.688  -0.933  0.00  0.00    +0.009 A 
ENDBRANCH   9  12
BRANCH   2  18
ATOM     18  O   UNL     1      -0.908   7.792   0.047  0.00  0.00    -0.506 OA
ATOM     19  H   UNL     1      -1.820   8.406   0.057  0.00  0.00    +0.292 HD
ENDBRANCH   2  18
BRANCH   1  20
ATOM     20  C   UNL     1       1.502   6.335   0.020  0.00  0.00    -0.035 C 
BRANCH  20  26
ATOM     21  C   UNL     1       3.334   6.979  -1.425  0.00  0.00    -0.037 C 
ATOM     22  C   UNL     1       3.785   7.060  -2.885  0.00  0.00    -0.011 C 
ATOM     23  C   UNL     1       2.902   8.064  -3.631  0.00  0.00    -0.003 C 
ATOM     24  C   UNL     1       1.438   7.628  -3.516  0.00  0.00    -0.019 C 
ATOM     25  C   UNL     1       1.056   7.531  -2.037  0.00  0.00    -0.078 C 
ATOM     26  N   UNL     1       1.929   6.558  -1.368  0.00  0.00    +0.387 N 
ATOM     27  H   UNL     1       1.842   5.603  -1.907  0.00  0.00    -0.080 HD
BRANCH  21  32
ATOM     28  C   UNL     1       6.610   3.139   1.389  0.00  0.00    +0.044 C 
ATOM     29  C   UNL     1       5.755   4.140   0.656  0.00  0.00    -0.050 A 
ATOM     30  C   UNL     1       6.018   5.492   0.775  0.00  0.00    +0.003 A 
ATOM     31  C   UNL     1       5.235   6.410   0.102  0.00  0.00    +0.002 A 
ATOM     32  C   UNL     1       4.188   5.977  -0.691  0.00  0.00    -0.061 A 
ATOM     33  C   UNL     1       3.922   4.626  -0.806  0.00  0.00    +0.002 A 
ATOM     34  C   UNL     1       4.708   3.707  -0.136  0.00  0.00    +0.003 A 
ENDBRANCH  21  32
ENDBRANCH  20  26
ENDBRANCH   1  20
TORSDOF 5
