REMARK  Name = ZINC39243287
REMARK  11 active torsions:
REMARK  status: ('A' for Active; 'I' for Inactive)
REMARK    1  A    between atoms: C_1  and  C_2
REMARK    2  A    between atoms: C_2  and  C_3
REMARK    3  A    between atoms: C_3  and  C_4
REMARK    4  A    between atoms: C_6  and  C_18
REMARK    5  A    between atoms: C_8  and  C_16
REMARK    6  A    between atoms: C_9  and  N_15
REMARK    7  A    between atoms: C_20  and  O_33
REMARK    8  A    between atoms: C_21  and  O_25
REMARK    9  A    between atoms: O_25  and  C_26
REMARK   10  A    between atoms: C_26  and  C_27
REMARK   11  A    between atoms: O_33  and  C_34
REMARK                            x       y       z     vdW  Elec       q    Type
REMARK                         _______ _______ _______ _____ _____    ______ ____
ROOT
ATOM      1  C   UNL     1       0.866  -1.780  -1.804  0.00  0.00    +0.069 C 
ATOM      2  C   UNL     1      -0.089  -2.543  -2.279  0.00  0.00    +0.030 C 
ATOM      3  C   UNL     1      -1.463  -2.264  -2.826  0.00  0.00    +0.098 C 
ATOM      4  C   UNL     1      -2.362  -3.333  -2.233  0.00  0.00    +0.097 C 
ATOM      5  C   UNL     1      -1.860  -4.380  -1.545  0.00  0.00    +0.195 C 
ATOM      6  O   UNL     1      -0.565  -4.612  -1.266  0.00  0.00    -0.448 OA
ATOM      7  C   UNL     1       0.413  -3.975  -2.093  0.00  0.00    +0.343 C 
ATOM      8  N   UNL     1       1.682  -3.763  -1.388  0.00  0.00    -0.138 NA
ATOM      9  N   UNL     1       1.868  -2.543  -1.296  0.00  0.00    -0.155 NA
ENDROOT
BRANCH   3  10
ATOM     10  C   UNL     1      -1.926  -0.895  -2.399  0.00  0.00    -0.030 A 
ATOM     11  C   UNL     1      -2.088   0.104  -3.341  0.00  0.00    +0.054 A 
ATOM     12  C   UNL     1      -2.514   1.363  -2.950  0.00  0.00    +0.163 A 
ATOM     13  C   UNL     1      -2.777   1.620  -1.608  0.00  0.00    +0.176 A 
ATOM     14  C   UNL     1      -2.613   0.615  -0.668  0.00  0.00    +0.063 A 
ATOM     15  C   UNL     1      -2.192  -0.642  -1.066  0.00  0.00    +0.023 A 
ATOM     16 BR   UNL     1      -2.970   0.959   1.157  0.00  0.00    -0.046 Br
BRANCH  12  17
ATOM     17  O   UNL     1      -2.673   2.346  -3.876  0.00  0.00    -0.491 OA
ATOM     18  C   UNL     1      -2.384   2.011  -5.235  0.00  0.00    +0.277 C 
ENDBRANCH  12  17
BRANCH  13  19
ATOM     19  O   UNL     1      -3.195   2.855  -1.220  0.00  0.00    -0.483 OA
BRANCH  19  20
ATOM     20  C   UNL     1      -4.604   3.088  -1.204  0.00  0.00    +0.264 C 
BRANCH  20  21
ATOM     21  C   UNL     1      -4.875   4.499  -0.751  0.00  0.00    -0.010 A 
ATOM     22  C   UNL     1      -5.043   4.774   0.593  0.00  0.00    +0.007 A 
ATOM     23  C   UNL     1      -5.292   6.068   1.009  0.00  0.00    +0.000 A 
ATOM     24  C   UNL     1      -5.372   7.089   0.080  0.00  0.00    +0.000 A 
ATOM     25  C   UNL     1      -5.203   6.815  -1.264  0.00  0.00    +0.000 A 
ATOM     26  C   UNL     1      -4.950   5.521  -1.680  0.00  0.00    +0.007 A 
ENDBRANCH  20  21
ENDBRANCH  19  20
ENDBRANCH  13  19
ENDBRANCH   3  10
BRANCH   5  27
ATOM     27  N   UNL     1      -2.764  -5.301  -1.081  0.00  0.00    -0.329 N 
ATOM     28  H   UNL     1      -3.711  -5.182  -1.254  0.00  0.00    +0.145 HD
ATOM     29  H   UNL     1      -2.457  -6.073  -0.579  0.00  0.00    +0.145 HD
ENDBRANCH   5  27
BRANCH   4  30
ATOM     30  C   UNL     1      -3.779  -3.229  -2.410  0.00  0.00    +0.101 C 
ATOM     31  N   UNL     1      -4.903  -3.147  -2.549  0.00  0.00    -0.191 NA
ENDBRANCH   4  30
BRANCH   1  32
ATOM     32  C   UNL     1       0.856  -0.274  -1.825  0.00  0.00    +0.057 C 
BRANCH  32  34
ATOM     33  C   UNL     1       1.402   1.748  -3.187  0.00  0.00    +0.004 C 
ATOM     34  C   UNL     1       1.501   0.223  -3.120  0.00  0.00    +0.003 C 
ENDBRANCH  32  34
ENDBRANCH   1  32
TORSDOF 9
