REMARK  Name = ZINC67545021
REMARK  6 active torsions:
REMARK  status: ('A' for Active; 'I' for Inactive)
REMARK    1  A    between atoms: C_1  and  C_2
REMARK    2  A    between atoms: C_2  and  C_3
REMARK    3  A    between atoms: C_5  and  C_8
REMARK    4  A    between atoms: C_8  and  N_9
REMARK    5  A    between atoms: N_9  and  C_10
REMARK    6  A    between atoms: N_13  and  C_14
REMARK                            x       y       z     vdW  Elec       q    Type
REMARK                         _______ _______ _______ _____ _____    ______ ____
ROOT
ATOM      1  N   UNL     1      -4.973  -0.362  -2.454  0.00  0.00    -0.283 N 
ATOM      2  C   UNL     1      -4.348   0.492  -3.467  0.00  0.00    +0.134 C 
ATOM      3  C   UNL     1      -6.171  -0.025  -1.936  0.00  0.00    +0.307 C 
ATOM      4  O   UNL     1      -6.691  -0.734  -1.095  0.00  0.00    -0.252 OA
ATOM      5  N   UNL     1      -6.793   1.097  -2.349  0.00  0.00    -0.269 N 
ATOM      6  H   UNL     1      -6.350   1.697  -2.970  0.00  0.00    +0.156 HD
ENDROOT
BRANCH   5   7
ATOM      7  C   UNL     1      -8.080   1.398  -1.883  0.00  0.00    +0.038 A 
ATOM      8  C   UNL     1      -8.995   2.018  -2.722  0.00  0.00    +0.027 A 
ATOM      9  C   UNL     1     -10.265   2.314  -2.264  0.00  0.00    +0.051 A 
ATOM     10  C   UNL     1     -10.627   1.994  -0.965  0.00  0.00    +0.173 A 
ATOM     11  C   UNL     1      -9.711   1.371  -0.121  0.00  0.00    +0.174 A 
ATOM     12  C   UNL     1      -8.441   1.070  -0.583  0.00  0.00    +0.073 A 
ATOM     13  O   UNL     1     -10.305   1.164   1.091  0.00  0.00    -0.395 OA
ATOM     14  C   UNL     1     -11.454   2.031   1.109  0.00  0.00    +0.589 C 
ATOM     15  O   UNL     1     -11.796   2.176  -0.282  0.00  0.00    -0.395 OA
ATOM     16  F   UNL     1     -12.506   1.438   1.815  0.00  0.00    -0.125 F 
ATOM     17  F   UNL     1     -11.125   3.272   1.666  0.00  0.00    -0.125 F 
ENDBRANCH   5   7
BRANCH   1  18
ATOM     18  C   UNL     1      -4.298  -1.581  -2.005  0.00  0.00    +0.164 C 
BRANCH  18  21
ATOM     19  C   UNL     1      -1.424  -0.528   0.039  0.00  0.00    +0.078 A 
ATOM     20  N   UNL     1      -2.188  -0.806  -0.988  0.00  0.00    -0.247 NA
ATOM     21  C   UNL     1      -3.415  -1.261  -0.827  0.00  0.00    +0.066 A 
ATOM     22  C   UNL     1      -3.846  -1.429   0.450  0.00  0.00    +0.071 A 
ATOM     23  S   UNL     1      -2.400  -0.906   1.357  0.00  0.00    -0.080 S 
BRANCH  19  25
ATOM     24  C   UNL     1      -0.035   1.526   0.056  0.00  0.00    +0.011 C 
ATOM     25  C   UNL     1      -0.011  -0.004   0.040  0.00  0.00    +0.059 C 
ENDBRANCH  19  25
ENDBRANCH  18  21
ENDBRANCH   1  18
TORSDOF 4
