REMARK  Name = ZINC01669483
REMARK  11 active torsions:
REMARK  status: ('A' for Active; 'I' for Inactive)
REMARK    1  A    between atoms: C_1  and  C_2
REMARK    2  A    between atoms: C_2  and  N_3
REMARK    3  A    between atoms: N_3  and  C_4
REMARK    4  A    between atoms: N_3  and  C_6
REMARK    5  A    between atoms: C_4  and  C_5
REMARK    6  A    between atoms: C_9  and  N_12
REMARK    7  A    between atoms: N_12  and  C_13
REMARK    8  A    between atoms: C_13  and  C_15
REMARK    9  A    between atoms: C_13  and  C_22
REMARK   10  A    between atoms: C_22  and  C_24
REMARK   11  A    between atoms: C_22  and  O_31
REMARK                            x       y       z     vdW  Elec       q    Type
REMARK                         _______ _______ _______ _____ _____    ______ ____
ROOT
ATOM      1  C   UNL     1      -3.023   0.834  -1.417  0.00  0.00    +0.134 C 
ENDROOT
BRANCH   1   2
ATOM      2  C   UNL     1      -4.376   0.171  -1.405  0.00  0.00    -0.024 A 
ATOM      3  C   UNL     1      -5.505   0.911  -1.111  0.00  0.00    +0.007 A 
ATOM      4  C   UNL     1      -6.748   0.305  -1.105  0.00  0.00    +0.020 A 
ATOM      5  C   UNL     1      -6.859  -1.045  -1.385  0.00  0.00    +0.041 A 
ATOM      6  C   UNL     1      -5.728  -1.787  -1.674  0.00  0.00    +0.020 A 
ATOM      7  C   UNL     1      -4.487  -1.178  -1.684  0.00  0.00    +0.007 A 
ATOM      8 CL   UNL     1      -8.418  -1.809  -1.371  0.00  0.00    -0.084 Cl
ENDBRANCH   1   2
BRANCH   1   9
ATOM      9  N   UNL     1      -3.133   2.159  -2.032  0.00  0.00    -0.334 N 
ATOM     10  H   UNL     1      -3.256   2.944  -1.475  0.00  0.00    +0.147 HD
BRANCH   9  14
ATOM     11  C   UNL     1      -2.919   2.558  -6.177  0.00  0.00    +0.030 A 
ATOM     12  C   UNL     1      -3.095   3.681  -5.379  0.00  0.00    +0.025 A 
ATOM     13  C   UNL     1      -3.166   3.549  -4.006  0.00  0.00    +0.025 A 
ATOM     14  C   UNL     1      -3.062   2.293  -3.424  0.00  0.00    +0.028 A 
ATOM     15  C   UNL     1      -2.880   1.171  -4.221  0.00  0.00    +0.025 A 
ATOM     16  C   UNL     1      -2.814   1.302  -5.594  0.00  0.00    +0.025 A 
BRANCH  11  17
ATOM     17  N   UNL     1      -2.847   2.692  -7.568  0.00  0.00    -0.330 N 
BRANCH  17  19
ATOM     18  C   UNL     1      -4.027   0.934  -8.792  0.00  0.00    +0.024 C 
ATOM     19  C   UNL     1      -2.661   1.508  -8.410  0.00  0.00    +0.102 C 
ENDBRANCH  17  19
BRANCH  17  20
ATOM     20  C   UNL     1      -2.957   4.017  -8.183  0.00  0.00    +0.102 C 
ATOM     21  C   UNL     1      -1.565   4.639  -8.308  0.00  0.00    +0.024 C 
ENDBRANCH  17  20
ENDBRANCH  11  17
ENDBRANCH   9  14
ENDBRANCH   1   9
BRANCH   1  22
ATOM     22  C   UNL     1      -2.514   0.979   0.019  0.00  0.00    +0.169 C 
BRANCH  22  23
ATOM     23  C   UNL     1      -1.219   1.750   0.017  0.00  0.00    -0.017 A 
ATOM     24  C   UNL     1      -0.013   1.076   0.008  0.00  0.00    +0.007 A 
ATOM     25  C   UNL     1       1.175   1.783   0.000  0.00  0.00    +0.020 A 
ATOM     26  C   UNL     1       1.156   3.166   0.008  0.00  0.00    +0.041 A 
ATOM     27  C   UNL     1      -0.052   3.841   0.023  0.00  0.00    +0.020 A 
ATOM     28  C   UNL     1      -1.239   3.133   0.031  0.00  0.00    +0.007 A 
ATOM     29 CL   UNL     1       2.647   4.055  -0.002  0.00  0.00    -0.084 Cl
ENDBRANCH  22  23
BRANCH  22  30
ATOM     30  O   UNL     1      -3.484   1.679   0.800  0.00  0.00    -0.385 OA
ATOM     31  H   UNL     1      -3.683   2.568   0.476  0.00  0.00    +0.210 HD
ENDBRANCH  22  30
ENDBRANCH   1  22
TORSDOF 9
