REMARK  Name = ZINC39631972
REMARK  13 active torsions:
REMARK  status: ('A' for Active; 'I' for Inactive)
REMARK    1  A    between atoms: C_1  and  C_2
REMARK    2  A    between atoms: C_5  and  C_9
REMARK    3  A    between atoms: C_6  and  C_8
REMARK    4  A    between atoms: C_13  and  C_22
REMARK    5  A    between atoms: N_24  and  C_25
REMARK    6  A    between atoms: C_25  and  C_27
REMARK    7  A    between atoms: C_25  and  C_28
REMARK    8  A    between atoms: C_28  and  C_29
REMARK    9  A    between atoms: C_29  and  C_30
REMARK   10  A    between atoms: C_30  and  C_31
REMARK   11  A    between atoms: C_31  and  C_32
REMARK   12  A    between atoms: C_31  and  C_33
REMARK   13  A    between atoms: C_31  and  O_34
REMARK                            x       y       z     vdW  Elec       q    Type
REMARK                         _______ _______ _______ _____ _____    ______ ____
ROOT
ATOM      1  C   UNL     1       0.595  -3.594  -0.423  0.00  0.00    +0.247 C 
ATOM      2  O   UNL     1       1.077  -2.481  -0.505  0.00  0.00    -0.270 OA
ATOM      3  N   UNL     1      -0.049  -4.129  -1.479  0.00  0.00    -0.296 N 
ATOM      4  C   UNL     1      -0.352  -3.486  -2.779  0.00  0.00    +0.121 C 
ATOM      5  C   UNL     1      -0.122  -4.598  -3.827  0.00  0.00    +0.100 C 
ATOM      6  C   UNL     1      -0.298  -5.913  -3.049  0.00  0.00    -0.004 C 
ATOM      7  C   UNL     1      -0.609  -5.496  -1.604  0.00  0.00    +0.115 C 
ATOM      8  C   UNL     1      -1.456  -6.719  -3.629  0.00  0.00    -0.010 C 
ATOM      9  C   UNL     1      -1.575  -8.047  -2.876  0.00  0.00    -0.082 C 
ATOM     10  N   UNL     1      -0.319  -8.797  -3.003  0.00  0.00    +0.379 N 
ATOM     11  C   UNL     1       0.773  -8.056  -2.361  0.00  0.00    -0.082 C 
ATOM     12  C   UNL     1       0.991  -6.728  -3.091  0.00  0.00    -0.010 C 
ATOM     13  H   UNL     1      -0.420  -9.697  -2.558  0.00  0.00    -0.086 HD
ATOM     14  H   UNL     1      -0.105  -8.929  -3.980  0.00  0.00    -0.086 HD
ENDROOT
BRANCH   1  19
ATOM     15  C   UNL     1       1.061  -6.577   4.476  0.00  0.00    +0.044 C 
ATOM     16  C   UNL     1       0.939  -5.796   3.193  0.00  0.00    -0.050 A 
ATOM     17  C   UNL     1      -0.233  -5.855   2.459  0.00  0.00    +0.004 A 
ATOM     18  C   UNL     1      -0.351  -5.142   1.284  0.00  0.00    +0.013 A 
ATOM     19  C   UNL     1       0.714  -4.360   0.836  0.00  0.00    +0.040 A 
ATOM     20  C   UNL     1       1.893  -4.305   1.581  0.00  0.00    -0.038 A 
ATOM     21  C   UNL     1       1.997  -5.018   2.757  0.00  0.00    +0.007 A 
ATOM     22  C   UNL     1       3.049  -3.463   1.104  0.00  0.00    +0.044 C 
ENDBRANCH   1  19
BRANCH   5  23
ATOM     23  C   UNL     1       1.270  -4.504  -4.396  0.00  0.00    +0.218 C 
ATOM     24  O   UNL     1       2.183  -4.107  -3.702  0.00  0.00    -0.275 OA
ATOM     25  N   UNL     1       1.502  -4.861  -5.674  0.00  0.00    -0.312 N 
ATOM     26  H   UNL     1       0.762  -5.111  -6.250  0.00  0.00    +0.149 HD
BRANCH  25  27
ATOM     27  C   UNL     1       2.871  -4.871  -6.196  0.00  0.00    +0.070 C 
ATOM     28  C   UNL     1       3.521  -6.223  -5.896  0.00  0.00    +0.028 C 
BRANCH  27  29
ATOM     29  C   UNL     1       2.842  -4.642  -7.708  0.00  0.00    +0.022 C 
BRANCH  29  30
ATOM     30  C   UNL     1       2.280  -3.251  -8.004  0.00  0.00    +0.005 C 
BRANCH  30  31
ATOM     31  C   UNL     1       2.143  -3.066  -9.516  0.00  0.00    +0.034 C 
BRANCH  31  32
ATOM     32  C   UNL     1       1.686  -1.637  -9.816  0.00  0.00    +0.061 C 
ATOM     33  C   UNL     1       1.521  -1.461 -11.327  0.00  0.00    +0.041 C 
ATOM     34  C   UNL     1       0.347  -1.374  -9.124  0.00  0.00    +0.041 C 
BRANCH  32  35
ATOM     35  O   UNL     1       2.663  -0.713  -9.333  0.00  0.00    -0.389 OA
ATOM     36  H   UNL     1       3.538  -0.822  -9.729  0.00  0.00    +0.210 HD
ENDBRANCH  32  35
ENDBRANCH  31  32
ENDBRANCH  30  31
ENDBRANCH  29  30
ENDBRANCH  27  29
ENDBRANCH  25  27
ENDBRANCH   5  23
TORSDOF 8
