REMARK  Name = ZINC09086764
REMARK  4 active torsions:
REMARK  status: ('A' for Active; 'I' for Inactive)
REMARK    1  A    between atoms: C_1  and  C_2
REMARK    2  A    between atoms: C_4  and  C_15
REMARK    3  A    between atoms: C_5  and  C_14
REMARK    4  A    between atoms: N_6  and  C_7
REMARK                            x       y       z     vdW  Elec       q    Type
REMARK                         _______ _______ _______ _____ _____    ______ ____
ROOT
ATOM      1  C   UNL     1       0.041  -3.353  -1.534  0.00  0.00    +0.211 C 
ATOM      2  N   UNL     1      -0.413  -3.005  -2.892  0.00  0.00    -0.293 N 
ATOM      3  C   UNL     1       0.466  -2.451  -3.785  0.00  0.00    +0.183 C 
ATOM      4  N   UNL     1       1.757  -2.728  -3.739  0.00  0.00    -0.183 NA
ATOM      5  C   UNL     1       2.211  -3.528  -2.747  0.00  0.00    +0.236 A 
ATOM      6  N   UNL     1       1.411  -3.864  -1.663  0.00  0.00    -0.285 N 
ATOM      7  C   UNL     1       2.138  -4.684  -0.853  0.00  0.00    +0.072 A 
ATOM      8  C   UNL     1       1.849  -5.333   0.341  0.00  0.00    +0.028 A 
ATOM      9  C   UNL     1       2.855  -6.106   0.900  0.00  0.00    +0.002 A 
ATOM     10  C   UNL     1       4.098  -6.236   0.305  0.00  0.00    +0.002 A 
ATOM     11  C   UNL     1       4.410  -5.602  -0.883  0.00  0.00    +0.030 A 
ATOM     12  C   UNL     1       3.410  -4.816  -1.467  0.00  0.00    +0.091 A 
ATOM     13  N   UNL     1       3.392  -4.082  -2.604  0.00  0.00    -0.210 NA
ATOM     14  N   UNL     1      -0.003  -1.595  -4.744  0.00  0.00    -0.331 N 
ATOM     15  H   UNL     1      -0.949  -1.386  -4.786  0.00  0.00    +0.145 HD
ATOM     16  H   UNL     1       0.611  -1.198  -5.381  0.00  0.00    +0.145 HD
ATOM     17  H   UNL     1      -1.333  -3.168  -3.153  0.00  0.00    +0.151 HD
ENDROOT
BRANCH   1  21
ATOM     18  C   UNL     1      -0.018   1.503   0.010  0.00  0.00    +0.064 C 
ATOM     19  C   UNL     1       0.002  -0.004   0.002  0.00  0.00    +0.021 A 
ATOM     20  C   UNL     1       0.008  -0.789  -1.095  0.00  0.00    +0.030 A 
ATOM     21  C   UNL     1       0.029  -2.128  -0.656  0.00  0.00    +0.014 A 
ATOM     22  C   UNL     1       0.034  -2.113   0.692  0.00  0.00    +0.028 A 
ATOM     23  N   UNL     1       0.024  -0.811   1.104  0.00  0.00    -0.317 N 
ATOM     24  C   UNL     1       0.055  -3.323   1.589  0.00  0.00    +0.064 C 
BRANCH  23  25
ATOM     25  C   UNL     1       0.030  -0.374   2.437  0.00  0.00    +0.047 A 
ATOM     26  C   UNL     1       1.133  -0.621   3.243  0.00  0.00    +0.027 A 
ATOM     27  C   UNL     1       1.137  -0.190   4.555  0.00  0.00    +0.017 A 
ATOM     28  C   UNL     1       0.043   0.486   5.066  0.00  0.00    +0.018 A 
ATOM     29  C   UNL     1      -1.057   0.732   4.265  0.00  0.00    +0.017 A 
ATOM     30  C   UNL     1      -1.064   0.309   2.950  0.00  0.00    +0.027 A 
ATOM     31 BR   UNL     1       0.052   1.073   6.864  0.00  0.00    -0.050 Br
ENDBRANCH  23  25
ENDBRANCH   1  21
TORSDOF 2
