REMARK  Name = ZINC02456855
REMARK  8 active torsions:
REMARK  status: ('A' for Active; 'I' for Inactive)
REMARK    1  A    between atoms: C_1  and  C_2
REMARK    2  A    between atoms: C_2  and  C_3
REMARK    3  A    between atoms: C_2  and  C_4
REMARK    4  A    between atoms: C_2  and  N_5
REMARK    5  A    between atoms: C_6  and  N_14
REMARK    6  A    between atoms: C_15  and  C_17
REMARK    7  A    between atoms: C_20  and  S_23
REMARK    8  A    between atoms: S_23  and  N_26
REMARK                            x       y       z     vdW  Elec       q    Type
REMARK                         _______ _______ _______ _____ _____    ______ ____
ROOT
ATOM      1  N   UNL     1       0.692  -2.820  -0.726  0.00  0.00    -0.266 N 
ATOM      2  C   UNL     1       0.202  -2.613   0.513  0.00  0.00    +0.249 C 
ATOM      3  O   UNL     1      -0.052  -1.484   0.886  0.00  0.00    -0.270 OA
ATOM      4  H   UNL     1       0.842  -3.724  -1.044  0.00  0.00    +0.157 HD
ENDROOT
BRANCH   1   6
ATOM      5  N   UNL     1       1.912  -1.704  -2.534  0.00  0.00    -0.245 N 
ATOM      6  C   UNL     1       0.983  -1.734  -1.550  0.00  0.00    +0.128 A 
ATOM      7  C   UNL     1       0.379  -0.498  -1.510  0.00  0.00    +0.028 A 
ATOM      8  C   UNL     1       0.957   0.288  -2.492  0.00  0.00    +0.081 A 
ATOM      9  N   UNL     1       1.885  -0.432  -3.106  0.00  0.00    -0.173 NA
ATOM     10  C   UNL     1       0.432   1.716  -2.627  0.00  0.00    +0.161 C 
ATOM     11  S   UNL     1      -1.141   1.630  -1.677  0.00  0.00    +0.033 S 
ATOM     12  O   UNL     1      -1.244   2.765  -0.829  0.00  0.00    -0.257 OA
ATOM     13  C   UNL     1      -0.722   0.148  -0.671  0.00  0.00    +0.144 C 
BRANCH   5  15
ATOM     14  C   UNL     1       3.782  -2.321  -3.983  0.00  0.00    +0.036 C 
ATOM     15  C   UNL     1       2.792  -2.808  -2.924  0.00  0.00    +0.057 C 
ATOM     16  C   UNL     1       1.952  -3.951  -3.498  0.00  0.00    +0.036 C 
ATOM     17  C   UNL     1       3.560  -3.306  -1.698  0.00  0.00    +0.036 C 
ENDBRANCH   5  15
ENDBRANCH   1   6
BRANCH   2  18
ATOM     18  C   UNL     1      -0.026  -3.759   1.418  0.00  0.00    +0.037 A 
ATOM     19  C   UNL     1       0.270  -5.056   0.995  0.00  0.00    +0.015 A 
ATOM     20  C   UNL     1       0.054  -6.122   1.845  0.00  0.00    +0.029 A 
ATOM     21  C   UNL     1      -0.453  -5.907   3.114  0.00  0.00    +0.106 A 
ATOM     22  C   UNL     1      -0.749  -4.624   3.539  0.00  0.00    +0.029 A 
ATOM     23  C   UNL     1      -0.533  -3.549   2.701  0.00  0.00    +0.015 A 
BRANCH  21  24
ATOM     24  S   UNL     1      -0.726  -7.273   4.192  0.00  0.00    +0.061 S 
ATOM     25  O   UNL     1      -1.717  -6.863   5.124  0.00  0.00    -0.153 OA
ATOM     26  O   UNL     1      -0.884  -8.418   3.366  0.00  0.00    -0.153 OA
BRANCH  24  27
ATOM     27  N   UNL     1       0.669  -7.501   5.055  0.00  0.00    -0.177 NA
ATOM     28  C   UNL     1       1.794  -8.360   4.655  0.00  0.00    +0.109 C 
ATOM     29  C   UNL     1       2.852  -8.281   5.775  0.00  0.00    +0.018 C 
ATOM     30  C   UNL     1       2.023  -7.827   7.005  0.00  0.00    +0.018 C 
ATOM     31  C   UNL     1       0.992  -6.872   6.348  0.00  0.00    +0.109 C 
ENDBRANCH  24  27
ENDBRANCH  21  24
ENDBRANCH   2  18
TORSDOF 5
