REMARK  Name = ZINC35900194
REMARK  8 active torsions:
REMARK  status: ('A' for Active; 'I' for Inactive)
REMARK    1  A    between atoms: C_1  and  C_2
REMARK    2  A    between atoms: C_2  and  C_4
REMARK    3  A    between atoms: C_2  and  O_12
REMARK    4  A    between atoms: C_4  and  C_6
REMARK    5  A    between atoms: O_12  and  C_13
REMARK    6  A    between atoms: C_13  and  C_15
REMARK    7  A    between atoms: C_18  and  N_21
REMARK    8  A    between atoms: C_29  and  C_38
REMARK                            x       y       z     vdW  Elec       q    Type
REMARK                         _______ _______ _______ _____ _____    ______ ____
ROOT
ATOM      1  C   UNL     1      -0.139  -1.489  -3.723  0.00  0.00    +0.059 A 
ATOM      2  C   UNL     1       1.238  -1.724  -3.663  0.00  0.00    +0.017 A 
ATOM      3  C   UNL     1       1.917  -2.116  -4.795  0.00  0.00    +0.025 A 
ATOM      4  C   UNL     1       1.235  -2.279  -5.996  0.00  0.00    +0.044 A 
ATOM      5  C   UNL     1      -0.135  -2.046  -6.059  0.00  0.00    +0.025 A 
ATOM      6  C   UNL     1      -0.822  -1.659  -4.931  0.00  0.00    +0.017 A 
ENDROOT
BRANCH   4   7
ATOM      7  N   UNL     1       1.928  -2.677  -7.143  0.00  0.00    -0.210 N 
ATOM      8  C   UNL     1       3.277  -2.933  -7.169  0.00  0.00    +0.230 C 
ATOM      9  O   UNL     1       4.012  -3.124  -6.225  0.00  0.00    -0.274 OA
ATOM     10  C   UNL     1       3.639  -2.924  -8.625  0.00  0.00    +0.091 C 
ATOM     11  C   UNL     1       4.700  -3.883  -9.200  0.00  0.00    +0.002 C 
ATOM     12  C   UNL     1       4.929  -3.182 -10.595  0.00  0.00    +0.012 C 
ATOM     13  C   UNL     1       3.536  -3.306 -11.265  0.00  0.00    +0.023 C 
ATOM     14  C   UNL     1       2.699  -4.265 -10.376  0.00  0.00    +0.009 C 
ATOM     15  C   UNL     1       3.895  -5.131  -9.725  0.00  0.00    +0.009 C 
ATOM     16  C   UNL     1       2.306  -3.637  -9.092  0.00  0.00    +0.092 C 
ATOM     17  C   UNL     1       1.330  -2.862  -8.377  0.00  0.00    +0.230 C 
ATOM     18  O   UNL     1       0.250  -2.466  -8.762  0.00  0.00    -0.274 OA
BRANCH  13  19
ATOM     19  C   UNL     1       2.873  -1.954 -11.332  0.00  0.00    -0.044 A 
ATOM     20  C   UNL     1       3.643  -0.812 -11.457  0.00  0.00    +0.004 A 
ATOM     21  C   UNL     1       3.036   0.428 -11.518  0.00  0.00    +0.000 A 
ATOM     22  C   UNL     1       1.659   0.527 -11.456  0.00  0.00    +0.000 A 
ATOM     23  C   UNL     1       0.888  -0.615 -11.333  0.00  0.00    +0.000 A 
ATOM     24  C   UNL     1       1.496  -1.855 -11.275  0.00  0.00    +0.004 A 
ENDBRANCH  13  19
ENDBRANCH   4   7
BRANCH   1  25
ATOM     25  C   UNL     1      -0.870  -1.068  -2.513  0.00  0.00    +0.340 C 
ATOM     26  O   UNL     1      -2.067  -0.869  -2.565  0.00  0.00    -0.245 OA
BRANCH  25  27
ATOM     27  O   UNL     1      -0.210  -0.905  -1.349  0.00  0.00    -0.450 OA
BRANCH  27  29
ATOM     28  C   UNL     1      -1.012   1.032  -0.146  0.00  0.00    +0.061 C 
ATOM     29  C   UNL     1      -0.981  -0.496  -0.218  0.00  0.00    +0.244 C 
BRANCH  29  30
ATOM     30  C   UNL     1      -0.358  -1.046   1.040  0.00  0.00    +0.203 C 
ATOM     31  O   UNL     1       0.803  -1.397   1.038  0.00  0.00    -0.288 OA
BRANCH  30  32
ATOM     32  C   UNL     1      -1.157  -1.156   2.270  0.00  0.00    +0.021 A 
ATOM     33  C   UNL     1      -2.498  -0.757   2.275  0.00  0.00    +0.011 A 
ATOM     34  C   UNL     1      -3.241  -0.864   3.432  0.00  0.00    +0.001 A 
ATOM     35  C   UNL     1      -2.663  -1.364   4.586  0.00  0.00    +0.000 A 
ATOM     36  C   UNL     1      -1.337  -1.760   4.589  0.00  0.00    +0.001 A 
ATOM     37  C   UNL     1      -0.583  -1.665   3.439  0.00  0.00    +0.011 A 
ENDBRANCH  30  32
ENDBRANCH  29  30
ENDBRANCH  27  29
ENDBRANCH  25  27
ENDBRANCH   1  25
TORSDOF 7
