REMARK  Name = ZINC61629645
REMARK  5 active torsions:
REMARK  status: ('A' for Active; 'I' for Inactive)
REMARK    1  A    between atoms: C_1  and  C_2
REMARK    2  A    between atoms: C_2  and  C_3
REMARK    3  A    between atoms: C_3  and  N_4
REMARK    4  A    between atoms: N_4  and  C_5
REMARK    5  A    between atoms: C_7  and  C_17
REMARK                            x       y       z     vdW  Elec       q    Type
REMARK                         _______ _______ _______ _____ _____    ______ ____
ROOT
ATOM      1  C   UNL     1       1.382  -2.667   2.264  0.00  0.00    +0.038 A 
ATOM      2  C   UNL     1       1.984  -1.993   3.315  0.00  0.00    +0.052 A 
ATOM      3  C   UNL     1       2.596  -2.713   4.332  0.00  0.00    +0.109 A 
ATOM      4  N   UNL     1       2.624  -4.026   4.332  0.00  0.00    -0.243 NA
ATOM      5  C   UNL     1       2.063  -4.740   3.350  0.00  0.00    +0.108 A 
ATOM      6  C   UNL     1       1.414  -4.081   2.279  0.00  0.00    +0.025 A 
ATOM      7  C   UNL     1       0.824  -4.835   1.255  0.00  0.00    +0.027 A 
ATOM      8  C   UNL     1       0.876  -6.197   1.303  0.00  0.00    +0.021 A 
ATOM      9  C   UNL     1       1.508  -6.850   2.359  0.00  0.00    +0.055 A 
ATOM     10  C   UNL     1       2.101  -6.147   3.365  0.00  0.00    +0.150 A 
ATOM     11  F   UNL     1       2.711  -6.798   4.380  0.00  0.00    -0.203 F 
ATOM     12 BR   UNL     1       0.079  -7.211  -0.080  0.00  0.00    -0.050 Br
ENDROOT
BRANCH   3  13
ATOM     13  C   UNL     1       3.247  -1.967   5.468  0.00  0.00    +0.390 C 
ATOM     14  F   UNL     1       4.319  -2.716   5.965  0.00  0.00    -0.202 F 
ATOM     15  F   UNL     1       3.715  -0.732   5.007  0.00  0.00    -0.202 F 
ENDBRANCH   3  13
BRANCH   1  16
ATOM     16  N   UNL     1       0.762  -1.976   1.234  0.00  0.00    -0.343 N 
ATOM     17  H   UNL     1       0.342  -2.462   0.507  0.00  0.00    +0.146 HD
BRANCH  16  18
ATOM     18  C   UNL     1       0.742  -0.511   1.242  0.00  0.00    +0.101 C 
BRANCH  18  20
ATOM     19  C   UNL     1      -0.019   1.526   0.010  0.00  0.00    +0.005 C 
ATOM     20  C   UNL     1       0.002  -0.004   0.002  0.00  0.00    +0.015 C 
ENDBRANCH  18  20
ENDBRANCH  16  18
ENDBRANCH   1  16
TORSDOF 4
