REMARK  Name = ZINC03493737
REMARK  7 active torsions:
REMARK  status: ('A' for Active; 'I' for Inactive)
REMARK    1  A    between atoms: C_1  and  C_2
REMARK    2  A    between atoms: C_2  and  C_4
REMARK    3  A    between atoms: C_2  and  S_10
REMARK    4  A    between atoms: S_10  and  C_11
REMARK    5  A    between atoms: N_24  and  C_25
REMARK    6  A    between atoms: C_30  and  O_31
REMARK    7  A    between atoms: O_31  and  C_32
REMARK                            x       y       z     vdW  Elec       q    Type
REMARK                         _______ _______ _______ _____ _____    ______ ____
ROOT
ATOM      1  C   UNL     1       2.365   0.050  -0.021  0.00  0.00    +0.178 A 
ATOM      2  N   UNL     1       2.374   1.368  -0.014  0.00  0.00    -0.215 NA
ATOM      3  C   UNL     1       1.239   2.056   0.001  0.00  0.00    +0.117 A 
ATOM      4  C   UNL     1      -0.017   1.426   0.010  0.00  0.00    +0.076 A 
ATOM      5  C   UNL     1      -1.179   2.318   0.020  0.00  0.00    -0.023 A 
ATOM      6  C   UNL     1      -0.933   3.644   0.030  0.00  0.00    -0.004 A 
ATOM      7  S   UNL     1       0.834   3.784   0.014  0.00  0.00    -0.073 S 
ATOM      8  C   UNL     1      -1.939   4.754   0.045  0.00  0.00    +0.043 C 
ATOM      9  C   UNL     1      -3.310   4.170  -0.321  0.00  0.00    +0.005 C 
ATOM     10  C   UNL     1      -3.543   2.906   0.512  0.00  0.00    +0.005 C 
ATOM     11  C   UNL     1      -2.611   1.791   0.037  0.00  0.00    +0.037 C 
ATOM     12  C   UNL     1       0.002  -0.004   0.002  0.00  0.00    +0.268 A 
ATOM     13  O   UNL     1      -1.040  -0.636   0.009  0.00  0.00    -0.267 OA
ATOM     14  N   UNL     1       1.187  -0.642  -0.013  0.00  0.00    -0.252 N 
ENDROOT
BRANCH  14  15
ATOM     15  C   UNL     1       1.213  -2.045  -0.022  0.00  0.00    +0.093 A 
ATOM     16  C   UNL     1       1.208  -2.733  -1.226  0.00  0.00    +0.030 A 
ATOM     17  C   UNL     1       1.239  -4.115  -1.232  0.00  0.00    +0.002 A 
ATOM     18  C   UNL     1       1.264  -4.814  -0.039  0.00  0.00    +0.004 A 
ATOM     19  C   UNL     1       1.263  -4.135   1.165  0.00  0.00    +0.048 A 
ATOM     20  C   UNL     1       1.237  -2.750   1.179  0.00  0.00    +0.144 A 
BRANCH  20  21
ATOM     21  O   UNL     1       1.237  -2.080   2.362  0.00  0.00    -0.493 OA
ATOM     22  C   UNL     1       1.263  -2.869   3.554  0.00  0.00    +0.277 C 
ENDBRANCH  20  21
ENDBRANCH  14  15
BRANCH   1  23
ATOM     23  S   UNL     1       3.891  -0.831  -0.042  0.00  0.00    -0.075 S 
BRANCH  23  25
ATOM     24  C   UNL     1       4.901   1.346  -1.347  0.00  0.00    +0.029 C 
ATOM     25  C   UNL     1       5.054   0.556  -0.046  0.00  0.00    +0.137 C 
BRANCH  25  26
ATOM     26  C   UNL     1       6.462   0.031   0.061  0.00  0.00    +0.233 C 
ATOM     27  O   UNL     1       6.720  -1.093  -0.313  0.00  0.00    -0.274 OA
ATOM     28  N   UNL     1       7.436   0.811   0.572  0.00  0.00    -0.239 N 
ATOM     29  C   UNL     1       8.695   0.341   0.667  0.00  0.00    +0.303 C 
ATOM     30  O   UNL     1       8.954  -0.786   0.292  0.00  0.00    -0.253 OA
ATOM     31  N   UNL     1       9.669   1.121   1.177  0.00  0.00    -0.313 N 
ATOM     32  H   UNL     1       7.202   1.831   0.911  0.00  0.00    +0.159 HD
ATOM     33  H   UNL     1      10.697   0.738   1.255  0.00  0.00    +0.146 HD
ATOM     34  H   UNL     1       9.435   2.141   1.516  0.00  0.00    +0.146 HD
ENDBRANCH  25  26
ENDBRANCH  23  25
ENDBRANCH   1  23
TORSDOF 5
