REMARK  Name = ZINC64103453
REMARK  8 active torsions:
REMARK  status: ('A' for Active; 'I' for Inactive)
REMARK    1  A    between atoms: C_1  and  C_2
REMARK    2  A    between atoms: C_2  and  O_3
REMARK    3  A    between atoms: O_3  and  C_4
REMARK    4  A    between atoms: C_4  and  C_6
REMARK    5  A    between atoms: C_8  and  C_38
REMARK    6  A    between atoms: C_10  and  C_15
REMARK    7  A    between atoms: C_12  and  C_14
REMARK    8  A    between atoms: C_30  and  C_32
REMARK                            x       y       z     vdW  Elec       q    Type
REMARK                         _______ _______ _______ _____ _____    ______ ____
ROOT
ATOM      1  C   UNL     1      -0.350  -4.402  -5.157  0.00  0.00    +0.245 C 
ATOM      2  O   UNL     1      -0.410  -5.610  -5.295  0.00  0.00    -0.270 OA
ATOM      3  N   UNL     1      -1.005  -3.592  -6.012  0.00  0.00    -0.287 N 
ATOM      4  C   UNL     1      -0.825  -2.140  -5.919  0.00  0.00    +0.113 C 
ATOM      5  C   UNL     1      -0.310  -1.599  -7.265  0.00  0.00    +0.052 C 
ATOM      6  C   UNL     1      -1.149  -2.244  -8.340  0.00  0.00    -0.035 C 
ATOM      7  C   UNL     1      -1.832  -1.723  -9.352  0.00  0.00    -0.001 A 
ATOM      8  C   UNL     1      -1.931  -0.345  -9.860  0.00  0.00    +0.010 A 
ATOM      9  C   UNL     1      -2.754  -0.157 -10.925  0.00  0.00    +0.001 A 
ATOM     10  C   UNL     1      -3.480  -1.189 -11.528  0.00  0.00    +0.002 A 
ATOM     11  C   UNL     1      -3.443  -2.486 -11.132  0.00  0.00    +0.026 A 
ATOM     12  C   UNL     1      -2.605  -2.811 -10.026  0.00  0.00    +0.043 A 
ATOM     13  N   UNL     1      -2.364  -3.957  -9.461  0.00  0.00    -0.375 N 
ATOM     14  C   UNL     1      -1.370  -3.751  -8.406  0.00  0.00    +0.133 C 
ATOM     15  C   UNL     1      -1.889  -4.176  -7.034  0.00  0.00    +0.151 C 
ATOM     16  H   UNL     1      -2.774  -4.803  -9.697  0.00  0.00    +0.160 HD
ENDROOT
BRANCH   1  19
ATOM     17  C   UNL     1       2.186  -2.999  -2.725  0.00  0.00    +0.187 C 
ATOM     18  C   UNL     1       1.902  -3.608  -4.112  0.00  0.00    +0.054 C 
ATOM     19  C   UNL     1       0.408  -3.848  -4.099  0.00  0.00    +0.036 C 
ATOM     20  H   UNL     1       0.704  -2.618  -1.177  0.00  0.00    +0.147 HD
ATOM     21  C   UNL     1      -0.077  -3.447  -2.914  0.00  0.00    +0.010 C 
ATOM     22  N   UNL     1       0.870  -2.952  -2.072  0.00  0.00    -0.334 N 
ATOM     23  C   UNL     1      -1.536  -3.538  -2.547  0.00  0.00    +0.061 C 
ATOM     24  C   UNL     1       2.660  -4.925  -4.286  0.00  0.00    +0.015 C 
BRANCH  17  25
ATOM     25  C   UNL     1       2.754  -1.610  -2.865  0.00  0.00    +0.328 C 
ATOM     26  O   UNL     1       2.033  -0.648  -2.750  0.00  0.00    -0.249 OA
BRANCH  25  27
ATOM     27  O   UNL     1       4.062  -1.443  -3.117  0.00  0.00    -0.464 OA
BRANCH  27  29
ATOM     28  C   UNL     1       6.036  -0.109  -3.523  0.00  0.00    +0.048 C 
ATOM     29  C   UNL     1       4.533  -0.099  -3.238  0.00  0.00    +0.229 C 
ENDBRANCH  27  29
ENDBRANCH  25  27
ENDBRANCH  17  25
ENDBRANCH   1  19
BRANCH  15  30
ATOM     30  C   UNL     1      -3.295  -3.666  -6.844  0.00  0.00    +0.064 A 
ATOM     31  C   UNL     1      -4.298  -4.548  -6.487  0.00  0.00    +0.025 A 
ATOM     32  C   UNL     1      -5.588  -4.069  -6.315  0.00  0.00    +0.003 A 
ATOM     33  C   UNL     1      -5.821  -2.716  -6.509  0.00  0.00    +0.020 A 
ATOM     34  C   UNL     1      -4.767  -1.895  -6.865  0.00  0.00    +0.111 A 
ATOM     35  N   UNL     1      -3.552  -2.385  -7.015  0.00  0.00    -0.258 NA
ENDBRANCH  15  30
TORSDOF 5
