REMARK  Name = ZINC20233378
REMARK  8 active torsions:
REMARK  status: ('A' for Active; 'I' for Inactive)
REMARK    1  A    between atoms: C_1  and  S_2
REMARK    2  A    between atoms: S_2  and  N_5
REMARK    3  A    between atoms: N_5  and  C_6
REMARK    4  A    between atoms: N_5  and  C_14
REMARK    5  A    between atoms: C_6  and  C_7
REMARK    6  A    between atoms: C_17  and  C_20
REMARK    7  A    between atoms: N_22  and  N_23
REMARK    8  A    between atoms: C_24  and  C_25
REMARK                            x       y       z     vdW  Elec       q    Type
REMARK                         _______ _______ _______ _____ _____    ______ ____
ROOT
ATOM      1  C   UNL     1      -0.191  -0.683  -2.609  0.00  0.00    +0.051 A 
ATOM      2  C   UNL     1       0.213  -1.642  -3.533  0.00  0.00    +0.025 A 
ATOM      3  C   UNL     1      -0.566  -1.909  -4.635  0.00  0.00    +0.015 A 
ATOM      4  C   UNL     1      -1.766  -1.217  -4.826  0.00  0.00    +0.038 A 
ATOM      5  C   UNL     1      -2.169  -0.254  -3.895  0.00  0.00    +0.015 A 
ATOM      6  C   UNL     1      -1.388   0.005  -2.793  0.00  0.00    +0.025 A 
ENDROOT
BRANCH   4   7
ATOM      7  C   UNL     1      -2.604  -1.500  -6.006  0.00  0.00    +0.263 C 
ATOM      8  O   UNL     1      -2.251  -2.338  -6.814  0.00  0.00    -0.268 OA
ATOM      9  N   UNL     1      -3.760  -0.832  -6.188  0.00  0.00    -0.203 N 
ATOM     10  H   UNL     1      -4.040  -0.164  -5.543  0.00  0.00    +0.178 HD
BRANCH   9  11
ATOM     11  N   UNL     1      -4.555  -1.102  -7.309  0.00  0.00    -0.187 NA
ATOM     12  C   UNL     1      -5.670  -0.457  -7.485  0.00  0.00    +0.139 C 
BRANCH  12  13
ATOM     13  C   UNL     1      -6.506  -0.740  -8.662  0.00  0.00    +0.002 A 
ATOM     14  C   UNL     1      -7.702  -0.059  -8.877  0.00  0.00    +0.010 A 
ATOM     15  C   UNL     1      -8.504  -0.314  -9.984  0.00  0.00    +0.005 A 
ATOM     16  C   UNL     1      -8.153  -1.247 -10.914  0.00  0.00    -0.039 A 
ATOM     17  C   UNL     1      -6.966  -1.952 -10.740  0.00  0.00    -0.011 A 
ATOM     18  C   UNL     1      -6.106  -1.741  -9.649  0.00  0.00    -0.009 A 
ATOM     19  C   UNL     1      -4.934  -2.500  -9.575  0.00  0.00    +0.009 A 
ATOM     20  C   UNL     1      -4.673  -3.406 -10.565  0.00  0.00    +0.001 A 
ATOM     21  C   UNL     1      -5.537  -3.598 -11.644  0.00  0.00    +0.004 A 
ATOM     22  C   UNL     1      -6.691  -2.882 -11.738  0.00  0.00    -0.039 A 
ATOM     23  C   UNL     1      -7.824  -2.822 -12.734  0.00  0.00    +0.040 C 
ATOM     24  C   UNL     1      -8.788  -1.745 -12.191  0.00  0.00    +0.040 C 
ENDBRANCH  12  13
ENDBRANCH   9  11
ENDBRANCH   4   7
BRANCH   1  25
ATOM     25  N   UNL     1       0.599  -0.415  -1.496  0.00  0.00    -0.203 N 
BRANCH  25  27
ATOM     26  C   UNL     1      -0.745   1.003   0.443  0.00  0.00    +0.218 C 
ATOM     27  S   UNL     1      -0.022  -0.608   0.026  0.00  0.00    +0.043 S 
ATOM     28  O   UNL     1       1.108  -0.865   0.849  0.00  0.00    -0.155 OA
ATOM     29  O   UNL     1      -1.047  -1.581  -0.121  0.00  0.00    -0.155 OA
ENDBRANCH  25  27
BRANCH  25  30
ATOM     30  C   UNL     1       1.981   0.039  -1.672  0.00  0.00    +0.166 C 
BRANCH  30  31
ATOM     31  C   UNL     1       1.997   1.531  -1.881  0.00  0.00    -0.028 A 
ATOM     32  C   UNL     1       1.792   2.054  -3.144  0.00  0.00    +0.006 A 
ATOM     33  C   UNL     1       1.807   3.422  -3.337  0.00  0.00    +0.020 A 
ATOM     34  C   UNL     1       2.027   4.269  -2.266  0.00  0.00    +0.041 A 
ATOM     35  C   UNL     1       2.233   3.746  -1.002  0.00  0.00    +0.020 A 
ATOM     36  C   UNL     1       2.212   2.377  -0.809  0.00  0.00    +0.006 A 
ATOM     37 CL   UNL     1       2.047   5.988  -2.508  0.00  0.00    -0.084 Cl
ENDBRANCH  30  31
ENDBRANCH  25  30
ENDBRANCH   1  25
TORSDOF 7
