REMARK  Name = ZINC20083453
REMARK  13 active torsions:
REMARK  status: ('A' for Active; 'I' for Inactive)
REMARK    1  A    between atoms: C_1  and  C_2
REMARK    2  A    between atoms: C_5  and  C_40
REMARK    3  A    between atoms: C_9  and  C_14
REMARK    4  A    between atoms: C_14  and  C_16
REMARK    5  A    between atoms: C_14  and  N_25
REMARK    6  A    between atoms: N_20  and  C_21
REMARK    7  A    between atoms: C_21  and  C_22
REMARK    8  A    between atoms: C_22  and  O_23
REMARK    9  A    between atoms: O_23  and  C_24
REMARK   10  A    between atoms: N_25  and  C_26
REMARK   11  A    between atoms: N_25  and  C_33
REMARK   12  A    between atoms: C_26  and  C_27
REMARK   13  A    between atoms: C_33  and  C_34
REMARK                            x       y       z     vdW  Elec       q    Type
REMARK                         _______ _______ _______ _____ _____    ______ ____
ROOT
ATOM      1  C   UNL     1       2.449   2.079  -1.442  0.00  0.00    +0.163 C 
ENDROOT
BRANCH   1  10
ATOM      2  C   UNL     1       5.404   4.789  -4.765  0.00  0.00    +0.044 C 
ATOM      3  C   UNL     1       4.473   3.935  -5.587  0.00  0.00    -0.041 A 
ATOM      4  C   UNL     1       4.525   3.982  -6.952  0.00  0.00    +0.004 A 
ATOM      5  C   UNL     1       3.673   3.199  -7.718  0.00  0.00    +0.005 A 
ATOM      6  C   UNL     1       2.758   2.360  -7.118  0.00  0.00    -0.026 A 
ATOM      7  C   UNL     1       2.686   2.296  -5.731  0.00  0.00    +0.052 A 
ATOM      8  C   UNL     1       3.553   3.092  -4.957  0.00  0.00    +0.002 A 
ATOM      9  C   UNL     1       3.471   3.017  -3.497  0.00  0.00    +0.021 A 
ATOM     10  C   UNL     1       2.559   2.180  -2.942  0.00  0.00    +0.042 A 
ATOM     11  C   UNL     1       1.718   1.400  -3.763  0.00  0.00    +0.254 A 
ATOM     12  O   UNL     1       0.909   0.651  -3.243  0.00  0.00    -0.268 OA
ATOM     13  N   UNL     1       1.782   1.466  -5.104  0.00  0.00    -0.322 N 
ATOM     14  H   UNL     1       1.099   0.846  -5.703  0.00  0.00    +0.169 HD
ATOM     15  C   UNL     1       1.839   1.516  -7.962  0.00  0.00    +0.046 C 
ENDBRANCH   1  10
BRANCH   1  16
ATOM     16  C   UNL     1       1.070   2.507  -1.010  0.00  0.00    +0.173 A 
ATOM     17  N   UNL     1      -0.045   1.837  -1.173  0.00  0.00    -0.111 NA
ATOM     18  N   UNL     1      -1.005   2.532  -0.669  0.00  0.00    -0.023 NA
ATOM     19  N   UNL     1      -0.533   3.633  -0.196  0.00  0.00    -0.044 NA
ATOM     20  N   UNL     1       0.743   3.655  -0.387  0.00  0.00    -0.225 N 
BRANCH  20  21
ATOM     21  C   UNL     1       1.662   4.727   0.001  0.00  0.00    +0.175 C 
BRANCH  21  22
ATOM     22  C   UNL     1       1.781   5.736  -1.142  0.00  0.00    +0.183 C 
BRANCH  22  23
ATOM     23  O   UNL     1       2.678   6.782  -0.763  0.00  0.00    -0.381 OA
ATOM     24  C   UNL     1       2.860   7.784  -1.766  0.00  0.00    +0.194 C 
ENDBRANCH  22  23
ENDBRANCH  21  22
ENDBRANCH  20  21
ENDBRANCH   1  16
BRANCH   1  25
ATOM     25  N   UNL     1       2.683   0.690  -1.026  0.00  0.00    -0.280 NA
BRANCH  25  26
ATOM     26  C   UNL     1       3.970   0.198  -1.535  0.00  0.00    +0.121 C 
BRANCH  26  27
ATOM     27  C   UNL     1       3.793  -0.307  -2.944  0.00  0.00    -0.033 A 
ATOM     28  C   UNL     1       3.002  -1.414  -3.187  0.00  0.00    +0.005 A 
ATOM     29  C   UNL     1       2.835  -1.875  -4.479  0.00  0.00    +0.000 A 
ATOM     30  C   UNL     1       3.469  -1.235  -5.528  0.00  0.00    +0.000 A 
ATOM     31  C   UNL     1       4.265  -0.131  -5.285  0.00  0.00    +0.000 A 
ATOM     32  C   UNL     1       4.427   0.333  -3.993  0.00  0.00    +0.005 A 
ENDBRANCH  26  27
ENDBRANCH  25  26
BRANCH  25  33
ATOM     33  C   UNL     1       2.610   0.558   0.435  0.00  0.00    +0.122 C 
BRANCH  33  34
ATOM     34  C   UNL     1       1.166   0.508   0.863  0.00  0.00    -0.015 A 
ATOM     35  C   UNL     1       0.390  -0.608   0.587  0.00  0.00    +0.008 A 
ATOM     36  C   UNL     1      -0.935  -0.608   0.996  0.00  0.00    +0.020 A 
ATOM     37  C   UNL     1      -1.432   0.491   1.669  0.00  0.00    +0.111 A 
ATOM     38  N   UNL     1      -0.665   1.536   1.914  0.00  0.00    -0.263 NA
ATOM     39  C   UNL     1       0.598   1.573   1.536  0.00  0.00    +0.115 A 
ENDBRANCH  33  34
ENDBRANCH  25  33
ENDBRANCH   1  25
TORSDOF 10
