REMARK  Name = ZINC39164383
REMARK  4 active torsions:
REMARK  status: ('A' for Active; 'I' for Inactive)
REMARK    1  A    between atoms: C_1  and  S_2
REMARK    2  A    between atoms: S_2  and  N_5
REMARK    3  A    between atoms: C_6  and  C_20
REMARK    4  A    between atoms: C_9  and  C_11
REMARK                            x       y       z     vdW  Elec       q    Type
REMARK                         _______ _______ _______ _____ _____    ______ ____
ROOT
ATOM      1  N   UNL     1       0.795  -0.411  -1.394  0.00  0.00    -0.120 N 
ATOM      2  C   UNL     1       2.230  -0.718  -1.507  0.00  0.00    +0.153 C 
ATOM      3  C   UNL     1       2.409  -1.023  -3.009  0.00  0.00    +0.087 C 
ATOM      4  C   UNL     1       1.020  -0.848  -3.580  0.00  0.00    +0.083 C 
ATOM      5  N   UNL     1       0.212  -0.526  -2.655  0.00  0.00    -0.168 NA
ENDROOT
BRANCH   4   6
ATOM      6  C   UNL     1       0.649  -1.032  -5.029  0.00  0.00    +0.222 C 
ATOM      7  N   UNL     1       1.768  -0.630  -5.891  0.00  0.00    -0.359 N 
ATOM      8  C   UNL     1       1.352   0.349  -6.641  0.00  0.00    +0.060 A 
ATOM      9  C   UNL     1       2.002   1.154  -7.684  0.00  0.00    +0.027 A 
ATOM     10  C   UNL     1       1.303   2.126  -8.305  0.00  0.00    +0.002 A 
ATOM     11  C   UNL     1      -0.039   2.410  -7.997  0.00  0.00    +0.002 A 
ATOM     12  C   UNL     1      -0.729   1.732  -7.058  0.00  0.00    +0.027 A 
ATOM     13  C   UNL     1      -0.069   0.649  -6.315  0.00  0.00    +0.060 A 
ATOM     14  N   UNL     1      -0.476  -0.156  -5.377  0.00  0.00    -0.359 N 
ATOM     15  H   UNL     1       2.655  -1.022  -5.899  0.00  0.00    +0.162 HD
ATOM     16  H   UNL     1      -1.361  -0.174  -4.980  0.00  0.00    +0.162 HD
ENDBRANCH   4   6
BRANCH   2  17
ATOM     17  C   UNL     1       2.584  -1.921  -0.671  0.00  0.00    -0.023 A 
ATOM     18  C   UNL     1       1.716  -2.994  -0.601  0.00  0.00    +0.006 A 
ATOM     19  C   UNL     1       2.040  -4.097   0.165  0.00  0.00    +0.015 A 
ATOM     20  C   UNL     1       3.235  -4.128   0.862  0.00  0.00    +0.018 A 
ATOM     21  C   UNL     1       4.104  -3.054   0.791  0.00  0.00    +0.015 A 
ATOM     22  C   UNL     1       3.781  -1.954   0.020  0.00  0.00    +0.006 A 
ATOM     23 BR   UNL     1       3.679  -5.638   1.911  0.00  0.00    -0.050 Br
ENDBRANCH   2  17
BRANCH   1  25
ATOM     24  C   UNL     1      -0.022   1.810   0.012  0.00  0.00    +0.220 C 
ATOM     25  S   UNL     1       0.002  -0.004   0.002  0.00  0.00    +0.057 S 
ATOM     26  O   UNL     1       0.835  -0.488   1.046  0.00  0.00    -0.154 OA
ATOM     27  O   UNL     1      -1.315  -0.510  -0.168  0.00  0.00    -0.154 OA
ENDBRANCH   1  25
TORSDOF 3
