REMARK  Name = ZINC13495874
REMARK  12 active torsions:
REMARK  status: ('A' for Active; 'I' for Inactive)
REMARK    1  A    between atoms: C_1  and  C_2
REMARK    2  A    between atoms: C_2  and  C_3
REMARK    3  A    between atoms: C_3  and  C_5
REMARK    4  A    between atoms: C_3  and  N_75
REMARK    5  A    between atoms: N_9  and  C_10
REMARK    6  A    between atoms: C_16  and  C_17
REMARK    7  A    between atoms: C_16  and  N_75
REMARK    8  A    between atoms: C_17  and  C_18
REMARK    9  A    between atoms: C_23  and  C_24
REMARK   10  A    between atoms: C_25  and  C_26
REMARK   11  A    between atoms: C_25  and  N_75
REMARK   12  A    between atoms: C_32  and  C_38
REMARK                            x       y       z     vdW  Elec       q    Type
REMARK                         _______ _______ _______ _____ _____    ______ ____
ROOT
ATOM      1  N   UNL     1       1.970  -3.525   6.037  0.00  0.00    +0.389 N 
ATOM      2  H   UNL     1       2.728  -2.862   6.240  0.00  0.00    -0.080 HD
ENDROOT
BRANCH   1   3
ATOM      3  C   UNL     1       1.209  -3.778   7.278  0.00  0.00    +0.003 C 
BRANCH   3   4
ATOM      4  C   UNL     1       1.163  -2.505   8.083  0.00  0.00    +0.138 A 
ATOM      5  N   UNL     1       0.957  -1.295   7.622  0.00  0.00    -0.115 NA
ATOM      6  N   UNL     1       0.990  -0.478   8.618  0.00  0.00    -0.023 NA
ATOM      7  N   UNL     1       1.212  -1.136   9.702  0.00  0.00    -0.044 NA
ATOM      8  N   UNL     1       1.318  -2.389   9.415  0.00  0.00    -0.228 N 
BRANCH   8   9
ATOM      9  C   UNL     1       1.566  -3.481  10.360  0.00  0.00    +0.111 C 
ATOM     10  C   UNL     1       0.435  -3.531  11.389  0.00  0.00    +0.027 C 
ATOM     11  C   UNL     1       0.694  -4.671  12.376  0.00  0.00    +0.002 C 
ATOM     12  C   UNL     1       2.025  -4.434  13.092  0.00  0.00    +0.000 C 
ATOM     13  C   UNL     1       3.156  -4.383  12.063  0.00  0.00    +0.002 C 
ATOM     14  C   UNL     1       2.897  -3.243  11.076  0.00  0.00    +0.027 C 
ENDBRANCH   8   9
ENDBRANCH   3   4
BRANCH   3  16
ATOM     15  C   UNL     1      -0.171  -5.549   6.182  0.00  0.00    +0.002 C 
ATOM     16  C   UNL     1      -0.216  -4.225   6.949  0.00  0.00    -0.011 C 
ENDBRANCH   3  16
ENDBRANCH   1   3
BRANCH   1  17
ATOM     17  C   UNL     1       2.557  -4.786   5.537  0.00  0.00    -0.073 C 
BRANCH  17  18
ATOM     18  C   UNL     1       3.720  -5.182   6.449  0.00  0.00    +0.017 C 
BRANCH  18  19
ATOM     19  C   UNL     1       4.428  -6.379   5.868  0.00  0.00    -0.046 A 
ATOM     20  C   UNL     1       4.099  -7.652   6.295  0.00  0.00    +0.004 A 
ATOM     21  C   UNL     1       4.746  -8.749   5.759  0.00  0.00    +0.000 A 
ATOM     22  C   UNL     1       5.729  -8.574   4.802  0.00  0.00    +0.000 A 
ATOM     23  C   UNL     1       6.061  -7.301   4.379  0.00  0.00    +0.003 A 
ATOM     24  C   UNL     1       5.411  -6.203   4.912  0.00  0.00    -0.047 A 
ATOM     25  C   UNL     1       5.774  -4.815   4.450  0.00  0.00    +0.044 C 
ENDBRANCH  18  19
ENDBRANCH  17  18
ENDBRANCH   1  17
BRANCH   1  26
ATOM     26  C   UNL     1       1.082  -2.939   5.011  0.00  0.00    -0.037 C 
BRANCH  26  27
ATOM     27  C   UNL     1       1.931  -2.368   3.904  0.00  0.00    +0.001 A 
ATOM     28  C   UNL     1       2.180  -3.105   2.794  0.00  0.00    +0.017 A 
ATOM     29  C   UNL     1       3.008  -2.521   1.737  0.00  0.00    -0.001 A 
ATOM     30  C   UNL     1       3.299  -3.234   0.569  0.00  0.00    +0.010 A 
ATOM     31  C   UNL     1       4.075  -2.661  -0.398  0.00  0.00    +0.001 A 
ATOM     32  C   UNL     1       4.573  -1.375  -0.234  0.00  0.00    +0.005 A 
ATOM     33  C   UNL     1       4.304  -0.657   0.911  0.00  0.00    -0.026 A 
ATOM     34  C   UNL     1       3.516  -1.220   1.909  0.00  0.00    +0.052 A 
ATOM     35  N   UNL     1       3.227  -0.523   3.063  0.00  0.00    -0.322 N 
ATOM     36  H   UNL     1       3.578   0.374   3.180  0.00  0.00    +0.169 HD
ATOM     37  C   UNL     1       2.465  -1.067   4.028  0.00  0.00    +0.251 A 
ATOM     38  O   UNL     1       2.230  -0.421   5.034  0.00  0.00    -0.268 OA
ATOM     39  C   UNL     1       4.857   0.735   1.078  0.00  0.00    +0.046 C 
ENDBRANCH  26  27
ENDBRANCH   1  26
TORSDOF 9
