REMARK  Name = ZINC19691016
REMARK  8 active torsions:
REMARK  status: ('A' for Active; 'I' for Inactive)
REMARK    1  A    between atoms: C_1  and  C_2
REMARK    2  A    between atoms: C_2  and  C_3
REMARK    3  A    between atoms: C_3  and  O_4
REMARK    4  A    between atoms: O_4  and  C_5
REMARK    5  A    between atoms: C_6  and  O_28
REMARK    6  A    between atoms: C_8  and  C_12
REMARK    7  A    between atoms: O_28  and  C_29
REMARK    8  A    between atoms: C_29  and  C_30
REMARK                            x       y       z     vdW  Elec       q    Type
REMARK                         _______ _______ _______ _____ _____    ______ ____
ROOT
ATOM      1  C   UNL     1       4.858   4.033  -0.026  0.00  0.00    +0.060 C 
ATOM      2  C   UNL     1       4.697   5.312   0.795  0.00  0.00    +0.109 C 
ATOM      3  C   UNL     1       3.439   6.029   0.381  0.00  0.00    +0.218 C 
ATOM      4  O   UNL     1       3.410   7.241   0.378  0.00  0.00    -0.275 OA
ATOM      5  N   UNL     1       2.347   5.334   0.013  0.00  0.00    -0.285 N 
ATOM      6  C   UNL     1       2.363   3.940   0.002  0.00  0.00    +0.045 A 
ATOM      7  C   UNL     1       3.562   3.261  -0.015  0.00  0.00    -0.018 A 
ATOM      8  C   UNL     1       3.587   1.868  -0.024  0.00  0.00    +0.006 A 
ATOM      9  C   UNL     1       2.435   1.143  -0.016  0.00  0.00    +0.009 A 
ATOM     10  C   UNL     1       1.193   1.799   0.000  0.00  0.00    -0.016 A 
ATOM     11  C   UNL     1       1.153   3.215   0.009  0.00  0.00    +0.004 A 
ATOM     12  C   UNL     1      -0.089   3.869   0.024  0.00  0.00    +0.010 A 
ATOM     13  C   UNL     1      -1.237   3.137   0.030  0.00  0.00    +0.001 A 
ATOM     14  C   UNL     1      -1.198   1.744   0.017  0.00  0.00    +0.001 A 
ATOM     15  C   UNL     1      -0.013   1.076   0.008  0.00  0.00    +0.008 A 
ATOM     16  H   UNL     1       1.430   5.867  -0.282  0.00  0.00    +0.155 HD
ENDROOT
BRANCH   1  20
ATOM     17  C   UNL     1       5.879   5.044  -4.054  0.00  0.00    +0.180 A 
ATOM     18  C   UNL     1       6.743   4.263  -3.292  0.00  0.00    +0.164 A 
ATOM     19  C   UNL     1       6.411   3.942  -1.986  0.00  0.00    +0.053 A 
ATOM     20  C   UNL     1       5.219   4.388  -1.445  0.00  0.00    -0.034 A 
ATOM     21  C   UNL     1       4.361   5.163  -2.202  0.00  0.00    +0.028 A 
ATOM     22  C   UNL     1       4.688   5.492  -3.505  0.00  0.00    +0.086 A 
ATOM     23 CL   UNL     1       3.608   6.467  -4.452  0.00  0.00    -0.080 Cl
BRANCH  17  24
ATOM     24  O   UNL     1       6.203   5.365  -5.336  0.00  0.00    -0.487 OA
BRANCH  24  25
ATOM     25  C   UNL     1       6.943   6.571  -5.535  0.00  0.00    +0.229 C 
BRANCH  25  27
ATOM     26  C   UNL     1       8.005   8.055  -7.242  0.00  0.00    +0.007 C 
ATOM     27  C   UNL     1       7.212   6.764  -7.029  0.00  0.00    +0.038 C 
ENDBRANCH  25  27
ENDBRANCH  24  25
ENDBRANCH  17  24
BRANCH  18  28
ATOM     28  O   UNL     1       7.913   3.821  -3.826  0.00  0.00    -0.489 OA
BRANCH  28  29
ATOM     29  C   UNL     1       8.750   3.025  -2.986  0.00  0.00    +0.226 C 
ATOM     30  C   UNL     1      10.011   2.624  -3.754  0.00  0.00    +0.048 C 
ENDBRANCH  28  29
ENDBRANCH  18  28
ENDBRANCH   1  20
TORSDOF 6
