REMARK  Name = ZINC41584633
REMARK  5 active torsions:
REMARK  status: ('A' for Active; 'I' for Inactive)
REMARK    1  A    between atoms: C_3  and  C_8
REMARK    2  A    between atoms: C_15  and  O_33
REMARK    3  A    between atoms: C_16  and  C_19
REMARK    4  A    between atoms: C_19  and  N_20
REMARK    5  A    between atoms: C_25  and  C_27
REMARK                            x       y       z     vdW  Elec       q    Type
REMARK                         _______ _______ _______ _____ _____    ______ ____
ROOT
ATOM      1  C   UNL     1      11.348  -4.664  -0.761  0.00  0.00    +0.058 C 
ATOM      2  C   UNL     1      10.475  -3.633  -0.870  0.00  0.00    +0.176 C 
ATOM      3  C   UNL     1      10.816  -2.231  -1.163  0.00  0.00    +0.231 C 
ATOM      4  O   UNL     1      11.922  -1.757  -1.355  0.00  0.00    -0.283 OA
ATOM      5  C   UNL     1       9.519  -1.530  -1.172  0.00  0.00    +0.068 A 
ATOM      6  C   UNL     1       9.156  -0.199  -1.386  0.00  0.00    +0.019 A 
ATOM      7  C   UNL     1       7.840   0.164  -1.330  0.00  0.00    +0.046 A 
ATOM      8  C   UNL     1       6.862  -0.790  -1.061  0.00  0.00    +0.122 A 
ATOM      9  C   UNL     1       7.209  -2.114  -0.847  0.00  0.00    +0.020 A 
ATOM     10  C   UNL     1       8.542  -2.500  -0.900  0.00  0.00    +0.144 A 
ATOM     11  O   UNL     1       9.130  -3.705  -0.736  0.00  0.00    -0.451 OA
ENDROOT
BRANCH   1  14
ATOM     12  C   UNL     1       9.017  -7.559  -0.267  0.00  0.00    +0.002 A 
ATOM     13  C   UNL     1       9.478  -6.270  -0.425  0.00  0.00    +0.008 A 
ATOM     14  C   UNL     1      10.848  -6.036  -0.591  0.00  0.00    -0.020 A 
ATOM     15  C   UNL     1      11.739  -7.115  -0.595  0.00  0.00    +0.023 A 
ATOM     16  C   UNL     1      11.261  -8.399  -0.436  0.00  0.00    +0.018 A 
ATOM     17  C   UNL     1       9.904  -8.621  -0.272  0.00  0.00    +0.015 A 
ATOM     18 BR   UNL     1      12.462  -9.860  -0.441  0.00  0.00    -0.050 Br
ENDBRANCH   1  14
BRANCH   8  19
ATOM     19  O   UNL     1       5.557  -0.419  -1.008  0.00  0.00    -0.506 OA
ATOM     20  H   UNL     1       5.098  -0.472  -1.857  0.00  0.00    +0.292 HD
ENDBRANCH   8  19
BRANCH   9  21
ATOM     21  C   UNL     1       6.139  -3.135  -0.555  0.00  0.00    -0.035 C 
BRANCH  21  22
ATOM     22  N   UNL     1       5.795  -3.090   0.872  0.00  0.00    +0.387 N 
ATOM     23  C   UNL     1       6.960  -3.498   1.668  0.00  0.00    -0.078 C 
ATOM     24  C   UNL     1       6.632  -3.375   3.158  0.00  0.00    -0.019 C 
ATOM     25  C   UNL     1       5.443  -4.280   3.490  0.00  0.00    -0.003 C 
ATOM     26  C   UNL     1       4.257  -3.894   2.602  0.00  0.00    -0.011 C 
ATOM     27  C   UNL     1       4.672  -3.998   1.132  0.00  0.00    -0.036 C 
ATOM     28  H   UNL     1       5.531  -2.149   1.124  0.00  0.00    -0.080 HD
BRANCH  27  29
ATOM     29  C   UNL     1       3.507  -3.619   0.254  0.00  0.00    -0.043 A 
ATOM     30  C   UNL     1       2.821  -4.590  -0.459  0.00  0.00    +0.005 A 
ATOM     31  C   UNL     1       1.756  -4.196  -1.255  0.00  0.00    +0.020 A 
ATOM     32  C   UNL     1       1.416  -2.857  -1.310  0.00  0.00    +0.111 A 
ATOM     33  N   UNL     1       2.092  -1.961  -0.618  0.00  0.00    -0.263 NA
ATOM     34  C   UNL     1       3.106  -2.301   0.154  0.00  0.00    +0.112 A 
ENDBRANCH  27  29
ENDBRANCH  21  22
ENDBRANCH   9  21
TORSDOF 5
