REMARK  Name = ZINC51052927
REMARK  9 active torsions:
REMARK  status: ('A' for Active; 'I' for Inactive)
REMARK    1  A    between atoms: C_1  and  C_2
REMARK    2  A    between atoms: C_2  and  C_3
REMARK    3  A    between atoms: C_3  and  C_4
REMARK    4  A    between atoms: C_4  and  C_6
REMARK    5  A    between atoms: C_4  and  N_7
REMARK    6  A    between atoms: C_8  and  C_10
REMARK    7  A    between atoms: N_15  and  C_17
REMARK    8  A    between atoms: C_17  and  C_18
REMARK    9  A    between atoms: N_20  and  C_21
REMARK                            x       y       z     vdW  Elec       q    Type
REMARK                         _______ _______ _______ _____ _____    ______ ____
ROOT
ATOM      1  C   UNL     1       0.386  -4.268   2.565  0.00  0.00    +0.058 C 
ATOM      2  C   UNL     1       1.504  -3.313   2.992  0.00  0.00    +0.009 C 
ATOM      3  C   UNL     1       2.186  -3.869   4.246  0.00  0.00    -0.018 C 
ATOM      4  C   UNL     1       2.708  -5.277   3.954  0.00  0.00    -0.078 C 
ATOM      5  N   UNL     1       1.588  -6.149   3.577  0.00  0.00    +0.386 N 
ATOM      6  C   UNL     1       0.973  -5.663   2.336  0.00  0.00    -0.065 C 
ATOM      7  H   UNL     1       0.899  -6.148   4.314  0.00  0.00    -0.081 HD
ENDROOT
BRANCH   1   9
ATOM      8  N   UNL     1      -0.823  -2.555   1.253  0.00  0.00    -0.313 N 
ATOM      9  C   UNL     1      -0.241  -3.770   1.288  0.00  0.00    +0.215 C 
ATOM     10  O   UNL     1      -0.222  -4.463   0.293  0.00  0.00    -0.276 OA
ATOM     11  H   UNL     1      -0.838  -2.001   2.049  0.00  0.00    +0.149 HD
BRANCH   8  12
ATOM     12  C   UNL     1      -1.432  -2.071   0.012  0.00  0.00    +0.070 C 
ATOM     13  C   UNL     1      -2.865  -2.598  -0.092  0.00  0.00    +0.028 C 
BRANCH  12  14
ATOM     14  C   UNL     1      -1.450  -0.541   0.016  0.00  0.00    +0.022 C 
BRANCH  14  16
ATOM     15  C   UNL     1      -0.032   1.516  -0.003  0.00  0.00    +0.004 C 
ATOM     16  C   UNL     1      -0.014  -0.014  -0.006  0.00  0.00    -0.002 C 
ENDBRANCH  14  16
ENDBRANCH  12  14
ENDBRANCH   8  12
ENDBRANCH   1   9
BRANCH   5  17
ATOM     17  C   UNL     1       2.082  -7.517   3.374  0.00  0.00    +0.019 C 
BRANCH  17  18
ATOM     18  C   UNL     1       2.593  -8.066   4.681  0.00  0.00    +0.201 C 
ATOM     19  O   UNL     1       2.550  -7.385   5.683  0.00  0.00    -0.278 OA
ATOM     20  N   UNL     1       3.097  -9.315   4.736  0.00  0.00    -0.287 N 
ATOM     21  H   UNL     1       3.070  -9.884   3.951  0.00  0.00    +0.155 HD
BRANCH  20  22
ATOM     22  C   UNL     1       3.660  -9.790   5.926  0.00  0.00    +0.039 A 
ATOM     23  C   UNL     1       4.757 -10.640   5.885  0.00  0.00    +0.061 A 
ATOM     24  C   UNL     1       5.312 -11.109   7.063  0.00  0.00    +0.128 A 
ATOM     25  C   UNL     1       4.773 -10.731   8.281  0.00  0.00    +0.076 A 
ATOM     26  C   UNL     1       3.679  -9.884   8.324  0.00  0.00    +0.128 A 
ATOM     27  C   UNL     1       3.125  -9.408   7.149  0.00  0.00    +0.061 A 
ATOM     28  F   UNL     1       3.155  -9.518   9.514  0.00  0.00    -0.205 F 
ATOM     29  F   UNL     1       6.379 -11.936   7.024  0.00  0.00    -0.205 F 
ENDBRANCH  20  22
ENDBRANCH  17  18
ENDBRANCH   5  17
TORSDOF 7
