REMARK  Name = ZINC41585927
REMARK  4 active torsions:
REMARK  status: ('A' for Active; 'I' for Inactive)
REMARK    1  A    between atoms: C_4  and  C_7
REMARK    2  A    between atoms: C_11  and  O_29
REMARK    3  A    between atoms: C_12  and  C_16
REMARK    4  A    between atoms: C_16  and  N_17
REMARK                            x       y       z     vdW  Elec       q    Type
REMARK                         _______ _______ _______ _____ _____    ______ ____
ROOT
ATOM      1  C   UNL     1       3.774  -0.645   0.004  0.00  0.00    +0.121 A 
ATOM      2  C   UNL     1       4.050  -1.934   0.657  0.00  0.00    +0.050 A 
ATOM      3  C   UNL     1       3.283  -2.802   1.436  0.00  0.00    +0.017 A 
ATOM      4  C   UNL     1       3.835  -3.957   1.912  0.00  0.00    +0.046 A 
ATOM      5  C   UNL     1       5.161  -4.275   1.626  0.00  0.00    +0.125 A 
ATOM      6  C   UNL     1       5.935  -3.426   0.856  0.00  0.00    +0.053 A 
ATOM      7  C   UNL     1       5.387  -2.248   0.365  0.00  0.00    +0.176 A 
ATOM      8  O   UNL     1       5.878  -1.246  -0.393  0.00  0.00    -0.354 OA
ATOM      9  N   UNL     1       4.870  -0.278  -0.606  0.00  0.00    -0.077 NA
ENDROOT
BRANCH   1  13
ATOM     10  C   UNL     1       0.093   1.482   0.071  0.00  0.00    +0.000 A 
ATOM     11  C   UNL     1       1.290   2.176   0.070  0.00  0.00    +0.001 A 
ATOM     12  C   UNL     1       2.488   1.491   0.048  0.00  0.00    +0.010 A 
ATOM     13  C   UNL     1       2.490   0.097   0.028  0.00  0.00    +0.004 A 
ATOM     14  C   UNL     1       1.282  -0.597   0.030  0.00  0.00    +0.010 A 
ATOM     15  C   UNL     1       0.090   0.098   0.051  0.00  0.00    +0.001 A 
ENDBRANCH   1  13
BRANCH   5  16
ATOM     16  O   UNL     1       5.697  -5.426   2.107  0.00  0.00    -0.506 OA
ATOM     17  H   UNL     1       5.593  -6.185   1.517  0.00  0.00    +0.292 HD
ENDBRANCH   5  16
BRANCH   6  18
ATOM     18  C   UNL     1       7.369  -3.778   0.551  0.00  0.00    +0.127 C 
BRANCH  18  19
ATOM     19  N   UNL     1       7.427  -4.558  -0.692  0.00  0.00    -0.295 NA
ATOM     20  C   UNL     1       7.006  -3.748  -1.843  0.00  0.00    +0.103 C 
ATOM     21  C   UNL     1       6.907  -4.642  -3.084  0.00  0.00    +0.122 C 
ATOM     22  N   UNL     1       8.186  -5.347  -3.255  0.00  0.00    -0.314 N 
ATOM     23  C   UNL     1       8.742  -6.070  -2.101  0.00  0.00    +0.122 C 
ATOM     24  C   UNL     1       8.769  -5.120  -0.899  0.00  0.00    +0.103 C 
ATOM     25  C   UNL     1       8.852  -5.331  -4.475  0.00  0.00    +0.099 A 
ATOM     26  C   UNL     1      10.116  -5.903  -4.578  0.00  0.00    +0.042 A 
ATOM     27  C   UNL     1      10.767  -5.880  -5.798  0.00  0.00    +0.005 A 
ATOM     28  C   UNL     1      10.130  -5.284  -6.878  0.00  0.00    +0.018 A 
ATOM     29  C   UNL     1       8.876  -4.735  -6.705  0.00  0.00    +0.084 A 
ATOM     30  N   UNL     1       8.275  -4.776  -5.530  0.00  0.00    -0.350 N 
ATOM     31  H   UNL     1       7.392  -4.387  -5.436  0.00  0.00    +0.166 HD
ENDBRANCH  18  19
ENDBRANCH   6  18
TORSDOF 4
