REMARK  Name = ZINC12619459
REMARK  4 active torsions:
REMARK  status: ('A' for Active; 'I' for Inactive)
REMARK    1  A    between atoms: C_4  and  C_7
REMARK    2  A    between atoms: C_7  and  C_9
REMARK    3  A    between atoms: C_11  and  C_29
REMARK    4  A    between atoms: C_13  and  N_26
REMARK                            x       y       z     vdW  Elec       q    Type
REMARK                         _______ _______ _______ _____ _____    ______ ____
ROOT
ATOM      1  C   UNL     1       3.330  -0.743  -0.722  0.00  0.00    +0.155 C 
ATOM      2  C   UNL     1       3.528  -0.763   0.815  0.00  0.00    +0.078 C 
ATOM      3  C   UNL     1       4.876  -0.029   1.058  0.00  0.00    +0.203 C 
ATOM      4  C   UNL     1       5.569  -0.175  -0.309  0.00  0.00    +0.127 C 
ATOM      5  N   UNL     1       4.443   0.035  -1.256  0.00  0.00    -0.310 N 
ATOM      6  C   UNL     1       4.866  -0.179  -2.544  0.00  0.00    +0.038 A 
ATOM      7  C   UNL     1       4.139  -0.887  -3.482  0.00  0.00    +0.024 A 
ATOM      8  C   UNL     1       4.644  -1.060  -4.758  0.00  0.00    +0.002 A 
ATOM      9  C   UNL     1       5.875  -0.530  -5.105  0.00  0.00    +0.001 A 
ATOM     10  C   UNL     1       6.615   0.182  -4.181  0.00  0.00    +0.010 A 
ATOM     11  C   UNL     1       6.120   0.367  -2.897  0.00  0.00    -0.004 A 
ATOM     12  C   UNL     1       6.872   1.131  -1.875  0.00  0.00    +0.007 C 
ATOM     13  C   UNL     1       6.609   0.871  -0.582  0.00  0.00    -0.002 C 
ENDROOT
BRANCH   2  14
ATOM     14  C   UNL     1       2.402  -0.031   1.498  0.00  0.00    -0.040 A 
ATOM     15  C   UNL     1       1.662  -0.663   2.480  0.00  0.00    +0.005 A 
ATOM     16  C   UNL     1       0.630   0.008   3.108  0.00  0.00    +0.020 A 
ATOM     17  C   UNL     1       0.337   1.312   2.753  0.00  0.00    +0.041 A 
ATOM     18  C   UNL     1       1.077   1.944   1.770  0.00  0.00    +0.020 A 
ATOM     19  C   UNL     1       2.109   1.272   1.143  0.00  0.00    +0.005 A 
ATOM     20 CL   UNL     1      -0.965   2.154   3.536  0.00  0.00    -0.084 Cl
ENDBRANCH   2  14
BRANCH   3  21
ATOM     21  N   UNL     1       4.652   1.382   1.383  0.00  0.00    +0.028 N 
ATOM     22  O   UNL     1       4.516   1.725   2.543  0.00  0.00    -0.131 OA
ATOM     23  O   UNL     1       4.602   2.211   0.492  0.00  0.00    -0.131 OA
ENDBRANCH   3  21
BRANCH   1  24
ATOM     24  C   UNL     1       2.019  -0.084  -1.068  0.00  0.00    +0.184 C 
ATOM     25  O   UNL     1       2.004   1.059  -1.474  0.00  0.00    -0.290 OA
BRANCH  24  29
ATOM     26  C   UNL     1      -1.614  -2.227  -0.625  0.00  0.00    +0.000 A 
ATOM     27  C   UNL     1      -1.636  -0.923  -1.088  0.00  0.00    +0.001 A 
ATOM     28  C   UNL     1      -0.460  -0.220  -1.235  0.00  0.00    +0.011 A 
ATOM     29  C   UNL     1       0.759  -0.827  -0.914  0.00  0.00    +0.019 A 
ATOM     30  C   UNL     1       0.773  -2.147  -0.453  0.00  0.00    +0.011 A 
ATOM     31  C   UNL     1      -0.413  -2.836  -0.306  0.00  0.00    +0.001 A 
ENDBRANCH  24  29
ENDBRANCH   1  24
TORSDOF 4
