REMARK  Name = ZINC01433565
REMARK  8 active torsions:
REMARK  status: ('A' for Active; 'I' for Inactive)
REMARK    1  A    between atoms: C_1  and  C_2
REMARK    2  A    between atoms: C_6  and  N_8
REMARK    3  A    between atoms: N_8  and  C_9
REMARK    4  A    between atoms: C_9  and  C_10
REMARK    5  A    between atoms: N_12  and  N_13
REMARK    6  A    between atoms: C_14  and  C_15
REMARK    7  A    between atoms: C_19  and  C_22
REMARK    8  A    between atoms: C_20  and  O_21
REMARK                            x       y       z     vdW  Elec       q    Type
REMARK                         _______ _______ _______ _____ _____    ______ ____
ROOT
ATOM      1  C   UNL     1       0.894   7.466   0.035  0.00  0.00    +0.249 C 
ATOM      2  O   UNL     1      -0.255   7.855   0.048  0.00  0.00    -0.272 OA
ATOM      3  N   UNL     1       1.907   8.356   0.031  0.00  0.00    -0.206 N 
ATOM      4  H   UNL     1       2.825   8.045   0.020  0.00  0.00    +0.177 HD
ENDROOT
BRANCH   3   5
ATOM      5  N   UNL     1       1.632   9.730   0.041  0.00  0.00    -0.188 NA
ATOM      6  C   UNL     1       2.607  10.587   0.037  0.00  0.00    +0.142 C 
BRANCH   6   7
ATOM      7  C   UNL     1       2.318  12.032   0.048  0.00  0.00    +0.037 A 
ATOM      8  C   UNL     1       3.364  12.957   0.043  0.00  0.00    +0.028 A 
ATOM      9  C   UNL     1       3.087  14.309   0.054  0.00  0.00    +0.019 A 
ATOM     10  C   UNL     1       1.774  14.752   0.068  0.00  0.00    +0.022 A 
ATOM     11  C   UNL     1       0.731  13.846   0.073  0.00  0.00    -0.007 A 
ATOM     12  C   UNL     1       0.992  12.485   0.057  0.00  0.00    +0.128 A 
ATOM     13  C   UNL     1      -0.693  14.338   0.089  0.00  0.00    +0.047 C 
ATOM     14 BR   UNL     1       4.503  15.561   0.048  0.00  0.00    -0.050 Br
BRANCH  12  15
ATOM     15  O   UNL     1      -0.033  11.594   0.056  0.00  0.00    -0.506 OA
ATOM     16  H   UNL     1      -0.326  11.330   0.939  0.00  0.00    +0.292 HD
ENDBRANCH  12  15
ENDBRANCH   6   7
ENDBRANCH   3   5
BRANCH   1  17
ATOM     17  C   UNL     1       1.190   5.989   0.024  0.00  0.00    +0.199 C 
BRANCH  17  18
ATOM     18  N   UNL     1      -0.069   5.239   0.031  0.00  0.00    -0.335 N 
ATOM     19  H   UNL     1      -0.916   5.713   0.042  0.00  0.00    +0.147 HD
BRANCH  18  25
ATOM     20  C   UNL     1      -2.514   0.976   0.019  0.00  0.00    +0.044 C 
ATOM     21  C   UNL     1      -1.220   1.749   0.017  0.00  0.00    -0.049 A 
ATOM     22  C   UNL     1      -0.013   1.076   0.008  0.00  0.00    +0.003 A 
ATOM     23  C   UNL     1       1.176   1.782   0.000  0.00  0.00    +0.002 A 
ATOM     24  C   UNL     1       1.161   3.163   0.008  0.00  0.00    +0.023 A 
ATOM     25  C   UNL     1      -0.050   3.842   0.023  0.00  0.00    +0.028 A 
ATOM     26  C   UNL     1      -1.243   3.130   0.031  0.00  0.00    +0.026 A 
ENDBRANCH  18  25
ENDBRANCH  17  18
ENDBRANCH   1  17
TORSDOF 6
