REMARK  Name = ZINC30988425
REMARK  4 active torsions:
REMARK  status: ('A' for Active; 'I' for Inactive)
REMARK    1  A    between atoms: C_1  and  N_2
REMARK    2  A    between atoms: N_2  and  C_3
REMARK    3  A    between atoms: N_16  and  C_17
REMARK    4  A    between atoms: C_17  and  C_18
REMARK                            x       y       z     vdW  Elec       q    Type
REMARK                         _______ _______ _______ _____ _____    ______ ____
ROOT
ATOM      1  C   UNL     1      -0.833  -1.730   2.328  0.00  0.00    +0.134 C 
ATOM      2  N   UNL     1      -1.095  -1.966   0.906  0.00  0.00    -0.282 N 
ATOM      3  C   UNL     1      -1.189  -3.226   0.438  0.00  0.00    +0.303 C 
ATOM      4  O   UNL     1      -1.406  -3.422  -0.742  0.00  0.00    -0.253 OA
ATOM      5  N   UNL     1      -1.040  -4.270   1.278  0.00  0.00    -0.296 N 
ATOM      6  H   UNL     1      -0.844  -4.093   2.346  0.00  0.00    +0.150 HD
ENDROOT
BRANCH   2   7
ATOM      7  C   UNL     1      -1.256  -0.832  -0.007  0.00  0.00    +0.108 C 
ATOM      8  C   UNL     1      -2.453   0.006   0.438  0.00  0.00    +0.028 C 
ATOM      9  C   UNL     1      -2.477   1.295  -0.392  0.00  0.00    +0.007 C 
ATOM     10  C   UNL     1      -1.297   2.166   0.035  0.00  0.00    +0.035 C 
ATOM     11  C   UNL     1      -0.017   1.373   0.010  0.00  0.00    -0.042 A 
ATOM     12  C   UNL     1       0.002  -0.004   0.002  0.00  0.00    -0.024 A 
ATOM     13  C   UNL     1       1.218  -0.675  -0.004  0.00  0.00    +0.006 A 
ATOM     14  C   UNL     1       2.406   0.026  -0.008  0.00  0.00    +0.000 A 
ATOM     15  C   UNL     1       2.387   1.408  -0.006  0.00  0.00    +0.000 A 
ATOM     16  C   UNL     1       1.180   2.077   0.002  0.00  0.00    +0.004 A 
ENDBRANCH   2   7
BRANCH   5  17
ATOM     17  C   UNL     1      -1.142  -5.640   0.770  0.00  0.00    +0.153 C 
BRANCH  17  18
ATOM     18  C   UNL     1      -0.936  -6.627   1.920  0.00  0.00    +0.228 C 
ATOM     19  C   UNL     1      -0.947  -8.063   1.378  0.00  0.00    +0.275 C 
ATOM     20  O   UNL     1      -0.767  -8.960   2.479  0.00  0.00    -0.485 OA
ATOM     21  C   UNL     1      -1.518  -8.724   3.590  0.00  0.00    +0.162 A 
ATOM     22  C   UNL     1      -1.666  -9.726   4.537  0.00  0.00    +0.049 A 
ATOM     23  C   UNL     1      -2.420  -9.499   5.673  0.00  0.00    +0.004 A 
ATOM     24  C   UNL     1      -3.029  -8.273   5.868  0.00  0.00    +0.004 A 
ATOM     25  C   UNL     1      -2.887  -7.271   4.927  0.00  0.00    +0.049 A 
ATOM     26  C   UNL     1      -2.132  -7.493   3.784  0.00  0.00    +0.163 A 
ATOM     27  O   UNL     1      -2.004  -6.497   2.865  0.00  0.00    -0.480 OA
ENDBRANCH  17  18
ENDBRANCH   5  17
TORSDOF 3
