REMARK  Name = ZINC13211506
REMARK  12 active torsions:
REMARK  status: ('A' for Active; 'I' for Inactive)
REMARK    1  A    between atoms: C_1  and  N_2
REMARK    2  A    between atoms: N_2  and  C_3
REMARK    3  A    between atoms: N_2  and  C_4
REMARK    4  A    between atoms: C_4  and  C_6
REMARK    5  A    between atoms: C_4  and  C_30
REMARK    6  A    between atoms: C_6  and  N_7
REMARK    7  A    between atoms: N_7  and  C_8
REMARK    8  A    between atoms: C_11  and  S_17
REMARK    9  A    between atoms: C_13  and  N_14
REMARK   10  A    between atoms: S_17  and  N_20
REMARK   11  A    between atoms: N_20  and  C_21
REMARK   12  A    between atoms: C_24  and  C_27
REMARK                            x       y       z     vdW  Elec       q    Type
REMARK                         _______ _______ _______ _____ _____    ______ ____
ROOT
ATOM      1  C   UNL     1       1.063  -2.216  -1.776  0.00  0.00    +0.058 A 
ATOM      2  C   UNL     1       0.781  -2.806  -0.549  0.00  0.00    +0.027 A 
ATOM      3  C   UNL     1       1.137  -4.119  -0.318  0.00  0.00    +0.031 A 
ATOM      4  C   UNL     1       1.775  -4.849  -1.305  0.00  0.00    +0.111 A 
ATOM      5  C   UNL     1       2.058  -4.265  -2.526  0.00  0.00    +0.063 A 
ATOM      6  C   UNL     1       1.699  -2.953  -2.767  0.00  0.00    +0.149 A 
ENDROOT
BRANCH   6   7
ATOM      7  N   UNL     1       1.997  -2.332  -4.076  0.00  0.00    +0.058 N 
ATOM      8  O   UNL     1       1.196  -1.583  -4.586  0.00  0.00    -0.126 OA
ATOM      9  O   UNL     1       3.041  -2.572  -4.636  0.00  0.00    -0.126 OA
ENDBRANCH   6   7
BRANCH   4  10
ATOM     10  S   UNL     1       2.228  -6.525  -1.006  0.00  0.00    +0.072 S 
ATOM     11  O   UNL     1       3.379  -6.782  -1.798  0.00  0.00    -0.150 OA
ATOM     12  O   UNL     1       2.219  -6.702   0.404  0.00  0.00    -0.150 OA
BRANCH  10  13
ATOM     13  N   UNL     1       1.014  -7.476  -1.610  0.00  0.00    -0.216 N 
ATOM     14  H   UNL     1       1.198  -8.095  -2.333  0.00  0.00    +0.174 HD
BRANCH  13  15
ATOM     15  C   UNL     1      -0.267  -7.386  -1.082  0.00  0.00    +0.048 A 
ATOM     16  C   UNL     1      -0.449  -7.351   0.299  0.00  0.00    +0.025 A 
ATOM     17  C   UNL     1      -1.707  -7.263   0.822  0.00  0.00    +0.017 A 
ATOM     18  C   UNL     1      -2.815  -7.207  -0.031  0.00  0.00    +0.063 A 
ATOM     19  C   UNL     1      -2.629  -7.241  -1.418  0.00  0.00    +0.017 A 
ATOM     20  C   UNL     1      -1.367  -7.324  -1.934  0.00  0.00    +0.025 A 
BRANCH  18  21
ATOM     21  C   UNL     1      -4.173  -7.112   0.528  0.00  0.00    +0.387 C 
ATOM     22  O   UNL     1      -4.334  -7.082   1.741  0.00  0.00    -0.241 OA
ATOM     23  O   UNL     1      -5.141  -7.063  -0.218  0.00  0.00    -0.241 OA
ENDBRANCH  18  21
ENDBRANCH  13  15
ENDBRANCH  10  13
ENDBRANCH   4  10
BRANCH   1  24
ATOM     24  N   UNL     1       0.704  -0.888  -2.013  0.00  0.00    -0.340 N 
ATOM     25  H   UNL     1       0.985  -0.448  -2.831  0.00  0.00    +0.146 HD
BRANCH  24  26
ATOM     26  C   UNL     1      -0.098  -0.158  -1.027  0.00  0.00    +0.125 C 
BRANCH  26  27
ATOM     27  C   UNL     1      -0.350   1.265  -1.528  0.00  0.00    +0.110 C 
BRANCH  27  28
ATOM     28  C   UNL     1      -1.067   2.053  -0.462  0.00  0.00    +0.008 A 
ATOM     29  C   UNL     1      -2.351   2.487  -0.441  0.00  0.00    +0.013 A 
ATOM     30  C   UNL     1      -2.800   3.200   0.655  0.00  0.00    +0.008 A 
ATOM     31  C   UNL     1      -1.942   3.445   1.676  0.00  0.00    +0.045 A 
ATOM     32  S   UNL     1      -0.450   2.649   1.103  0.00  0.00    -0.100 S 
ENDBRANCH  27  28
BRANCH  27  34
ATOM     33  C   UNL     1       0.737   3.314  -2.223  0.00  0.00    +0.105 C 
ATOM     34  N   UNL     1       0.934   1.911  -1.833  0.00  0.00    -0.300 NA
ATOM     35  C   UNL     1       1.860   1.805  -0.698  0.00  0.00    +0.105 C 
ENDBRANCH  27  34
ENDBRANCH  26  27
ENDBRANCH  24  26
ENDBRANCH   1  24
TORSDOF 10
