REMARK  Name = ZINC41584042
REMARK  10 active torsions:
REMARK  status: ('A' for Active; 'I' for Inactive)
REMARK    1  A    between atoms: C_1  and  C_2
REMARK    2  A    between atoms: C_2  and  C_3
REMARK    3  A    between atoms: C_3  and  C_4
REMARK    4  A    between atoms: C_4  and  N_5
REMARK    5  A    between atoms: N_5  and  C_6
REMARK    6  A    between atoms: N_5  and  C_7
REMARK    7  A    between atoms: C_7  and  C_8
REMARK    8  A    between atoms: C_9  and  O_27
REMARK    9  A    between atoms: C_11  and  C_26
REMARK   10  A    between atoms: C_16  and  C_17
REMARK                            x       y       z     vdW  Elec       q    Type
REMARK                         _______ _______ _______ _____ _____    ______ ____
ROOT
ATOM      1  C   UNL     1      -4.226  -4.463  -0.220  0.00  0.00    +0.020 A 
ATOM      2  C   UNL     1      -4.942  -4.783   0.922  0.00  0.00    +0.122 A 
ATOM      3  C   UNL     1      -6.245  -5.263   0.829  0.00  0.00    +0.050 A 
ATOM      4  C   UNL     1      -6.832  -5.425  -0.394  0.00  0.00    -0.033 A 
ATOM      5  C   UNL     1      -6.122  -5.107  -1.553  0.00  0.00    +0.071 A 
ATOM      6  C   UNL     1      -4.809  -4.616  -1.472  0.00  0.00    +0.145 A 
ATOM      7  O   UNL     1      -4.335  -4.375  -2.713  0.00  0.00    -0.451 OA
ATOM      8  C   UNL     1      -5.250  -4.667  -3.667  0.00  0.00    +0.176 C 
ATOM      9  C   UNL     1      -5.081  -4.535  -5.006  0.00  0.00    +0.058 C 
ATOM     10  C   UNL     1      -6.456  -5.165  -2.987  0.00  0.00    +0.232 C 
ATOM     11  O   UNL     1      -7.502  -5.531  -3.496  0.00  0.00    -0.283 OA
ATOM     12  C   UNL     1      -8.242  -5.946  -0.492  0.00  0.00    +0.045 C 
ENDROOT
BRANCH   9  13
ATOM     13  C   UNL     1      -3.852  -3.929  -5.536  0.00  0.00    -0.021 A 
ATOM     14  C   UNL     1      -2.797  -3.608  -4.673  0.00  0.00    +0.009 A 
ATOM     15  C   UNL     1      -1.648  -3.039  -5.178  0.00  0.00    +0.016 A 
ATOM     16  C   UNL     1      -1.535  -2.784  -6.535  0.00  0.00    +0.018 A 
ATOM     17  C   UNL     1      -2.574  -3.098  -7.395  0.00  0.00    +0.016 A 
ATOM     18  C   UNL     1      -3.728  -3.674  -6.907  0.00  0.00    +0.009 A 
ATOM     19 BR   UNL     1       0.046  -2.002  -7.216  0.00  0.00    -0.050 Br
ENDBRANCH   9  13
BRANCH   2  20
ATOM     20  O   UNL     1      -4.368  -4.627   2.142  0.00  0.00    -0.506 OA
ATOM     21  H   UNL     1      -4.509  -3.754   2.534  0.00  0.00    +0.292 HD
ENDBRANCH   2  20
BRANCH   1  22
ATOM     22  C   UNL     1      -2.815  -3.945  -0.104  0.00  0.00    -0.036 C 
BRANCH  22  23
ATOM     23  N   UNL     1      -2.840  -2.479  -0.000  0.00  0.00    +0.381 N 
ATOM     24  C   UNL     1      -3.501  -2.089   1.252  0.00  0.00    -0.096 C 
ATOM     25  H   UNL     1      -3.347  -2.095  -0.783  0.00  0.00    -0.082 HD
BRANCH  23  26
ATOM     26  C   UNL     1      -1.464  -1.965  -0.008  0.00  0.00    -0.079 C 
BRANCH  26  27
ATOM     27  C   UNL     1      -1.491  -0.435  -0.025  0.00  0.00    -0.019 C 
BRANCH  27  29
ATOM     28  C   UNL     1      -0.085   1.630  -0.050  0.00  0.00    +0.004 C 
ATOM     29  C   UNL     1      -0.058   0.100  -0.033  0.00  0.00    -0.005 C 
ENDBRANCH  27  29
ENDBRANCH  26  27
ENDBRANCH  23  26
ENDBRANCH  22  23
ENDBRANCH   1  22
TORSDOF 7
