REMARK  Name = ZINC34786865
REMARK  7 active torsions:
REMARK  status: ('A' for Active; 'I' for Inactive)
REMARK    1  A    between atoms: C_1  and  C_2
REMARK    2  A    between atoms: C_5  and  N_8
REMARK    3  A    between atoms: N_8  and  N_9
REMARK    4  A    between atoms: N_9  and  N_29
REMARK    5  A    between atoms: C_20  and  C_25
REMARK    6  A    between atoms: C_22  and  C_24
REMARK    7  A    between atoms: N_29  and  C_30
REMARK                            x       y       z     vdW  Elec       q    Type
REMARK                         _______ _______ _______ _____ _____    ______ ____
ROOT
ATOM      1  N   UNL     1       0.171  -4.771   1.161  0.00  0.00    -0.151 N 
ATOM      2  C   UNL     1      -0.953  -4.953   1.946  0.00  0.00    +0.170 A 
ATOM      3  C   UNL     1      -0.832  -5.433   3.279  0.00  0.00    +0.054 A 
ATOM      4  C   UNL     1       0.392  -5.796   4.012  0.00  0.00    -0.025 A 
ATOM      5  C   UNL     1       0.238  -6.229   5.274  0.00  0.00    -0.004 A 
ATOM      6  S   UNL     1      -1.515  -6.181   5.569  0.00  0.00    -0.073 S 
ATOM      7  C   UNL     1      -2.039  -5.580   3.986  0.00  0.00    +0.116 A 
ATOM      8  N   UNL     1      -3.202  -5.287   3.436  0.00  0.00    -0.203 NA
ATOM      9  C   UNL     1      -3.256  -4.843   2.190  0.00  0.00    +0.254 A 
ATOM     10  N   UNL     1      -2.156  -4.677   1.468  0.00  0.00    -0.192 NA
ATOM     11  N   UNL     1      -4.495  -4.540   1.626  0.00  0.00    -0.202 N 
ATOM     12  C   UNL     1      -5.703  -4.648   2.240  0.00  0.00    +0.045 A 
ATOM     13  C   UNL     1      -6.648  -4.258   1.355  0.00  0.00    +0.048 A 
ATOM     14  C   UNL     1      -6.004  -3.899   0.165  0.00  0.00    +0.061 A 
ATOM     15  N   UNL     1      -4.717  -4.062   0.327  0.00  0.00    -0.169 NA
ATOM     16  C   UNL     1      -6.679  -3.404  -1.088  0.00  0.00    +0.067 C 
ATOM     17  C   UNL     1      -5.945  -5.119   3.651  0.00  0.00    +0.066 C 
ATOM     18  C   UNL     1       1.552  -6.574   5.921  0.00  0.00    +0.043 C 
ATOM     19  C   UNL     1       2.541  -6.708   4.742  0.00  0.00    +0.010 C 
ATOM     20  C   UNL     1       1.887  -5.802   3.681  0.00  0.00    +0.037 C 
ENDROOT
BRANCH   1  21
ATOM     21  N   UNL     1       0.170  -5.194  -0.174  0.00  0.00    -0.246 N 
ATOM     22  H   UNL     1       0.406  -6.109  -0.394  0.00  0.00    +0.172 HD
BRANCH  21  27
ATOM     23  C   UNL     1      -1.220  -1.558  -4.298  0.00  0.00    +0.044 C 
ATOM     24  C   UNL     1      -0.851  -2.524  -3.202  0.00  0.00    -0.050 A 
ATOM     25  C   UNL     1      -0.400  -3.791  -3.523  0.00  0.00    +0.005 A 
ATOM     26  C   UNL     1      -0.060  -4.679  -2.521  0.00  0.00    +0.025 A 
ATOM     27  C   UNL     1      -0.172  -4.298  -1.190  0.00  0.00    +0.046 A 
ATOM     28  C   UNL     1      -0.626  -3.024  -0.871  0.00  0.00    +0.025 A 
ATOM     29  C   UNL     1      -0.959  -2.139  -1.878  0.00  0.00    +0.005 A 
ENDBRANCH  21  27
ENDBRANCH   1  21
BRANCH   1  30
ATOM     30  N   UNL     1       1.312  -4.164   1.702  0.00  0.00    -0.246 N 
ATOM     31  H   UNL     1       2.132  -4.673   1.800  0.00  0.00    +0.172 HD
BRANCH  30  32
ATOM     32  C   UNL     1       1.269  -2.826   2.100  0.00  0.00    +0.046 A 
ATOM     33  C   UNL     1       0.063  -2.137   2.096  0.00  0.00    +0.024 A 
ATOM     34  C   UNL     1       0.023  -0.814   2.491  0.00  0.00    +0.002 A 
ATOM     35  C   UNL     1       1.183  -0.175   2.890  0.00  0.00    +0.000 A 
ATOM     36  C   UNL     1       2.386  -0.858   2.895  0.00  0.00    +0.002 A 
ATOM     37  C   UNL     1       2.431  -2.183   2.507  0.00  0.00    +0.024 A 
ENDBRANCH  30  32
ENDBRANCH   1  30
TORSDOF 4
