REMARK  Name = ZINC02088917
REMARK  9 active torsions:
REMARK  status: ('A' for Active; 'I' for Inactive)
REMARK    1  A    between atoms: C_1  and  C_2
REMARK    2  A    between atoms: C_2  and  O_3
REMARK    3  A    between atoms: O_3  and  C_4
REMARK    4  A    between atoms: C_4  and  C_6
REMARK    5  A    between atoms: C_10  and  N_11
REMARK    6  A    between atoms: C_12  and  C_14
REMARK    7  A    between atoms: C_14  and  S_15
REMARK    8  A    between atoms: S_15  and  C_16
REMARK    9  A    between atoms: C_22  and  N_24
REMARK                            x       y       z     vdW  Elec       q    Type
REMARK                         _______ _______ _______ _____ _____    ______ ____
ROOT
ATOM      1  N   UNL     1      -0.288   1.272  -2.443  0.00  0.00    -0.279 N 
ATOM      2  C   UNL     1      -0.742   1.585  -1.213  0.00  0.00    +0.228 C 
ATOM      3  O   UNL     1      -1.736   2.268  -1.088  0.00  0.00    -0.275 OA
ATOM      4  H   UNL     1       0.507   0.726  -2.543  0.00  0.00    +0.155 HD
ENDROOT
BRANCH   1   9
ATOM      5  C   UNL     1      -0.647   1.522  -4.903  0.00  0.00    +0.091 A 
ATOM      6  C   UNL     1      -1.524   2.116  -5.898  0.00  0.00    -0.021 A 
ATOM      7  C   UNL     1      -2.558   2.829  -5.401  0.00  0.00    -0.004 A 
ATOM      8  S   UNL     1      -2.385   2.712  -3.643  0.00  0.00    -0.077 S 
ATOM      9  C   UNL     1      -0.959   1.732  -3.566  0.00  0.00    +0.086 A 
ATOM     10  C   UNL     1      -3.613   3.554  -6.179  0.00  0.00    +0.043 C 
ATOM     11  C   UNL     1      -3.137   3.684  -7.633  0.00  0.00    +0.005 C 
ATOM     12  C   UNL     1      -2.631   2.320  -8.110  0.00  0.00    +0.005 C 
ATOM     13  C   UNL     1      -1.321   1.974  -7.401  0.00  0.00    +0.037 C 
BRANCH   5  14
ATOM     14  C   UNL     1       0.520   0.730  -5.296  0.00  0.00    +0.342 C 
ATOM     15  O   UNL     1       0.412  -0.470  -5.461  0.00  0.00    -0.245 OA
BRANCH  14  16
ATOM     16  O   UNL     1       1.715   1.330  -5.474  0.00  0.00    -0.461 OA
BRANCH  16  18
ATOM     17  C   UNL     1       4.088   1.335  -6.017  0.00  0.00    +0.048 C 
ATOM     18  C   UNL     1       2.827   0.483  -5.863  0.00  0.00    +0.229 C 
ENDBRANCH  16  18
ENDBRANCH  14  16
ENDBRANCH   5  14
ENDBRANCH   1   9
BRANCH   2  19
ATOM     19  C   UNL     1      -0.013   1.086   0.008  0.00  0.00    +0.173 C 
BRANCH  19  20
ATOM     20  S   UNL     1      -0.860   1.669   1.497  0.00  0.00    -0.078 S 
BRANCH  20  21
ATOM     21  C   UNL     1       0.174   0.961   2.735  0.00  0.00    +0.171 A 
ATOM     22  N   UNL     1      -0.121   1.165   4.049  0.00  0.00    -0.302 N 
ATOM     23  H   UNL     1      -0.919   1.714   4.302  0.00  0.00    +0.171 HD
ATOM     24  C   UNL     1       0.659   0.630   5.011  0.00  0.00    +0.254 A 
ATOM     25  O   UNL     1       0.401   0.808   6.191  0.00  0.00    -0.268 OA
ATOM     26  C   UNL     1       1.769  -0.133   4.633  0.00  0.00    +0.113 A 
ATOM     27  C   UNL     1       2.027  -0.311   3.281  0.00  0.00    +0.124 A 
ATOM     28  N   UNL     1       1.214   0.239   2.372  0.00  0.00    -0.209 NA
BRANCH  27  29
ATOM     29  N   UNL     1       3.115  -1.059   2.876  0.00  0.00    -0.343 N 
ATOM     30  H   UNL     1       3.700  -1.460   3.537  0.00  0.00    +0.144 HD
ATOM     31  H   UNL     1       3.293  -1.182   1.931  0.00  0.00    +0.144 HD
ENDBRANCH  27  29
ENDBRANCH  20  21
ENDBRANCH  19  20
ENDBRANCH   2  19
TORSDOF 8
