REMARK  Name = ZINC20504198
REMARK  4 active torsions:
REMARK  status: ('A' for Active; 'I' for Inactive)
REMARK    1  A    between atoms: C_1  and  C_2
REMARK    2  A    between atoms: C_5  and  N_9
REMARK    3  A    between atoms: C_10  and  C_12
REMARK    4  A    between atoms: C_15  and  O_19
REMARK                            x       y       z     vdW  Elec       q    Type
REMARK                         _______ _______ _______ _____ _____    ______ ____
ROOT
ATOM      1  N   UNL     1      -2.070  -0.578  -1.221  0.00  0.00    -0.285 N 
ATOM      2  C   UNL     1      -1.518  -1.516  -0.426  0.00  0.00    +0.203 C 
ATOM      3  O   UNL     1      -1.686  -2.692  -0.669  0.00  0.00    -0.277 OA
ATOM      4  H   UNL     1      -1.988   0.486  -0.956  0.00  0.00    +0.155 HD
ENDROOT
BRANCH   1   9
ATOM      5  C   UNL     1      -4.818  -2.119  -5.941  0.00  0.00    +0.044 C 
ATOM      6  C   UNL     1      -4.088  -1.710  -4.688  0.00  0.00    -0.048 A 
ATOM      7  C   UNL     1      -4.777  -1.594  -3.495  0.00  0.00    +0.020 A 
ATOM      8  C   UNL     1      -4.112  -1.219  -2.344  0.00  0.00    +0.040 A 
ATOM      9  C   UNL     1      -2.748  -0.958  -2.386  0.00  0.00    +0.062 A 
ATOM     10  C   UNL     1      -2.059  -1.069  -3.587  0.00  0.00    +0.040 A 
ATOM     11  C   UNL     1      -2.730  -1.451  -4.734  0.00  0.00    +0.020 A 
ATOM     12 BR   UNL     1      -0.204  -0.707  -3.652  0.00  0.00    -0.048 Br
ATOM     13 BR   UNL     1      -5.055  -1.062  -0.713  0.00  0.00    -0.048 Br
ENDBRANCH   1   9
BRANCH   2  14
ATOM     14  C   UNL     1      -0.692  -1.103   0.765  0.00  0.00    +0.019 C 
ATOM     15  C   UNL     1       0.728  -0.717   0.310  0.00  0.00    +0.023 C 
ATOM     16  C   UNL     1       1.670  -1.680   1.067  0.00  0.00    +0.097 C 
ATOM     17  C   UNL     1       0.811  -2.126   2.277  0.00  0.00    -0.050 C 
ATOM     18  N   UNL     1      -0.554  -2.240   1.700  0.00  0.00    +0.388 N 
ATOM     19  H   UNL     1      -1.324  -2.167   2.482  0.00  0.00    -0.085 HD
ATOM     20  H   UNL     1      -0.677  -3.184   1.151  0.00  0.00    -0.085 HD
BRANCH  16  21
ATOM     21  O   UNL     1       2.845  -0.996   1.507  0.00  0.00    -0.394 OA
ATOM     22  H   UNL     1       3.622  -1.540   2.065  0.00  0.00    +0.210 HD
ENDBRANCH  16  21
ENDBRANCH   2  14
TORSDOF 3
