REMARK  Name = ZINC14459031
REMARK  6 active torsions:
REMARK  status: ('A' for Active; 'I' for Inactive)
REMARK    1  A    between atoms: C_1  and  O_2
REMARK    2  A    between atoms: O_2  and  C_3
REMARK    3  A    between atoms: C_5  and  C_10
REMARK    4  A    between atoms: C_8  and  O_9
REMARK    5  A    between atoms: C_21  and  S_26
REMARK    6  A    between atoms: S_26  and  N_29
REMARK                            x       y       z     vdW  Elec       q    Type
REMARK                         _______ _______ _______ _____ _____    ______ ____
ROOT
ATOM      1  C   UNL     1       2.634  -4.247  -2.643  0.00  0.00    +0.105 C 
ATOM      2  C   UNL     1       2.763  -2.800  -3.085  0.00  0.00    +0.029 C 
ATOM      3  C   UNL     1       3.645  -2.542  -4.309  0.00  0.00    +0.033 C 
ATOM      4  C   UNL     1       2.999  -1.273  -4.870  0.00  0.00    -0.030 C 
ATOM      5  C   UNL     1       1.720  -1.221  -4.518  0.00  0.00    -0.023 C 
ATOM      6  C   UNL     1       1.393  -2.441  -3.735  0.00  0.00    +0.049 C 
ATOM      7  C   UNL     1       0.369  -2.437  -2.669  0.00  0.00    -0.018 A 
ATOM      8  C   UNL     1      -0.697  -1.564  -2.669  0.00  0.00    +0.034 A 
ATOM      9  C   UNL     1      -1.637  -1.610  -1.656  0.00  0.00    +0.106 A 
ATOM     10  C   UNL     1      -1.515  -2.542  -0.642  0.00  0.00    +0.030 A 
ATOM     11  C   UNL     1      -0.450  -3.420  -0.631  0.00  0.00    +0.025 A 
ATOM     12  C   UNL     1       0.506  -3.374  -1.639  0.00  0.00    +0.031 A 
ATOM     13  N   UNL     1       1.597  -4.252  -1.589  0.00  0.00    -0.336 N 
ATOM     14  H   UNL     1       1.673  -4.874  -0.848  0.00  0.00    +0.147 HD
ENDROOT
BRANCH   1  17
ATOM     15  C   UNL     1       0.457  -6.120  -5.099  0.00  0.00    +0.162 A 
ATOM     16  C   UNL     1       0.857  -5.332  -4.031  0.00  0.00    +0.054 A 
ATOM     17  C   UNL     1       2.201  -5.109  -3.802  0.00  0.00    -0.023 A 
ATOM     18  C   UNL     1       3.151  -5.678  -4.630  0.00  0.00    +0.009 A 
ATOM     19  C   UNL     1       2.760  -6.470  -5.693  0.00  0.00    +0.049 A 
ATOM     20  C   UNL     1       1.413  -6.694  -5.932  0.00  0.00    +0.158 A 
BRANCH  15  22
ATOM     21  C   UNL     1      -1.790  -5.716  -4.433  0.00  0.00    +0.277 C 
ATOM     22  O   UNL     1      -0.865  -6.337  -5.329  0.00  0.00    -0.491 OA
ENDBRANCH  15  22
BRANCH  20  23
ATOM     23  O   UNL     1       1.026  -7.472  -6.978  0.00  0.00    -0.503 OA
ATOM     24  H   UNL     1       0.941  -8.410  -6.760  0.00  0.00    +0.292 HD
ENDBRANCH  20  23
ENDBRANCH   1  17
BRANCH   9  25
ATOM     25  S   UNL     1      -2.994  -0.487  -1.662  0.00  0.00    +0.061 S 
ATOM     26  O   UNL     1      -4.030  -1.098  -0.905  0.00  0.00    -0.153 OA
ATOM     27  O   UNL     1      -3.177  -0.077  -3.010  0.00  0.00    -0.153 OA
BRANCH  25  28
ATOM     28  N   UNL     1      -2.521   0.857  -0.818  0.00  0.00    -0.177 NA
ATOM     29  C   UNL     1      -1.889   1.955  -1.491  0.00  0.00    +0.109 C 
ATOM     30  C   UNL     1      -0.347   1.879  -1.619  0.00  0.00    +0.017 C 
ATOM     31  C   UNL     1       0.272   1.357  -0.300  0.00  0.00    +0.001 C 
ATOM     32  C   UNL     1      -0.448   1.926   0.888  0.00  0.00    +0.001 C 
ATOM     33  C   UNL     1      -1.441   0.850   1.315  0.00  0.00    +0.017 C 
ATOM     34  C   UNL     1      -2.747   0.946   0.664  0.00  0.00    +0.109 C 
ENDBRANCH  25  28
ENDBRANCH   9  25
TORSDOF 5
