REMARK  Name = ZINC22851855
REMARK  6 active torsions:
REMARK  status: ('A' for Active; 'I' for Inactive)
REMARK    1  A    between atoms: C_4  and  C_7
REMARK    2  A    between atoms: C_7  and  C_8
REMARK    3  A    between atoms: N_11  and  C_14
REMARK    4  A    between atoms: C_14  and  C_16
REMARK    5  A    between atoms: C_14  and  C_23
REMARK    6  A    between atoms: C_29  and  C_31
REMARK                            x       y       z     vdW  Elec       q    Type
REMARK                         _______ _______ _______ _____ _____    ______ ____
ROOT
ATOM      1  C   UNL     1      -2.524   1.637   0.023  0.00  0.00    +0.007 C 
ENDROOT
BRANCH   1   2
ATOM      2  C   UNL     1      -2.836   1.175  -1.377  0.00  0.00    +0.050 A 
ATOM      3  C   UNL     1      -2.730  -0.050  -1.906  0.00  0.00    +0.282 A 
ATOM      4  N   UNL     1      -3.066  -0.279  -3.218  0.00  0.00    -0.169 N 
ATOM      5  C   UNL     1      -3.508   0.793  -3.944  0.00  0.00    +0.200 A 
ATOM      6  S   UNL     1      -3.451   2.119  -2.764  0.00  0.00    -0.050 S 
ATOM      7  N   UNL     1      -3.785   0.415  -5.161  0.00  0.00    -0.197 NA
ATOM      8  C   UNL     1      -3.542  -0.897  -5.284  0.00  0.00    +0.218 A 
ATOM      9  N   UNL     1      -3.104  -1.362  -4.134  0.00  0.00    -0.138 NA
ATOM     10  O   UNL     1      -2.284  -1.078  -1.135  0.00  0.00    -0.265 OA
BRANCH   8  11
ATOM     11  C   UNL     1      -3.734  -1.693  -6.514  0.00  0.00    +0.173 A 
ATOM     12  C   UNL     1      -4.184  -1.222  -7.707  0.00  0.00    +0.053 A 
ATOM     13  C   UNL     1      -4.211  -2.318  -8.592  0.00  0.00    +0.042 A 
ATOM     14  C   UNL     1      -3.780  -3.393  -7.903  0.00  0.00    +0.196 A 
ATOM     15  O   UNL     1      -3.487  -3.010  -6.649  0.00  0.00    -0.460 OA
ENDBRANCH   8  11
ENDBRANCH   1   2
BRANCH   1  19
ATOM     16  C   UNL     1      -5.731   3.357   2.268  0.00  0.00    -0.010 C 
ATOM     17  C   UNL     1      -6.014   2.751   0.890  0.00  0.00    -0.015 C 
ATOM     18  C   UNL     1      -4.888   1.783   0.522  0.00  0.00    -0.077 C 
ATOM     19  N   UNL     1      -3.608   2.502   0.506  0.00  0.00    +0.387 N 
ATOM     20  C   UNL     1      -3.291   3.052   1.831  0.00  0.00    -0.077 C 
ATOM     21  C   UNL     1      -4.370   4.058   2.238  0.00  0.00    -0.015 C 
ATOM     22  H   UNL     1      -3.706   3.346  -0.192  0.00  0.00    -0.080 HD
BRANCH  16  23
ATOM     23  C   UNL     1      -6.822   4.370   2.615  0.00  0.00    +0.038 C 
BRANCH  23  27
ATOM     24  C   UNL     1      -6.224   5.799   6.596  0.00  0.00    +0.000 A 
ATOM     25  C   UNL     1      -5.633   6.452   5.531  0.00  0.00    +0.000 A 
ATOM     26  C   UNL     1      -5.827   5.990   4.243  0.00  0.00    +0.003 A 
ATOM     27  C   UNL     1      -6.611   4.874   4.020  0.00  0.00    -0.047 A 
ATOM     28  C   UNL     1      -7.207   4.223   5.084  0.00  0.00    +0.003 A 
ATOM     29  C   UNL     1      -7.009   4.683   6.373  0.00  0.00    +0.000 A 
ENDBRANCH  23  27
ENDBRANCH  16  23
ENDBRANCH   1  19
BRANCH   1  30
ATOM     30  C   UNL     1      -1.229   2.407   0.021  0.00  0.00    -0.038 A 
ATOM     31  C   UNL     1      -1.247   3.789   0.034  0.00  0.00    +0.004 A 
ATOM     32  C   UNL     1      -0.059   4.497   0.027  0.00  0.00    +0.000 A 
ATOM     33  C   UNL     1       1.148   3.822   0.012  0.00  0.00    +0.001 A 
ATOM     34  C   UNL     1       1.167   2.440   0.004  0.00  0.00    +0.020 A 
ATOM     35  C   UNL     1      -0.021   1.732   0.012  0.00  0.00    +0.043 A 
ATOM     36 CL   UNL     1       0.002  -0.004   0.002  0.00  0.00    -0.083 Cl
ENDBRANCH   1  30
TORSDOF 6
