REMARK  Name = ZINC39488913
REMARK  9 active torsions:
REMARK  status: ('A' for Active; 'I' for Inactive)
REMARK    1  A    between atoms: C_1  and  N_2
REMARK    2  A    between atoms: C_6  and  C_8
REMARK    3  A    between atoms: C_8  and  C_10
REMARK    4  A    between atoms: C_8  and  O_16
REMARK    5  A    between atoms: O_16  and  C_17
REMARK    6  A    between atoms: C_17  and  C_19
REMARK    7  A    between atoms: C_19  and  C_20
REMARK    8  A    between atoms: C_23  and  S_26
REMARK    9  A    between atoms: S_26  and  N_29
REMARK                            x       y       z     vdW  Elec       q    Type
REMARK                         _______ _______ _______ _____ _____    ______ ____
ROOT
ATOM      1  C   UNL     1       1.337  -5.824  -3.745  0.00  0.00    +0.312 C 
ATOM      2  O   UNL     1       0.507  -6.447  -3.127  0.00  0.00    -0.250 OA
ENDROOT
BRANCH   1   3
ATOM      3  O   UNL     1       1.771  -4.641  -3.283  0.00  0.00    -0.447 OA
BRANCH   3   4
ATOM      4  C   UNL     1       1.207  -4.179  -2.054  0.00  0.00    +0.292 C 
BRANCH   4  10
ATOM      5  C   UNL     1      -0.018   1.461   0.010  0.00  0.00    +0.129 C 
ATOM      6  N   UNL     1       0.002  -0.004   0.002  0.00  0.00    -0.302 N 
ATOM      7  C   UNL     1       0.585  -0.664  -1.018  0.00  0.00    +0.306 C 
ATOM      8  O   UNL     1       1.094  -0.045  -1.931  0.00  0.00    -0.252 OA
ATOM      9  N   UNL     1       0.603  -2.012  -1.025  0.00  0.00    -0.237 N 
ATOM     10  C   UNL     1       1.186  -2.673  -2.045  0.00  0.00    +0.266 C 
ATOM     11  O   UNL     1       1.694  -2.054  -2.956  0.00  0.00    -0.271 OA
ATOM     12  H   UNL     1      -0.404  -0.499   0.731  0.00  0.00    +0.150 HD
ATOM     13  H   UNL     1       0.197  -2.507  -0.297  0.00  0.00    +0.159 HD
ENDBRANCH   4  10
BRANCH   4  14
ATOM     14  C   UNL     1       2.040  -4.677  -0.900  0.00  0.00    +0.002 A 
ATOM     15  C   UNL     1       3.418  -4.687  -0.997  0.00  0.00    +0.008 A 
ATOM     16  C   UNL     1       4.182  -5.143   0.061  0.00  0.00    +0.000 A 
ATOM     17  C   UNL     1       3.567  -5.589   1.216  0.00  0.00    +0.000 A 
ATOM     18  C   UNL     1       2.188  -5.578   1.313  0.00  0.00    +0.000 A 
ATOM     19  C   UNL     1       1.425  -5.118   0.257  0.00  0.00    +0.008 A 
ENDBRANCH   4  14
ENDBRANCH   3   4
ENDBRANCH   1   3
BRANCH   1  20
ATOM     20  C   UNL     1       1.887  -6.376  -5.036  0.00  0.00    +0.155 C 
BRANCH  20  21
ATOM     21  C   UNL     1       1.241  -7.706  -5.329  0.00  0.00    -0.037 A 
ATOM     22  C   UNL     1       1.811  -8.871  -4.851  0.00  0.00    +0.006 A 
ATOM     23  C   UNL     1       1.219 -10.091  -5.120  0.00  0.00    +0.029 A 
ATOM     24  C   UNL     1       0.057 -10.145  -5.867  0.00  0.00    +0.105 A 
ATOM     25  C   UNL     1      -0.513  -8.980  -6.344  0.00  0.00    +0.029 A 
ATOM     26  C   UNL     1       0.076  -7.760  -6.071  0.00  0.00    +0.006 A 
BRANCH  24  27
ATOM     27  S   UNL     1      -0.698 -11.700  -6.211  0.00  0.00    +0.061 S 
ATOM     28  O   UNL     1      -1.474 -11.523  -7.388  0.00  0.00    -0.153 OA
ATOM     29  O   UNL     1       0.328 -12.679  -6.115  0.00  0.00    -0.153 OA
BRANCH  27  30
ATOM     30  N   UNL     1      -1.764 -12.009  -4.982  0.00  0.00    -0.177 NA
ATOM     31  C   UNL     1      -1.330 -12.731  -3.778  0.00  0.00    +0.109 C 
ATOM     32  C   UNL     1      -1.692 -11.896  -2.546  0.00  0.00    +0.017 C 
ATOM     33  C   UNL     1      -3.187 -11.569  -2.578  0.00  0.00    +0.003 C 
ATOM     34  C   UNL     1      -3.504 -10.746  -3.829  0.00  0.00    +0.017 C 
ATOM     35  C   UNL     1      -3.161 -11.562  -5.073  0.00  0.00    +0.109 C 
ENDBRANCH  27  30
ENDBRANCH  24  27
ENDBRANCH  20  21
ENDBRANCH   1  20
TORSDOF 8
