REMARK  Name = ZINC61629916
REMARK  3 active torsions:
REMARK  status: ('A' for Active; 'I' for Inactive)
REMARK    1  A    between atoms: C_7  and  N_14
REMARK    2  A    between atoms: C_9  and  C_11
REMARK    3  A    between atoms: N_14  and  N_15
REMARK                            x       y       z     vdW  Elec       q    Type
REMARK                         _______ _______ _______ _____ _____    ______ ____
ROOT
ATOM      1  C   UNL     1      -0.017   1.397   0.010  0.00  0.00    +0.027 A 
ATOM      2  C   UNL     1       1.159   2.088   0.002  0.00  0.00    +0.020 A 
ATOM      3  C   UNL     1       2.380   1.417  -0.013  0.00  0.00    +0.032 A 
ATOM      4  C   UNL     1       2.433   0.056  -0.021  0.00  0.00    +0.045 A 
ATOM      5  C   UNL     1       1.240  -0.689  -0.013  0.00  0.00    +0.087 A 
ATOM      6  C   UNL     1       0.002  -0.004   0.002  0.00  0.00    +0.025 A 
ATOM      7  C   UNL     1      -1.197  -0.757   0.009  0.00  0.00    +0.052 A 
ATOM      8  C   UNL     1      -1.094  -2.139   0.000  0.00  0.00    +0.053 A 
ATOM      9  C   UNL     1       0.159  -2.736  -0.015  0.00  0.00    +0.109 A 
ATOM     10  N   UNL     1       1.264  -2.027  -0.021  0.00  0.00    -0.245 NA
ATOM     11 BR   UNL     1       4.104  -0.829  -0.043  0.00  0.00    -0.048 Br
ATOM     12 BR   UNL     1       1.132   3.978   0.013  0.00  0.00    -0.050 Br
ENDROOT
BRANCH   9  13
ATOM     13  C   UNL     1       0.254  -4.240  -0.024  0.00  0.00    +0.390 C 
ATOM     14  F   UNL     1       1.430  -4.637   0.622  0.00  0.00    -0.202 F 
ATOM     15  F   UNL     1      -0.850  -4.781   0.642  0.00  0.00    -0.202 F 
ENDBRANCH   9  13
BRANCH   7  16
ATOM     16  N   UNL     1      -2.434  -0.132   0.025  0.00  0.00    -0.282 N 
ATOM     17  H   UNL     1      -2.488   0.837   0.031  0.00  0.00    +0.166 HD
BRANCH  16  18
ATOM     18  N   UNL     1      -3.578  -0.879   0.031  0.00  0.00    -0.256 NA
ATOM     19  H   UNL     1      -3.585  -1.522   0.808  0.00  0.00    +0.140 HD
ATOM     20  H   UNL     1      -4.396  -0.289   0.042  0.00  0.00    +0.140 HD
ENDBRANCH  16  18
ENDBRANCH   7  16
TORSDOF 3
