REMARK  Name = ZINC18284238
REMARK  4 active torsions:
REMARK  status: ('A' for Active; 'I' for Inactive)
REMARK    1  A    between atoms: C_4  and  C_7
REMARK    2  A    between atoms: C_7  and  C_9
REMARK    3  A    between atoms: C_18  and  C_21
REMARK    4  A    between atoms: C_25  and  O_27
REMARK                            x       y       z     vdW  Elec       q    Type
REMARK                         _______ _______ _______ _____ _____    ______ ____
ROOT
ATOM      1  C   UNL     1       3.832   2.709   0.115  0.00  0.00    +0.024 A 
ATOM      2  C   UNL     1       3.269   1.967  -0.930  0.00  0.00    +0.013 A 
ATOM      3  C   UNL     1       2.143   1.203  -0.711  0.00  0.00    +0.025 A 
ATOM      4  C   UNL     1       1.568   1.173   0.554  0.00  0.00    +0.049 A 
ATOM      5  C   UNL     1       2.145   1.879   1.604  0.00  0.00    +0.053 A 
ATOM      6  C   UNL     1       3.260   2.663   1.393  0.00  0.00    +0.036 A 
ATOM      7  N   UNL     1       1.592   1.705   2.868  0.00  0.00    -0.316 N 
ATOM      8  C   UNL     1       0.337   2.081   3.221  0.00  0.00    +0.017 C 
ATOM      9  C   UNL     1      -0.770   1.833   2.502  0.00  0.00    +0.036 C 
ATOM     10  C   UNL     1      -0.823   1.118   1.167  0.00  0.00    +0.136 C 
ATOM     11  N   UNL     1       0.409   0.453   0.802  0.00  0.00    -0.331 N 
ATOM     12  C   UNL     1      -2.037   2.249   2.976  0.00  0.00    +0.163 C 
ATOM     13  O   UNL     1      -3.019   2.028   2.295  0.00  0.00    -0.292 OA
ATOM     14  C   UNL     1      -2.212   2.953   4.288  0.00  0.00    +0.080 C 
ATOM     15  C   UNL     1      -1.076   2.530   5.227  0.00  0.00    +0.014 C 
ATOM     16  C   UNL     1       0.246   2.848   4.530  0.00  0.00    +0.051 C 
ATOM     17  H   UNL     1       2.144   1.285   3.547  0.00  0.00    +0.152 HD
ATOM     18  H   UNL     1       0.424  -0.514   0.725  0.00  0.00    +0.147 HD
ENDROOT
BRANCH  10  19
ATOM     19  C   UNL     1      -1.159   2.123   0.096  0.00  0.00    -0.019 A 
ATOM     20  C   UNL     1      -0.274   3.143  -0.197  0.00  0.00    +0.006 A 
ATOM     21  C   UNL     1      -0.577   4.063  -1.183  0.00  0.00    +0.004 A 
ATOM     22  C   UNL     1      -1.771   3.972  -1.872  0.00  0.00    +0.045 A 
ATOM     23  C   UNL     1      -2.664   2.952  -1.576  0.00  0.00    +0.117 A 
ATOM     24  C   UNL     1      -2.355   2.026  -0.590  0.00  0.00    +0.051 A 
BRANCH  23  25
ATOM     25  O   UNL     1      -3.840   2.860  -2.252  0.00  0.00    -0.507 OA
ATOM     26  H   UNL     1      -4.567   3.348  -1.843  0.00  0.00    +0.292 HD
ENDBRANCH  23  25
ENDBRANCH  10  19
BRANCH   1  27
ATOM     27  C   UNL     1       5.025   3.539  -0.130  0.00  0.00    +0.193 C 
ATOM     28  O   UNL     1       5.888   3.153  -0.894  0.00  0.00    -0.287 OA
BRANCH  27  32
ATOM     29  C   UNL     1       5.448   7.281   1.836  0.00  0.00    +0.000 A 
ATOM     30  C   UNL     1       6.497   6.771   1.091  0.00  0.00    +0.001 A 
ATOM     31  C   UNL     1       6.366   5.557   0.450  0.00  0.00    +0.012 A 
ATOM     32  C   UNL     1       5.172   4.841   0.554  0.00  0.00    +0.022 A 
ATOM     33  C   UNL     1       4.115   5.364   1.303  0.00  0.00    +0.012 A 
ATOM     34  C   UNL     1       4.261   6.576   1.944  0.00  0.00    +0.001 A 
ENDBRANCH  27  32
ENDBRANCH   1  27
TORSDOF 4
