REMARK  Name = ZINC00985045
REMARK  7 active torsions:
REMARK  status: ('A' for Active; 'I' for Inactive)
REMARK    1  A    between atoms: C_1  and  C_2
REMARK    2  A    between atoms: C_2  and  C_3
REMARK    3  A    between atoms: C_3  and  C_25
REMARK    4  A    between atoms: C_10  and  N_22
REMARK    5  A    between atoms: C_12  and  S_14
REMARK    6  A    between atoms: S_14  and  C_15
REMARK    7  A    between atoms: C_15  and  C_16
REMARK                            x       y       z     vdW  Elec       q    Type
REMARK                         _______ _______ _______ _____ _____    ______ ____
ROOT
ATOM      1  C   UNL     1       5.207  -2.206  -1.633  0.00  0.00    +0.071 C 
ATOM      2  C   UNL     1       3.926  -2.027  -0.813  0.00  0.00    +0.071 C 
ATOM      3  C   UNL     1       3.632  -0.532  -0.715  0.00  0.00    -0.020 A 
ATOM      4  C   UNL     1       4.611   0.358  -0.982  0.00  0.00    +0.021 A 
ATOM      5  S   UNL     1       3.865   1.948  -0.757  0.00  0.00    -0.071 S 
ATOM      6  C   UNL     1       2.235   1.415  -0.302  0.00  0.00    +0.115 A 
ATOM      7  C   UNL     1       2.326   0.008  -0.342  0.00  0.00    +0.051 A 
ATOM      8  C   UNL     1       1.131  -0.692  -0.012  0.00  0.00    +0.129 A 
ATOM      9  N   UNL     1       0.045  -0.006   0.301  0.00  0.00    -0.207 NA
ATOM     10  C   UNL     1       0.029   1.321   0.319  0.00  0.00    +0.191 A 
ATOM     11  N   UNL     1       1.112   2.026   0.021  0.00  0.00    -0.215 NA
ATOM     12  C   UNL     1       6.019   0.035  -1.380  0.00  0.00    +0.203 C 
ATOM     13  O   UNL     1       6.241  -1.361  -1.121  0.00  0.00    -0.368 OA
ATOM     14  C   UNL     1       4.931  -1.839  -3.092  0.00  0.00    +0.042 C 
ENDROOT
BRANCH   8  15
ATOM     15  N   UNL     1       1.107  -2.075  -0.019  0.00  0.00    -0.343 N 
ATOM     16  H   UNL     1       0.263  -2.545   0.060  0.00  0.00    +0.144 HD
ATOM     17  H   UNL     1       1.935  -2.574  -0.102  0.00  0.00    +0.144 HD
ENDBRANCH   8  15
BRANCH   1  19
ATOM     18  C   UNL     1       6.939  -3.848  -2.371  0.00  0.00    +0.007 C 
ATOM     19  C   UNL     1       5.659  -3.666  -1.553  0.00  0.00    +0.032 C 
ENDBRANCH   1  19
BRANCH  10  20
ATOM     20  S   UNL     1      -1.462   2.162   0.740  0.00  0.00    -0.081 S 
BRANCH  20  21
ATOM     21  C   UNL     1      -2.551   0.746   1.027  0.00  0.00    +0.112 C 
BRANCH  21  22
ATOM     22  C   UNL     1      -3.923   1.237   1.412  0.00  0.00    -0.037 A 
ATOM     23  C   UNL     1      -4.234   1.446   2.743  0.00  0.00    +0.004 A 
ATOM     24  C   UNL     1      -5.491   1.901   3.095  0.00  0.00    +0.000 A 
ATOM     25  C   UNL     1      -6.439   2.139   2.118  0.00  0.00    +0.000 A 
ATOM     26  C   UNL     1      -6.130   1.925   0.788  0.00  0.00    +0.000 A 
ATOM     27  C   UNL     1      -4.871   1.474   0.435  0.00  0.00    +0.004 A 
ENDBRANCH  21  22
ENDBRANCH  20  21
ENDBRANCH  10  20
TORSDOF 5
