REMARK  Name = ZINC40167070
REMARK  7 active torsions:
REMARK  status: ('A' for Active; 'I' for Inactive)
REMARK    1  A    between atoms: C_1  and  C_2
REMARK    2  A    between atoms: C_9  and  S_13
REMARK    3  A    between atoms: C_11  and  C_12
REMARK    4  A    between atoms: S_13  and  C_14
REMARK    5  A    between atoms: C_14  and  C_15
REMARK    6  A    between atoms: N_17  and  C_18
REMARK    7  A    between atoms: C_23  and  O_24
REMARK                            x       y       z     vdW  Elec       q    Type
REMARK                         _______ _______ _______ _____ _____    ______ ____
ROOT
ATOM      1  C   UNL     1       0.038   1.898   4.527  0.00  0.00    +0.171 C 
ENDROOT
BRANCH   1   2
ATOM      2  C   UNL     1       0.024   2.785   5.745  0.00  0.00    +0.228 C 
ATOM      3  O   UNL     1       0.038   2.294   6.854  0.00  0.00    -0.275 OA
ATOM      4  N   UNL     1      -0.002   4.125   5.602  0.00  0.00    -0.282 N 
ATOM      5  H   UNL     1       0.052   4.520   4.717  0.00  0.00    +0.155 HD
BRANCH   4   6
ATOM      6  C   UNL     1      -0.109   4.948   6.731  0.00  0.00    +0.077 A 
ATOM      7  C   UNL     1       0.497   4.577   7.922  0.00  0.00    +0.047 A 
ATOM      8  C   UNL     1       0.391   5.391   9.034  0.00  0.00    +0.043 A 
ATOM      9  C   UNL     1      -0.320   6.576   8.963  0.00  0.00    +0.023 A 
ATOM     10  C   UNL     1      -0.927   6.952   7.779  0.00  0.00    +0.049 A 
ATOM     11  C   UNL     1      -0.820   6.144   6.658  0.00  0.00    +0.138 A 
ATOM     12 CL   UNL     1       1.151   4.926  10.524  0.00  0.00    -0.083 Cl
BRANCH  11  13
ATOM     13  O   UNL     1      -1.411   6.516   5.492  0.00  0.00    -0.505 OA
ATOM     14  H   UNL     1      -2.320   6.199   5.393  0.00  0.00    +0.292 HD
ENDBRANCH  11  13
ENDBRANCH   4   6
ENDBRANCH   1   2
BRANCH   1  15
ATOM     15  S   UNL     1       0.073   0.160   5.046  0.00  0.00    -0.097 S 
BRANCH  15  24
ATOM     16  C   UNL     1       0.030   1.501   0.011  0.00  0.00    +0.046 C 
ATOM     17  C   UNL     1       0.059  -0.006   0.004  0.00  0.00    -0.024 A 
ATOM     18  C   UNL     1       0.074  -0.683  -1.178  0.00  0.00    +0.005 A 
ATOM     19  C   UNL     1       0.101  -2.075  -1.207  0.00  0.00    +0.001 A 
ATOM     20  C   UNL     1       0.114  -2.797  -0.052  0.00  0.00    +0.010 A 
ATOM     21  C   UNL     1       0.100  -2.132   1.183  0.00  0.00    +0.004 A 
ATOM     22  C   UNL     1       0.078  -0.717   1.215  0.00  0.00    +0.075 A 
ATOM     23  N   UNL     1       0.069  -0.076   2.390  0.00  0.00    -0.240 NA
ATOM     24  C   UNL     1       0.086  -0.737   3.529  0.00  0.00    +0.098 A 
ATOM     25  C   UNL     1       0.114  -2.140   3.563  0.00  0.00    +0.038 A 
ATOM     26  C   UNL     1       0.112  -2.847   2.399  0.00  0.00    -0.039 A 
ATOM     27  C   UNL     1       0.141  -4.353   2.410  0.00  0.00    +0.044 C 
ENDBRANCH  15  24
ENDBRANCH   1  15
TORSDOF 5
