REMARK  Name = ZINC57896941
REMARK  7 active torsions:
REMARK  status: ('A' for Active; 'I' for Inactive)
REMARK    1  A    between atoms: C_2  and  C_3
REMARK    2  A    between atoms: C_3  and  O_4
REMARK    3  A    between atoms: O_4  and  C_5
REMARK    4  A    between atoms: C_8  and  C_12
REMARK    5  A    between atoms: C_10  and  N_11
REMARK    6  A    between atoms: C_13  and  C_14
REMARK    7  A    between atoms: N_16  and  C_17
REMARK                            x       y       z     vdW  Elec       q    Type
REMARK                         _______ _______ _______ _____ _____    ______ ____
ROOT
ATOM      1  C   UNL     1       2.196  -2.967   0.681  0.00  0.00    +0.142 A 
ATOM      2  C   UNL     1       2.680  -3.114   1.974  0.00  0.00    +0.048 A 
ATOM      3  C   UNL     1       3.869  -3.773   2.198  0.00  0.00    +0.011 A 
ATOM      4  C   UNL     1       4.593  -4.296   1.120  0.00  0.00    -0.023 A 
ATOM      5  C   UNL     1       4.106  -4.148  -0.183  0.00  0.00    +0.034 A 
ATOM      6  C   UNL     1       2.909  -3.490  -0.399  0.00  0.00    +0.067 A 
ENDROOT
BRANCH   6   7
ATOM      7  N   UNL     1       2.415  -3.344  -1.700  0.00  0.00    -0.355 N 
ATOM      8  H   UNL     1       1.577  -2.879  -1.852  0.00  0.00    +0.142 HD
ATOM      9  H   UNL     1       2.910  -3.708  -2.451  0.00  0.00    +0.142 HD
ENDBRANCH   6   7
BRANCH   4  10
ATOM     10  C   UNL     1       5.862  -4.999   1.357  0.00  0.00    +0.013 C 
ATOM     11  C   UNL     1       6.922  -4.768   0.553  0.00  0.00    +0.068 C 
BRANCH  11  12
ATOM     12  C   UNL     1       6.893  -3.652  -0.393  0.00  0.00    +0.237 C 
ATOM     13  O   UNL     1       5.973  -2.856  -0.366  0.00  0.00    -0.271 OA
ATOM     14  N   UNL     1       7.885  -3.506  -1.293  0.00  0.00    -0.309 N 
ATOM     15  H   UNL     1       8.618  -4.141  -1.314  0.00  0.00    +0.149 HD
BRANCH  14  16
ATOM     16  C   UNL     1       7.856  -2.389  -2.240  0.00  0.00    +0.073 C 
ATOM     17  C   UNL     1       6.940  -2.761  -3.424  0.00  0.00    +0.022 C 
ATOM     18  C   UNL     1       6.503  -1.494  -4.107  0.00  0.00    +0.002 C 
ATOM     19  C   UNL     1       7.409  -1.123  -5.297  0.00  0.00    +0.000 C 
ATOM     20  C   UNL     1       8.905  -1.338  -4.998  0.00  0.00    +0.000 C 
ATOM     21  C   UNL     1       9.287  -0.883  -3.615  0.00  0.00    +0.002 C 
ATOM     22  C   UNL     1       9.217  -2.095  -2.663  0.00  0.00    +0.022 C 
ENDBRANCH  14  16
ENDBRANCH  11  12
ENDBRANCH   4  10
BRANCH   1  23
ATOM     23  O   UNL     1       1.023  -2.317   0.467  0.00  0.00    -0.486 OA
BRANCH  23  24
ATOM     24  C   UNL     1       0.345  -1.806   1.617  0.00  0.00    +0.256 C 
BRANCH  24  26
ATOM     25  C   UNL     1      -2.042  -1.342   1.840  0.00  0.00    +0.007 C 
ATOM     26  C   UNL     1      -0.927  -1.122   1.188  0.00  0.00    +0.006 C 
ENDBRANCH  24  26
ENDBRANCH  23  24
ENDBRANCH   1  23
TORSDOF 7
