REMARK  Name = ZINC34897230
REMARK  8 active torsions:
REMARK  status: ('A' for Active; 'I' for Inactive)
REMARK    1  A    between atoms: C_1  and  N_2
REMARK    2  A    between atoms: C_5  and  N_8
REMARK    3  A    between atoms: N_8  and  C_9
REMARK    4  A    between atoms: N_8  and  C_19
REMARK    5  A    between atoms: C_9  and  C_10
REMARK    6  A    between atoms: C_19  and  N_21
REMARK    7  A    between atoms: N_21  and  C_22
REMARK    8  A    between atoms: C_25  and  C_29
REMARK                            x       y       z     vdW  Elec       q    Type
REMARK                         _______ _______ _______ _____ _____    ______ ____
ROOT
ATOM      1  N   UNL     1       1.262  -3.984  -0.009  0.00  0.00    -0.305 N 
ENDROOT
BRANCH   1   6
ATOM      2  C   UNL     1       3.470   1.191  -0.417  0.00  0.00    -0.096 C 
ATOM      3  N   UNL     1       3.188  -0.246  -0.301  0.00  0.00    +0.378 N 
ATOM      4  C   UNL     1       2.408  -0.493   0.918  0.00  0.00    -0.077 C 
ATOM      5  C   UNL     1       2.181  -1.997   1.086  0.00  0.00    +0.004 C 
ATOM      6  C   UNL     1       1.416  -2.532  -0.128  0.00  0.00    +0.072 C 
ATOM      7  C   UNL     1       2.204  -2.203  -1.400  0.00  0.00    +0.004 C 
ATOM      8  C   UNL     1       2.430  -0.691  -1.476  0.00  0.00    -0.077 C 
ATOM      9  H   UNL     1       4.058  -0.756  -0.250  0.00  0.00    -0.082 HD
ENDBRANCH   1   6
BRANCH   1  10
ATOM     10  C   UNL     1       0.037  -4.519   0.162  0.00  0.00    +0.138 C 
ATOM     11  S   UNL     1      -0.135  -6.206   0.397  0.00  0.00    -0.018 S 
BRANCH  10  12
ATOM     12  N   UNL     1      -1.053  -3.726   0.148  0.00  0.00    -0.296 N 
ATOM     13  H   UNL     1      -1.469  -3.460   0.983  0.00  0.00    +0.154 HD
BRANCH  12  14
ATOM     14  C   UNL     1      -1.584  -3.288  -1.070  0.00  0.00    +0.051 A 
ATOM     15  C   UNL     1      -1.061  -3.759  -2.267  0.00  0.00    +0.025 A 
ATOM     16  C   UNL     1      -1.588  -3.325  -3.467  0.00  0.00    +0.014 A 
ATOM     17  C   UNL     1      -2.635  -2.421  -3.479  0.00  0.00    +0.056 A 
ATOM     18  C   UNL     1      -3.158  -1.949  -2.290  0.00  0.00    +0.034 A 
ATOM     19  C   UNL     1      -2.640  -2.384  -1.084  0.00  0.00    +0.063 A 
ATOM     20 CL   UNL     1      -3.302  -1.797   0.409  0.00  0.00    -0.082 Cl
BRANCH  17  21
ATOM     21  C   UNL     1      -3.206  -1.949  -4.791  0.00  0.00    +0.417 C 
ATOM     22  F   UNL     1      -4.245  -2.801  -5.181  0.00  0.00    -0.166 F 
ATOM     23  F   UNL     1      -3.700  -0.649  -4.644  0.00  0.00    -0.166 F 
ATOM     24  F   UNL     1      -2.204  -1.960  -5.767  0.00  0.00    -0.166 F 
ENDBRANCH  17  21
ENDBRANCH  12  14
ENDBRANCH  10  12
ENDBRANCH   1  10
BRANCH   1  25
ATOM     25  C   UNL     1       2.439  -4.854  -0.077  0.00  0.00    +0.142 C 
BRANCH  25  26
ATOM     26  C   UNL     1       2.959  -5.104   1.315  0.00  0.00    -0.026 A 
ATOM     27  C   UNL     1       4.002  -4.344   1.809  0.00  0.00    +0.009 A 
ATOM     28  C   UNL     1       4.482  -4.569   3.085  0.00  0.00    +0.050 A 
ATOM     29  C   UNL     1       3.918  -5.560   3.873  0.00  0.00    +0.166 A 
ATOM     30  C   UNL     1       2.867  -6.326   3.376  0.00  0.00    +0.167 A 
ATOM     31  C   UNL     1       2.387  -6.090   2.098  0.00  0.00    +0.054 A 
ATOM     32  O   UNL     1       2.491  -7.224   4.332  0.00  0.00    -0.453 OA
ATOM     33  C   UNL     1       3.587  -7.274   5.265  0.00  0.00    +0.466 C 
ATOM     34  O   UNL     1       4.201  -5.978   5.142  0.00  0.00    -0.453 OA
ENDBRANCH  25  26
ENDBRANCH   1  25
TORSDOF 7
