REMARK  Name = ZINC23543345
REMARK  9 active torsions:
REMARK  status: ('A' for Active; 'I' for Inactive)
REMARK    1  A    between atoms: C_1  and  C_2
REMARK    2  A    between atoms: C_7  and  N_8
REMARK    3  A    between atoms: C_9  and  C_31
REMARK    4  A    between atoms: C_12  and  S_13
REMARK    5  A    between atoms: S_13  and  C_14
REMARK    6  A    between atoms: C_14  and  C_16
REMARK    7  A    between atoms: C_14  and  C_17
REMARK    8  A    between atoms: C_17  and  C_19
REMARK    9  A    between atoms: C_19  and  C_29
REMARK                            x       y       z     vdW  Elec       q    Type
REMARK                         _______ _______ _______ _____ _____    ______ ____
ROOT
ATOM      1  N   UNL     1      -2.513  -0.288   0.316  0.00  0.00    -0.270 N 
ATOM      2  C   UNL     1      -1.260  -0.773   0.009  0.00  0.00    +0.171 A 
ATOM      3  N   UNL     1      -1.399  -2.048  -0.269  0.00  0.00    -0.128 NA
ATOM      4  N   UNL     1      -2.634  -2.389  -0.166  0.00  0.00    -0.122 NA
ATOM      5  C   UNL     1      -3.362  -1.353   0.186  0.00  0.00    +0.197 A 
ENDROOT
BRANCH   1  12
ATOM      6  C   UNL     1      -2.480   0.391   3.079  0.00  0.00    +0.046 C 
ATOM      7  C   UNL     1      -2.845   1.396   2.018  0.00  0.00    -0.026 A 
ATOM      8  C   UNL     1      -3.172   2.690   2.374  0.00  0.00    +0.005 A 
ATOM      9  C   UNL     1      -3.511   3.611   1.401  0.00  0.00    +0.000 A 
ATOM     10  C   UNL     1      -3.521   3.242   0.068  0.00  0.00    +0.002 A 
ATOM     11  C   UNL     1      -3.190   1.951  -0.295  0.00  0.00    +0.026 A 
ATOM     12  C   UNL     1      -2.848   1.024   0.680  0.00  0.00    +0.053 A 
ENDBRANCH   1  12
BRANCH   2  13
ATOM     13  C   UNL     1       0.002  -0.004   0.002  0.00  0.00    +0.038 A 
ATOM     14  C   UNL     1       1.237  -0.663  -0.013  0.00  0.00    +0.014 A 
ATOM     15  C   UNL     1       2.389   0.102  -0.020  0.00  0.00    +0.020 A 
ATOM     16  C   UNL     1       2.285   1.482  -0.012  0.00  0.00    +0.111 A 
ATOM     17  N   UNL     1       1.108   2.076   0.003  0.00  0.00    -0.263 NA
ATOM     18  C   UNL     1      -0.017   1.391   0.010  0.00  0.00    +0.122 A 
ENDBRANCH   2  13
BRANCH   5  19
ATOM     19  S   UNL     1      -5.104  -1.340   0.449  0.00  0.00    -0.075 S 
BRANCH  19  20
ATOM     20  C   UNL     1      -5.487  -3.074   0.099  0.00  0.00    +0.123 C 
ATOM     21  C   UNL     1      -5.194  -3.375  -1.372  0.00  0.00    +0.028 C 
BRANCH  20  22
ATOM     22  C   UNL     1      -6.944  -3.333   0.384  0.00  0.00    +0.189 C 
ATOM     23  O   UNL     1      -7.745  -2.420   0.338  0.00  0.00    -0.290 OA
BRANCH  22  24
ATOM     24  C   UNL     1      -7.377  -4.631   0.703  0.00  0.00    +0.123 C 
ATOM     25  C   UNL     1      -8.738  -4.873   0.969  0.00  0.00    +0.091 C 
ATOM     26  N   UNL     1      -9.767  -3.986   0.971  0.00  0.00    -0.307 N 
ATOM     27  C   UNL     1     -11.050  -4.413   1.253  0.00  0.00    +0.046 A 
ATOM     28  C   UNL     1     -12.231  -3.654   1.298  0.00  0.00    +0.024 A 
ATOM     29  C   UNL     1     -13.434  -4.244   1.606  0.00  0.00    +0.002 A 
ATOM     30  C   UNL     1     -13.521  -5.599   1.879  0.00  0.00    +0.001 A 
ATOM     31  C   UNL     1     -12.373  -6.370   1.843  0.00  0.00    +0.017 A 
ATOM     32  C   UNL     1     -11.169  -5.782   1.535  0.00  0.00    +0.035 A 
ATOM     33  S   UNL     1      -9.503  -6.375   1.380  0.00  0.00    -0.071 S 
ATOM     34  H   UNL     1      -9.580  -2.926   0.747  0.00  0.00    +0.153 HD
BRANCH  24  35
ATOM     35  C   UNL     1      -6.435  -5.707   0.756  0.00  0.00    +0.105 C 
ATOM     36  N   UNL     1      -5.687  -6.561   0.799  0.00  0.00    -0.191 NA
ENDBRANCH  24  35
ENDBRANCH  22  24
ENDBRANCH  20  22
ENDBRANCH  19  20
ENDBRANCH   5  19
TORSDOF 7
