REMARK  Name = ZINC39856851
REMARK  6 active torsions:
REMARK  status: ('A' for Active; 'I' for Inactive)
REMARK    1  A    between atoms: C_5  and  C_7
REMARK    2  A    between atoms: C_10  and  C_12
REMARK    3  A    between atoms: N_13  and  N_14
REMARK    4  A    between atoms: C_19  and  C_22
REMARK    5  A    between atoms: C_22  and  C_23
REMARK    6  A    between atoms: N_25  and  C_26
REMARK                            x       y       z     vdW  Elec       q    Type
REMARK                         _______ _______ _______ _____ _____    ______ ____
ROOT
ATOM      1  N   UNL     1       3.671  -6.161  -2.882  0.00  0.00    -0.127 NA
ATOM      2  C   UNL     1       4.504  -5.955  -3.881  0.00  0.00    +0.183 C 
ATOM      3  N   UNL     1       5.159  -6.894  -4.649  0.00  0.00    -0.263 N 
ATOM      4  C   UNL     1       5.977  -6.560  -5.633  0.00  0.00    +0.233 C 
ATOM      5  O   UNL     1       6.549  -7.391  -6.306  0.00  0.00    -0.274 OA
ATOM      6  C   UNL     1       6.154  -5.068  -5.868  0.00  0.00    +0.149 C 
ATOM      7  S   UNL     1       5.045  -4.395  -4.563  0.00  0.00    -0.075 S 
ATOM      8  H   UNL     1       5.015  -7.834  -4.462  0.00  0.00    +0.157 HD
ENDROOT
BRANCH   1  10
ATOM      9  C   UNL     1       2.309  -5.362  -1.276  0.00  0.00    +0.181 C 
ATOM     10  N   UNL     1       3.138  -5.158  -2.270  0.00  0.00    -0.152 NA
BRANCH   9  14
ATOM     11  C   UNL     1       1.212  -2.197  -0.040  0.00  0.00    +0.137 A 
ATOM     12  C   UNL     1       0.519  -3.015   0.803  0.00  0.00    +0.050 A 
ATOM     13  C   UNL     1       0.839  -4.333   0.453  0.00  0.00    +0.051 A 
ATOM     14  C   UNL     1       1.723  -4.261  -0.604  0.00  0.00    +0.148 A 
ATOM     15  O   UNL     1       1.929  -2.958  -0.889  0.00  0.00    -0.454 OA
BRANCH  11  20
ATOM     16  C   UNL     1      -0.077   1.329  -0.009  0.00  0.00    +0.001 A 
ATOM     17  C   UNL     1       1.105   2.048  -0.011  0.00  0.00    +0.001 A 
ATOM     18  C   UNL     1       2.323   1.391  -0.021  0.00  0.00    +0.021 A 
ATOM     19  C   UNL     1       2.365   0.011  -0.031  0.00  0.00    +0.052 A 
ATOM     20  C   UNL     1       1.175  -0.722  -0.030  0.00  0.00    +0.036 A 
ATOM     21  C   UNL     1      -0.051  -0.050  -0.018  0.00  0.00    +0.013 A 
ATOM     22 CL   UNL     1       3.894  -0.812  -0.045  0.00  0.00    -0.083 Cl
ENDBRANCH  11  20
ENDBRANCH   9  14
ENDBRANCH   1  10
BRANCH   6  23
ATOM     23  C   UNL     1       5.671  -4.665  -7.263  0.00  0.00    +0.120 C 
BRANCH  23  24
ATOM     24  C   UNL     1       5.977  -3.209  -7.500  0.00  0.00    +0.219 C 
ATOM     25  O   UNL     1       6.527  -2.557  -6.637  0.00  0.00    -0.275 OA
ATOM     26  N   UNL     1       5.638  -2.630  -8.669  0.00  0.00    -0.285 N 
ATOM     27  H   UNL     1       5.260  -3.166  -9.383  0.00  0.00    +0.155 HD
BRANCH  26  28
ATOM     28  C   UNL     1       5.834  -1.257  -8.853  0.00  0.00    +0.033 A 
ATOM     29  C   UNL     1       4.929  -0.520  -9.606  0.00  0.00    +0.025 A 
ATOM     30  C   UNL     1       5.125   0.835  -9.786  0.00  0.00    +0.022 A 
ATOM     31  C   UNL     1       6.221   1.459  -9.216  0.00  0.00    +0.041 A 
ATOM     32  C   UNL     1       7.124   0.727  -8.465  0.00  0.00    +0.022 A 
ATOM     33  C   UNL     1       6.930  -0.627  -8.277  0.00  0.00    +0.025 A 
ATOM     34 CL   UNL     1       6.464   3.163  -9.444  0.00  0.00    -0.084 Cl
ENDBRANCH  26  28
ENDBRANCH  23  24
ENDBRANCH   6  23
TORSDOF 6
