REMARK  Name = ZINC05679313
REMARK  10 active torsions:
REMARK  status: ('A' for Active; 'I' for Inactive)
REMARK    1  A    between atoms: C_1  and  C_2
REMARK    2  A    between atoms: C_5  and  O_26
REMARK    3  A    between atoms: C_6  and  C_8
REMARK    4  A    between atoms: C_8  and  O_10
REMARK    5  A    between atoms: O_10  and  C_11
REMARK    6  A    between atoms: C_11  and  C_13
REMARK    7  A    between atoms: C_11  and  C_14
REMARK    8  A    between atoms: N_16  and  C_17
REMARK    9  A    between atoms: C_22  and  O_23
REMARK   10  A    between atoms: O_23  and  C_24
REMARK                            x       y       z     vdW  Elec       q    Type
REMARK                         _______ _______ _______ _____ _____    ______ ____
ROOT
ATOM      1  C   UNL     1       1.185  -2.163  -0.236  0.00  0.00    +0.259 C 
ATOM      2  C   UNL     1       0.509  -2.574  -1.546  0.00  0.00    +0.062 C 
ENDROOT
BRANCH   1   3
ATOM      3  C   UNL     1       1.173  -0.661  -0.114  0.00  0.00    +0.258 C 
ATOM      4  O   UNL     1       2.217  -0.044  -0.121  0.00  0.00    -0.271 OA
ATOM      5  N   UNL     1       0.002  -0.004   0.002  0.00  0.00    -0.279 N 
ATOM      6  H   UNL     1      -0.827  -0.501   0.088  0.00  0.00    +0.155 HD
BRANCH   5   7
ATOM      7  C   UNL     1      -0.018   1.397  -0.002  0.00  0.00    +0.077 A 
ATOM      8  C   UNL     1       1.005   2.106  -0.615  0.00  0.00    +0.047 A 
ATOM      9  C   UNL     1       0.983   3.488  -0.617  0.00  0.00    +0.043 A 
ATOM     10  C   UNL     1      -0.059   4.167  -0.009  0.00  0.00    +0.024 A 
ATOM     11  C   UNL     1      -1.081   3.467   0.604  0.00  0.00    +0.049 A 
ATOM     12  C   UNL     1      -1.068   2.082   0.606  0.00  0.00    +0.141 A 
ATOM     13 CL   UNL     1       2.263   4.374  -1.385  0.00  0.00    -0.083 Cl
BRANCH  12  14
ATOM     14  O   UNL     1      -2.076   1.392   1.204  0.00  0.00    -0.493 OA
ATOM     15  C   UNL     1      -3.120   2.160   1.806  0.00  0.00    +0.277 C 
ENDBRANCH  12  14
ENDBRANCH   5   7
ENDBRANCH   1   3
BRANCH   1  16
ATOM     16  O   UNL     1       2.557  -2.639  -0.229  0.00  0.00    -0.449 OA
BRANCH  16  17
ATOM     17  C   UNL     1       2.776  -3.867   0.281  0.00  0.00    +0.343 C 
ATOM     18  O   UNL     1       1.846  -4.522   0.708  0.00  0.00    -0.245 OA
BRANCH  17  24
ATOM     19  C   UNL     1       7.647  -3.373  -0.659  0.00  0.00    +0.044 C 
ATOM     20  C   UNL     1       6.492  -4.182  -0.129  0.00  0.00    -0.049 A 
ATOM     21  C   UNL     1       6.718  -5.445   0.396  0.00  0.00    +0.007 A 
ATOM     22  C   UNL     1       5.668  -6.197   0.883  0.00  0.00    +0.046 A 
ATOM     23  C   UNL     1       4.377  -5.691   0.851  0.00  0.00    +0.131 A 
ATOM     24  C   UNL     1       4.144  -4.415   0.321  0.00  0.00    +0.101 A 
ATOM     25  C   UNL     1       5.215  -3.667  -0.174  0.00  0.00    +0.022 A 
BRANCH  23  26
ATOM     26  O   UNL     1       3.344  -6.429   1.329  0.00  0.00    -0.506 OA
ATOM     27  H   UNL     1       2.927  -6.997   0.667  0.00  0.00    +0.292 HD
ENDBRANCH  23  26
ENDBRANCH  17  24
ENDBRANCH  16  17
ENDBRANCH   1  16
TORSDOF 7
