REMARK  Name = ZINC38676359
REMARK  14 active torsions:
REMARK  status: ('A' for Active; 'I' for Inactive)
REMARK    1  A    between atoms: C_1  and  C_2
REMARK    2  A    between atoms: C_2  and  O_3
REMARK    3  A    between atoms: O_3  and  C_4
REMARK    4  A    between atoms: C_4  and  C_6
REMARK    5  A    between atoms: C_8  and  N_20
REMARK    6  A    between atoms: C_11  and  O_18
REMARK    7  A    between atoms: C_12  and  O_16
REMARK    8  A    between atoms: O_16  and  C_17
REMARK    9  A    between atoms: O_18  and  C_19
REMARK   10  A    between atoms: C_21  and  C_23
REMARK   11  A    between atoms: C_23  and  N_24
REMARK   12  A    between atoms: N_27  and  C_30
REMARK   13  A    between atoms: C_32  and  C_37
REMARK   14  A    between atoms: C_35  and  C_36
REMARK                            x       y       z     vdW  Elec       q    Type
REMARK                         _______ _______ _______ _____ _____    ______ ____
ROOT
ATOM      1  C   UNL     1       3.433  -3.726  -2.640  0.00  0.00    +0.234 C 
ATOM      2  C   UNL     1       3.061  -2.310  -2.261  0.00  0.00    +0.053 C 
ATOM      3  C   UNL     1       1.681  -2.278  -2.230  0.00  0.00    +0.021 A 
ATOM      4  C   UNL     1       0.757  -1.241  -1.941  0.00  0.00    +0.061 A 
ATOM      5  C   UNL     1      -0.575  -1.495  -1.985  0.00  0.00    +0.162 A 
ATOM      6  C   UNL     1      -1.069  -2.772  -2.313  0.00  0.00    +0.163 A 
ATOM      7  C   UNL     1      -0.235  -3.809  -2.601  0.00  0.00    +0.075 A 
ATOM      8  C   UNL     1       1.167  -3.616  -2.574  0.00  0.00    +0.049 A 
ATOM      9  N   UNL     1       2.167  -4.447  -2.808  0.00  0.00    -0.367 N 
ATOM     10  H   UNL     1       2.078  -5.381  -3.053  0.00  0.00    +0.161 HD
ENDROOT
BRANCH   2  11
ATOM     11  N   UNL     1       3.914  -1.277  -2.002  0.00  0.00    -0.285 N 
ATOM     12  C   UNL     1       5.242  -1.498  -1.940  0.00  0.00    +0.231 C 
ATOM     13  O   UNL     1       5.688  -2.592  -2.217  0.00  0.00    -0.274 OA
ATOM     14  H   UNL     1       3.565  -0.382  -1.863  0.00  0.00    +0.155 HD
BRANCH  12  15
ATOM     15  C   UNL     1       6.173  -0.388  -1.528  0.00  0.00    +0.180 C 
BRANCH  15  16
ATOM     16  N   UNL     1       7.558  -0.880  -1.539  0.00  0.00    -0.291 NA
ATOM     17  C   UNL     1       7.758  -1.912  -0.514  0.00  0.00    +0.104 C 
ATOM     18  C   UNL     1       9.153  -2.525  -0.676  0.00  0.00    +0.120 C 
ATOM     19  N   UNL     1      10.144  -1.439  -0.667  0.00  0.00    -0.327 N 
ATOM     20  C   UNL     1       9.937  -0.299  -1.573  0.00  0.00    +0.120 C 
ATOM     21  C   UNL     1       8.511   0.226  -1.375  0.00  0.00    +0.104 C 
BRANCH  19  22
ATOM     22  C   UNL     1      11.254  -1.488   0.180  0.00  0.00    +0.033 A 
ATOM     23  C   UNL     1      12.437  -2.073  -0.254  0.00  0.00    +0.026 A 
ATOM     24  C   UNL     1      13.531  -2.120   0.586  0.00  0.00    -0.049 A 
ATOM     25  C   UNL     1      13.452  -1.586   1.859  0.00  0.00    +0.004 A 
ATOM     26  C   UNL     1      12.276  -1.003   2.295  0.00  0.00    +0.005 A 
ATOM     27  C   UNL     1      11.179  -0.948   1.458  0.00  0.00    -0.029 A 
ATOM     28  C   UNL     1       9.900  -0.306   1.931  0.00  0.00    +0.045 C 
ATOM     29  C   UNL     1      14.815  -2.755   0.115  0.00  0.00    +0.044 C 
ENDBRANCH  19  22
ENDBRANCH  15  16
ENDBRANCH  12  15
ENDBRANCH   2  11
BRANCH   1  30
ATOM     30  C   UNL     1       4.208  -3.731  -3.932  0.00  0.00    +0.336 C 
ATOM     31  O   UNL     1       3.635  -3.554  -4.981  0.00  0.00    -0.248 OA
BRANCH  30  32
ATOM     32  O   UNL     1       5.535  -3.932  -3.918  0.00  0.00    -0.463 OA
BRANCH  32  34
ATOM     33  C   UNL     1       7.701  -4.168  -4.964  0.00  0.00    +0.048 C 
ATOM     34  C   UNL     1       6.206  -3.924  -5.180  0.00  0.00    +0.229 C 
ENDBRANCH  32  34
ENDBRANCH  30  32
ENDBRANCH   1  30
BRANCH   6  35
ATOM     35  O   UNL     1      -2.410  -2.975  -2.343  0.00  0.00    -0.491 OA
ATOM     36  C   UNL     1      -2.860  -4.288  -2.682  0.00  0.00    +0.277 C 
ENDBRANCH   6  35
BRANCH   5  37
ATOM     37  O   UNL     1      -1.453  -0.494  -1.707  0.00  0.00    -0.491 OA
ATOM     38  C   UNL     1      -0.899   0.782  -1.380  0.00  0.00    +0.277 C 
ENDBRANCH   5  37
TORSDOF 9
