REMARK  Name = ZINC26897938
REMARK  11 active torsions:
REMARK  status: ('A' for Active; 'I' for Inactive)
REMARK    1  A    between atoms: C_4  and  C_7
REMARK    2  A    between atoms: C_7  and  N_8
REMARK    3  A    between atoms: N_8  and  C_9
REMARK    4  A    between atoms: C_9  and  C_10
REMARK    5  A    between atoms: C_10  and  C_12
REMARK    6  A    between atoms: C_10  and  O_33
REMARK    7  A    between atoms: C_12  and  O_13
REMARK    8  A    between atoms: O_13  and  C_14
REMARK    9  A    between atoms: C_14  and  C_15
REMARK   10  A    between atoms: C_14  and  C_21
REMARK   11  A    between atoms: C_14  and  C_27
REMARK                            x       y       z     vdW  Elec       q    Type
REMARK                         _______ _______ _______ _____ _____    ______ ____
ROOT
ATOM      1  C   UNL     1       1.280   2.024   0.001  0.00  0.00    +0.144 C 
ENDROOT
BRANCH   1   2
ATOM      2  C   UNL     1       1.730   1.179   1.165  0.00  0.00    -0.007 A 
ATOM      3  C   UNL     1       2.068  -0.147   0.967  0.00  0.00    +0.007 A 
ATOM      4  C   UNL     1       2.485  -0.920   2.034  0.00  0.00    +0.000 A 
ATOM      5  C   UNL     1       2.556  -0.370   3.300  0.00  0.00    +0.000 A 
ATOM      6  C   UNL     1       2.213   0.954   3.499  0.00  0.00    +0.000 A 
ATOM      7  C   UNL     1       1.800   1.729   2.431  0.00  0.00    +0.007 A 
ENDBRANCH   1   2
BRANCH   1   8
ATOM      8  C   UNL     1       1.713   1.374  -1.288  0.00  0.00    -0.007 A 
ATOM      9  C   UNL     1       2.991   0.863  -1.410  0.00  0.00    +0.007 A 
ATOM     10  C   UNL     1       3.387   0.263  -2.591  0.00  0.00    +0.000 A 
ATOM     11  C   UNL     1       2.506   0.182  -3.653  0.00  0.00    +0.000 A 
ATOM     12  C   UNL     1       1.230   0.698  -3.534  0.00  0.00    +0.000 A 
ATOM     13  C   UNL     1       0.833   1.294  -2.351  0.00  0.00    +0.007 A 
ENDBRANCH   1   8
BRANCH   1  14
ATOM     14  C   UNL     1       1.899   3.394   0.105  0.00  0.00    -0.007 A 
ATOM     15  C   UNL     1       3.130   3.551   0.714  0.00  0.00    +0.007 A 
ATOM     16  C   UNL     1       3.700   4.808   0.806  0.00  0.00    +0.000 A 
ATOM     17  C   UNL     1       3.034   5.907   0.297  0.00  0.00    +0.000 A 
ATOM     18  C   UNL     1       1.801   5.750  -0.307  0.00  0.00    +0.000 A 
ATOM     19  C   UNL     1       1.234   4.494  -0.403  0.00  0.00    +0.007 A 
ENDBRANCH   1  14
BRANCH   1  20
ATOM     20  O   UNL     1      -0.144   2.142   0.020  0.00  0.00    -0.357 OA
BRANCH  20  21
ATOM     21  C   UNL     1      -0.832   0.893  -0.074  0.00  0.00    +0.191 C 
BRANCH  21  22
ATOM     22  C   UNL     1      -2.342   1.139  -0.044  0.00  0.00    +0.123 C 
BRANCH  22  23
ATOM     23  O   UNL     1      -2.728   1.872  -1.208  0.00  0.00    -0.391 OA
ATOM     24  H   UNL     1      -2.301   2.868  -1.398  0.00  0.00    +0.210 HD
ENDBRANCH  22  23
BRANCH  22  25
ATOM     25  C   UNL     1      -3.076  -0.203  -0.019  0.00  0.00    -0.048 C 
BRANCH  25  26
ATOM     26  N   UNL     1      -4.526   0.033   0.010  0.00  0.00    +0.383 N 
ATOM     27  H   UNL     1      -4.808   0.605  -0.886  0.00  0.00    -0.085 HD
ATOM     28  H   UNL     1      -4.770   0.617   0.910  0.00  0.00    -0.085 HD
BRANCH  26  29
ATOM     29  C   UNL     1      -5.266  -1.236   0.035  0.00  0.00    -0.047 C 
BRANCH  29  33
ATOM     30  C   UNL     1      -9.461  -0.438   0.118  0.00  0.00    +0.000 A 
ATOM     31  C   UNL     1      -8.808  -0.575  -1.092  0.00  0.00    +0.000 A 
ATOM     32  C   UNL     1      -7.450  -0.833  -1.119  0.00  0.00    +0.002 A 
ATOM     33  C   UNL     1      -6.746  -0.954   0.064  0.00  0.00    -0.064 A 
ATOM     34  C   UNL     1      -7.401  -0.822   1.274  0.00  0.00    +0.002 A 
ATOM     35  C   UNL     1      -8.757  -0.559   1.301  0.00  0.00    +0.000 A 
ENDBRANCH  29  33
ENDBRANCH  26  29
ENDBRANCH  25  26
ENDBRANCH  22  25
ENDBRANCH  21  22
ENDBRANCH  20  21
ENDBRANCH   1  20
TORSDOF 11
