REMARK  Name = ZINC44364035
REMARK  10 active torsions:
REMARK  status: ('A' for Active; 'I' for Inactive)
REMARK    1  A    between atoms: C_1  and  C_2
REMARK    2  A    between atoms: C_2  and  O_3
REMARK    3  A    between atoms: O_3  and  C_4
REMARK    4  A    between atoms: C_4  and  C_6
REMARK    5  A    between atoms: C_6  and  C_8
REMARK    6  A    between atoms: C_6  and  N_26
REMARK    7  A    between atoms: C_8  and  C_9
REMARK    8  A    between atoms: C_12  and  S_14
REMARK    9  A    between atoms: S_14  and  C_15
REMARK   10  A    between atoms: C_20  and  C_25
REMARK                            x       y       z     vdW  Elec       q    Type
REMARK                         _______ _______ _______ _____ _____    ______ ____
ROOT
ATOM      1  C   UNL     1       1.333  -2.821   4.933  0.00  0.00    +0.109 A 
ATOM      2  C   UNL     1       2.009  -2.027   5.782  0.00  0.00    +0.046 A 
ATOM      3  C   UNL     1       2.559  -2.864   6.780  0.00  0.00    +0.057 A 
ATOM      4  C   UNL     1       2.183  -4.129   6.480  0.00  0.00    +0.169 A 
ATOM      5  O   UNL     1       1.436  -4.093   5.363  0.00  0.00    -0.453 OA
ENDROOT
BRANCH   1   6
ATOM      6  C   UNL     1       0.581  -2.363   3.711  0.00  0.00    +0.104 C 
BRANCH   6   7
ATOM      7  C   UNL     1       1.516  -2.381   2.500  0.00  0.00    +0.168 C 
BRANCH   7   8
ATOM      8  N   UNL     1       1.920  -3.764   2.213  0.00  0.00    -0.318 NA
ATOM      9  H   UNL     1       2.458  -4.149   2.975  0.00  0.00    +0.119 HD
ATOM     10  H   UNL     1       1.117  -4.340   2.010  0.00  0.00    +0.119 HD
ENDBRANCH   7   8
BRANCH   7  11
ATOM     11  C   UNL     1       0.801  -1.808   1.304  0.00  0.00    +0.325 C 
ATOM     12  O   UNL     1       0.324  -2.546   0.475  0.00  0.00    -0.249 OA
BRANCH  11  13
ATOM     13  O   UNL     1       0.693  -0.477   1.160  0.00  0.00    -0.464 OA
BRANCH  13  15
ATOM     14  C   UNL     1      -0.019   1.526   0.010  0.00  0.00    +0.048 C 
ATOM     15  C   UNL     1       0.002  -0.004   0.002  0.00  0.00    +0.229 C 
ENDBRANCH  13  15
ENDBRANCH  11  13
ENDBRANCH   7  11
ENDBRANCH   6   7
ENDBRANCH   1   6
BRANCH   4  16
ATOM     16  S   UNL     1       2.595  -5.574   7.399  0.00  0.00    -0.014 S 
BRANCH  16  17
ATOM     17  C   UNL     1       1.820  -6.882   6.508  0.00  0.00    +0.175 A 
ATOM     18  N   UNL     1       1.863  -8.203   6.856  0.00  0.00    -0.333 N 
ATOM     19  H   UNL     1       2.318  -8.581   7.625  0.00  0.00    +0.168 HD
ATOM     20  C   UNL     1       1.134  -8.901   5.907  0.00  0.00    +0.067 A 
ATOM     21  C   UNL     1       0.825 -10.241   5.728  0.00  0.00    +0.031 A 
ATOM     22  C   UNL     1       0.056 -10.629   4.650  0.00  0.00    -0.048 A 
ATOM     23  C   UNL     1      -0.411  -9.688   3.744  0.00  0.00    +0.005 A 
ATOM     24  C   UNL     1      -0.113  -8.354   3.907  0.00  0.00    +0.030 A 
ATOM     25  C   UNL     1       0.664  -7.944   4.993  0.00  0.00    +0.090 A 
ATOM     26  N   UNL     1       1.111  -6.733   5.416  0.00  0.00    -0.222 NA
ATOM     27  C   UNL     1      -0.280 -12.085   4.456  0.00  0.00    +0.044 C 
ENDBRANCH  16  17
ENDBRANCH   4  16
TORSDOF 8
