REMARK  Name = ZINC48194127
REMARK  2 active torsions:
REMARK  status: ('A' for Active; 'I' for Inactive)
REMARK    1  A    between atoms: C_3  and  N_12
REMARK    2  A    between atoms: C_19  and  C_21
REMARK                            x       y       z     vdW  Elec       q    Type
REMARK                         _______ _______ _______ _____ _____    ______ ____
ROOT
ATOM      1  N   UNL     1       3.604   2.007  -0.022  0.00  0.00    -0.266 N 
ATOM      2  C   UNL     1       3.651   3.351  -0.117  0.00  0.00    +0.307 C 
ATOM      3  O   UNL     1       2.622   3.998  -0.104  0.00  0.00    -0.252 OA
ATOM      4  N   UNL     1       4.840   3.977  -0.227  0.00  0.00    -0.278 N 
ATOM      5  C   UNL     1       6.158   3.319  -0.262  0.00  0.00    +0.110 C 
ATOM      6  C   UNL     1       7.083   4.322  -0.997  0.00  0.00    +0.021 C 
ATOM      7  C   UNL     1       6.553   5.680  -0.466  0.00  0.00    +0.029 C 
ATOM      8  C   UNL     1       5.035   5.430  -0.339  0.00  0.00    +0.108 C 
ATOM      9  H   UNL     1       4.427   1.496   0.033  0.00  0.00    +0.156 HD
ENDROOT
BRANCH   1  12
ATOM     10  C   UNL     1       0.064   1.245   0.608  0.00  0.00    +0.022 A 
ATOM     11  C   UNL     1       1.268   1.935   0.614  0.00  0.00    +0.028 A 
ATOM     12  C   UNL     1       2.368   1.349  -0.002  0.00  0.00    +0.079 A 
ATOM     13  C   UNL     1       2.222   0.097  -0.599  0.00  0.00    +0.175 A 
ATOM     14  N   UNL     1       1.055  -0.524  -0.580  0.00  0.00    -0.235 NA
ATOM     15  C   UNL     1      -0.005   0.008  -0.004  0.00  0.00    +0.113 A 
ATOM     16  N   UNL     1       3.319  -0.506  -1.223  0.00  0.00    -0.220 N 
ATOM     17  C   UNL     1       3.494  -1.839  -1.421  0.00  0.00    +0.116 A 
ATOM     18  C   UNL     1       4.678  -2.006  -2.056  0.00  0.00    +0.041 A 
ATOM     19  C   UNL     1       5.245  -0.742  -2.252  0.00  0.00    +0.135 A 
ATOM     20  N   UNL     1       4.431   0.156  -1.760  0.00  0.00    -0.173 NA
ENDBRANCH   1  12
BRANCH   8  21
ATOM     21  C   UNL     1       4.508   6.114   0.896  0.00  0.00    -0.020 A 
ATOM     22  C   UNL     1       3.841   7.321   0.799  0.00  0.00    +0.013 A 
ATOM     23  C   UNL     1       3.379   7.910   1.929  0.00  0.00    +0.045 A 
ATOM     24  S   UNL     1       3.887   6.748   3.185  0.00  0.00    -0.105 S 
ATOM     25  C   UNL     1       4.675   5.553   2.118  0.00  0.00    +0.050 A 
ENDBRANCH   8  21
TORSDOF 2
