REMARK  Name = ZINC21246476
REMARK  8 active torsions:
REMARK  status: ('A' for Active; 'I' for Inactive)
REMARK    1  A    between atoms: C_1  and  C_2
REMARK    2  A    between atoms: C_2  and  C_3
REMARK    3  A    between atoms: C_2  and  O_4
REMARK    4  A    between atoms: O_4  and  C_5
REMARK    5  A    between atoms: C_8  and  C_13
REMARK    6  A    between atoms: C_10  and  O_11
REMARK    7  A    between atoms: O_11  and  C_12
REMARK    8  A    between atoms: C_18  and  C_24
REMARK                            x       y       z     vdW  Elec       q    Type
REMARK                         _______ _______ _______ _____ _____    ______ ____
ROOT
ATOM      1  C   UNL     1      -2.079   5.800  -1.808  0.00  0.00    +0.032 C 
ATOM      2  C   UNL     1      -1.276   5.108  -0.705  0.00  0.00    +0.059 C 
ATOM      3  C   UNL     1      -0.972   3.689  -1.114  0.00  0.00    +0.018 C 
ATOM      4  C   UNL     1      -0.816   3.361  -2.414  0.00  0.00    +0.020 C 
ATOM      5  C   UNL     1      -0.505   1.934  -2.799  0.00  0.00    +0.063 C 
ATOM      6  C   UNL     1       0.385   1.301  -1.728  0.00  0.00    +0.109 C 
ATOM      7  C   UNL     1      -0.204   1.578  -0.368  0.00  0.00    +0.218 C 
ATOM      8  O   UNL     1      -0.093   0.757   0.517  0.00  0.00    -0.275 OA
ATOM      9  N   UNL     1      -0.855   2.732  -0.137  0.00  0.00    -0.289 N 
ATOM     10  C   UNL     1      -0.940   4.323  -3.430  0.00  0.00    +0.162 C 
ATOM     11  O   UNL     1      -0.781   3.994  -4.588  0.00  0.00    -0.292 OA
ATOM     12  C   UNL     1      -1.266   5.757  -3.106  0.00  0.00    +0.088 C 
ATOM     13  H   UNL     1      -1.297   2.902   0.855  0.00  0.00    +0.155 HD
ENDROOT
BRANCH   5  14
ATOM     14  C   UNL     1      -1.789   1.153  -2.912  0.00  0.00    -0.039 A 
ATOM     15  C   UNL     1      -2.619   1.025  -1.814  0.00  0.00    +0.005 A 
ATOM     16  C   UNL     1      -3.799   0.313  -1.919  0.00  0.00    +0.015 A 
ATOM     17  C   UNL     1      -4.143  -0.282  -3.120  0.00  0.00    +0.018 A 
ATOM     18  C   UNL     1      -3.310  -0.158  -4.216  0.00  0.00    +0.015 A 
ATOM     19  C   UNL     1      -2.133   0.559  -4.112  0.00  0.00    +0.005 A 
ATOM     20 BR   UNL     1      -5.754  -1.262  -3.262  0.00  0.00    -0.050 Br
ENDBRANCH   5  14
BRANCH   1  24
ATOM     21  C   UNL     1      -2.811   9.868  -0.711  0.00  0.00    +0.162 A 
ATOM     22  C   UNL     1      -1.511   9.401  -0.823  0.00  0.00    +0.050 A 
ATOM     23  C   UNL     1      -1.278   8.084  -1.172  0.00  0.00    +0.008 A 
ATOM     24  C   UNL     1      -2.339   7.234  -1.421  0.00  0.00    -0.040 A 
ATOM     25  C   UNL     1      -3.638   7.694  -1.311  0.00  0.00    +0.053 A 
ATOM     26  C   UNL     1      -3.879   9.011  -0.956  0.00  0.00    +0.162 A 
BRANCH  26  27
ATOM     27  O   UNL     1      -5.156   9.465  -0.848  0.00  0.00    -0.491 OA
ATOM     28  C   UNL     1      -6.202   8.529  -1.115  0.00  0.00    +0.277 C 
ENDBRANCH  26  27
BRANCH  21  29
ATOM     29  O   UNL     1      -3.042  11.162  -0.362  0.00  0.00    -0.486 OA
BRANCH  29  31
ATOM     30  C   UNL     1      -1.272  12.530  -1.276  0.00  0.00    +0.051 C 
ATOM     31  C   UNL     1      -1.904  11.952  -0.009  0.00  0.00    +0.167 C 
ATOM     32  C   UNL     1      -2.342  13.095   0.909  0.00  0.00    +0.051 C 
ENDBRANCH  29  31
ENDBRANCH  21  29
ENDBRANCH   1  24
TORSDOF 5
