REMARK  Name = ZINC54841077
REMARK  10 active torsions:
REMARK  status: ('A' for Active; 'I' for Inactive)
REMARK    1  A    between atoms: C_1  and  C_2
REMARK    2  A    between atoms: C_7  and  N_12
REMARK    3  A    between atoms: C_9  and  C_11
REMARK    4  A    between atoms: C_13  and  C_15
REMARK    5  A    between atoms: N_17  and  C_18
REMARK    6  A    between atoms: C_20  and  C_28
REMARK    7  A    between atoms: C_23  and  O_24
REMARK    8  A    between atoms: O_24  and  C_25
REMARK    9  A    between atoms: C_25  and  C_26
REMARK   10  A    between atoms: C_25  and  C_27
REMARK                            x       y       z     vdW  Elec       q    Type
REMARK                         _______ _______ _______ _____ _____    ______ ____
ROOT
ATOM      1  C   UNL     1      -2.289  -4.292   1.714  0.00  0.00    +0.303 C 
ATOM      2  O   UNL     1      -3.200  -3.613   1.284  0.00  0.00    -0.265 OA
ATOM      3  N   UNL     1      -2.540  -5.520   2.209  0.00  0.00    -0.275 N 
ATOM      4  H   UNL     1      -1.805  -6.096   2.474  0.00  0.00    +0.155 HD
ENDROOT
BRANCH   3   5
ATOM      5  C   UNL     1      -3.860  -5.965   2.341  0.00  0.00    +0.077 A 
ATOM      6  C   UNL     1      -4.890  -5.050   2.467  0.00  0.00    +0.046 A 
ATOM      7  C   UNL     1      -6.206  -5.499   2.598  0.00  0.00    +0.054 A 
ATOM      8  C   UNL     1      -6.477  -6.870   2.601  0.00  0.00    +0.022 A 
ATOM      9  C   UNL     1      -5.447  -7.777   2.474  0.00  0.00    +0.049 A 
ATOM     10  C   UNL     1      -4.139  -7.333   2.339  0.00  0.00    +0.142 A 
BRANCH   7  11
ATOM     11  C   UNL     1      -7.276  -4.557   2.730  0.00  0.00    +0.099 C 
ATOM     12  N   UNL     1      -8.125  -3.809   2.835  0.00  0.00    -0.191 NA
ENDBRANCH   7  11
BRANCH  10  13
ATOM     13  O   UNL     1      -3.128  -8.231   2.209  0.00  0.00    -0.488 OA
BRANCH  13  14
ATOM     14  C   UNL     1      -3.494  -9.608   2.096  0.00  0.00    +0.167 C 
ATOM     15  C   UNL     1      -2.512 -10.322   1.166  0.00  0.00    +0.051 C 
ATOM     16  C   UNL     1      -3.453 -10.261   3.479  0.00  0.00    +0.051 C 
ENDBRANCH  13  14
ENDBRANCH  10  13
ENDBRANCH   3   5
BRANCH   1  18
ATOM     17  N   UNL     1      -0.641  -2.538   1.197  0.00  0.00    -0.304 N 
ATOM     18  C   UNL     1      -0.892  -3.766   1.693  0.00  0.00    +0.300 C 
ATOM     19  O   UNL     1       0.018  -4.445   2.122  0.00  0.00    -0.265 OA
ATOM     20  H   UNL     1      -1.369  -1.996   0.855  0.00  0.00    +0.149 HD
BRANCH  17  26
ATOM     21  C   UNL     1      -0.082   1.535  -0.054  0.00  0.00    +0.008 C 
ATOM     22  C   UNL     1      -0.052   0.005  -0.057  0.00  0.00    -0.009 C 
ATOM     23  C   UNL     1       0.660  -0.489  -1.319  0.00  0.00    +0.003 C 
ATOM     24  C   UNL     1       0.691  -2.018  -1.321  0.00  0.00    +0.002 C 
ATOM     25  C   UNL     1       1.441  -2.516  -0.085  0.00  0.00    +0.022 C 
ATOM     26  C   UNL     1       0.730  -2.022   1.177  0.00  0.00    +0.076 C 
ATOM     27  C   UNL     1       0.699  -0.493   1.180  0.00  0.00    +0.009 C 
ATOM     28  C   UNL     1      -0.013   0.001   2.441  0.00  0.00    +0.009 C 
ENDBRANCH  17  26
ENDBRANCH   1  18
TORSDOF 6
