REMARK  Name = ZINC21320528
REMARK  8 active torsions:
REMARK  status: ('A' for Active; 'I' for Inactive)
REMARK    1  A    between atoms: C_1  and  N_2
REMARK    2  A    between atoms: N_2  and  C_3
REMARK    3  A    between atoms: N_2  and  C_4
REMARK    4  A    between atoms: C_7  and  C_10
REMARK    5  A    between atoms: C_10  and  O_12
REMARK    6  A    between atoms: O_12  and  C_13
REMARK    7  A    between atoms: C_13  and  C_14
REMARK    8  A    between atoms: C_27  and  C_29
REMARK                            x       y       z     vdW  Elec       q    Type
REMARK                         _______ _______ _______ _____ _____    ______ ____
ROOT
ATOM      1  C   UNL     1      -0.041  -1.960  -8.445  0.00  0.00    +0.258 C 
ATOM      2  O   UNL     1      -0.052  -0.759  -8.280  0.00  0.00    -0.271 OA
ATOM      3  N   UNL     1      -0.045  -2.469  -9.694  0.00  0.00    -0.255 N 
ATOM      4  C   UNL     1      -0.039  -3.855  -9.899  0.00  0.00    +0.058 A 
ATOM      5  C   UNL     1       1.099  -4.602  -9.645  0.00  0.00    +0.025 A 
ATOM      6  C   UNL     1       1.093  -5.965  -9.876  0.00  0.00    +0.002 A 
ATOM      7  C   UNL     1      -0.043  -6.585 -10.361  0.00  0.00    +0.002 A 
ATOM      8  C   UNL     1      -1.186  -5.848 -10.610  0.00  0.00    +0.025 A 
ATOM      9  C   UNL     1      -1.192  -4.484 -10.370  0.00  0.00    +0.055 A 
ATOM     10  N   UNL     1      -2.354  -3.727 -10.561  0.00  0.00    -0.284 N 
ATOM     11  C   UNL     1      -2.309  -2.565 -11.249  0.00  0.00    +0.219 C 
ATOM     12  O   UNL     1      -3.304  -1.877 -11.336  0.00  0.00    -0.275 OA
ATOM     13  C   UNL     1      -1.031  -2.118 -11.909  0.00  0.00    +0.128 C 
ATOM     14  C   UNL     1      -0.062  -1.583 -10.859  0.00  0.00    +0.194 C 
ATOM     15  H   UNL     1      -3.197  -4.038 -10.197  0.00  0.00    +0.155 HD
ENDROOT
BRANCH  14  16
ATOM     16  C   UNL     1       1.342  -1.508 -11.461  0.00  0.00    +0.409 C 
ATOM     17  F   UNL     1       1.750  -2.787 -11.853  0.00  0.00    -0.169 F 
ATOM     18  F   UNL     1       1.327  -0.661 -12.575  0.00  0.00    -0.169 F 
ATOM     19  F   UNL     1       2.233  -1.006 -10.507  0.00  0.00    -0.169 F 
ENDBRANCH  14  16
BRANCH   1  20
ATOM     20  C   UNL     1      -0.024  -2.885  -7.255  0.00  0.00    +0.328 C 
BRANCH  20  21
ATOM     21  O   UNL     1      -0.022  -2.113  -6.053  0.00  0.00    -0.452 OA
BRANCH  21  22
ATOM     22  C   UNL     1      -0.007  -2.793  -4.889  0.00  0.00    +0.340 C 
ATOM     23  O   UNL     1       0.005  -4.008  -4.896  0.00  0.00    -0.245 OA
BRANCH  22  27
ATOM     24  C   UNL     1       0.000  -0.693  -1.206  0.00  0.00    +0.029 A 
ATOM     25  C   UNL     1       0.013  -2.085  -1.211  0.00  0.00    +0.024 A 
ATOM     26  C   UNL     1       0.011  -2.767  -2.401  0.00  0.00    +0.017 A 
ATOM     27  C   UNL     1      -0.005  -2.063  -3.609  0.00  0.00    +0.059 A 
ATOM     28  C   UNL     1      -0.018  -0.664  -3.599  0.00  0.00    +0.017 A 
ATOM     29  C   UNL     1      -0.021   0.012  -2.407  0.00  0.00    +0.024 A 
BRANCH  24  31
ATOM     30  C   UNL     1      -0.018   1.461   0.010  0.00  0.00    +0.129 C 
ATOM     31  N   UNL     1       0.002  -0.004   0.002  0.00  0.00    -0.336 N 
ATOM     32  C   UNL     1       0.024  -0.743   1.267  0.00  0.00    +0.129 C 
ENDBRANCH  24  31
ENDBRANCH  22  27
ENDBRANCH  21  22
ENDBRANCH  20  21
ENDBRANCH   1  20
TORSDOF 6
