REMARK  Name = ZINC11866334
REMARK  6 active torsions:
REMARK  status: ('A' for Active; 'I' for Inactive)
REMARK    1  A    between atoms: C_5  and  C_7
REMARK    2  A    between atoms: C_7  and  O_8
REMARK    3  A    between atoms: O_8  and  C_9
REMARK    4  A    between atoms: C_12  and  C_16
REMARK    5  A    between atoms: C_13  and  O_15
REMARK    6  A    between atoms: C_17  and  C_23
REMARK                            x       y       z     vdW  Elec       q    Type
REMARK                         _______ _______ _______ _____ _____    ______ ____
ROOT
ATOM      1  C   UNL     1       0.076   0.311  -2.077  0.00  0.00    +0.124 A 
ATOM      2  C   UNL     1       1.304  -0.294  -2.323  0.00  0.00    +0.046 A 
ATOM      3  C   UNL     1       1.758  -0.439  -3.615  0.00  0.00    +0.017 A 
ATOM      4  C   UNL     1       0.990   0.032  -4.681  0.00  0.00    +0.043 A 
ATOM      5  C   UNL     1      -0.244   0.645  -4.432  0.00  0.00    +0.129 A 
ATOM      6  C   UNL     1      -0.694   0.781  -3.130  0.00  0.00    +0.091 A 
ENDROOT
BRANCH   4   7
ATOM      7  C   UNL     1       1.477  -0.118  -6.070  0.00  0.00    +0.087 A 
ATOM      8  C   UNL     1       2.778   0.295  -6.422  0.00  0.00    +0.026 A 
ATOM      9  C   UNL     1       3.188   0.126  -7.744  0.00  0.00    +0.125 A 
ATOM     10  N   UNL     1       2.346  -0.401  -8.617  0.00  0.00    -0.222 NA
ATOM     11  C   UNL     1       1.126  -0.774  -8.254  0.00  0.00    +0.213 A 
ATOM     12  N   UNL     1       0.693  -0.639  -7.010  0.00  0.00    -0.214 NA
ATOM     13  N   UNL     1       0.281  -1.320  -9.204  0.00  0.00    -0.327 N 
ATOM     14  H   UNL     1      -0.614  -1.597  -8.954  0.00  0.00    +0.145 HD
ATOM     15  H   UNL     1       0.584  -1.425 -10.119  0.00  0.00    +0.145 HD
BRANCH   8  16
ATOM     16  C   UNL     1       3.688   0.887  -5.413  0.00  0.00    -0.014 A 
ATOM     17  C   UNL     1       3.297   2.016  -4.695  0.00  0.00    +0.010 A 
ATOM     18  C   UNL     1       4.146   2.561  -3.754  0.00  0.00    +0.020 A 
ATOM     19  C   UNL     1       5.389   1.993  -3.528  0.00  0.00    +0.041 A 
ATOM     20  C   UNL     1       5.784   0.875  -4.242  0.00  0.00    +0.020 A 
ATOM     21  C   UNL     1       4.941   0.319  -5.182  0.00  0.00    +0.010 A 
ATOM     22 CL   UNL     1       6.455   2.687  -2.347  0.00  0.00    -0.084 Cl
ENDBRANCH   8  16
ENDBRANCH   4   7
BRANCH   5  23
ATOM     23  O   UNL     1      -0.997   1.105  -5.464  0.00  0.00    -0.506 OA
ATOM     24  H   UNL     1      -0.814   2.023  -5.706  0.00  0.00    +0.292 HD
ENDBRANCH   5  23
BRANCH   1  25
ATOM     25  O   UNL     1      -0.367   0.446  -0.800  0.00  0.00    -0.487 OA
BRANCH  25  26
ATOM     26  C   UNL     1       0.475  -0.060   0.237  0.00  0.00    +0.267 C 
BRANCH  26  31
ATOM     27  C   UNL     1      -2.005   1.020   2.870  0.00  0.00    +0.001 A 
ATOM     28  C   UNL     1      -1.373   0.613   4.030  0.00  0.00    +0.003 A 
ATOM     29  C   UNL     1      -0.143  -0.013   3.964  0.00  0.00    +0.039 A 
ATOM     30  C   UNL     1       0.457  -0.231   2.736  0.00  0.00    +0.130 A 
ATOM     31  C   UNL     1      -0.176   0.177   1.575  0.00  0.00    +0.025 A 
ATOM     32  C   UNL     1      -1.404   0.807   1.643  0.00  0.00    +0.010 A 
ATOM     33  F   UNL     1       1.660  -0.843   2.670  0.00  0.00    -0.205 F 
ENDBRANCH  26  31
ENDBRANCH  25  26
ENDBRANCH   1  25
TORSDOF 6
