REMARK  Name = ZINC39335251
REMARK  9 active torsions:
REMARK  status: ('A' for Active; 'I' for Inactive)
REMARK    1  A    between atoms: C_3  and  O_28
REMARK    2  A    between atoms: C_6  and  N_7
REMARK    3  A    between atoms: C_8  and  C_10
REMARK    4  A    between atoms: C_10  and  S_11
REMARK    5  A    between atoms: S_11  and  C_12
REMARK    6  A    between atoms: C_13  and  C_26
REMARK    7  A    between atoms: C_20  and  C_24
REMARK    8  A    between atoms: C_21  and  N_23
REMARK    9  A    between atoms: O_28  and  C_29
REMARK                            x       y       z     vdW  Elec       q    Type
REMARK                         _______ _______ _______ _____ _____    ______ ____
ROOT
ATOM      1  C   UNL     1      -3.724  -5.345  -0.450  0.00  0.00    +0.081 C 
ATOM      2  C   UNL     1      -3.830  -6.695  -0.558  0.00  0.00    +0.068 C 
ATOM      3  C   UNL     1      -5.167  -7.377  -0.646  0.00  0.00    +0.045 C 
ATOM      4  C   UNL     1      -5.111  -8.462  -1.726  0.00  0.00    +0.018 C 
ATOM      5  C   UNL     1      -6.470  -9.159  -1.817  0.00  0.00    +0.001 C 
ATOM      6  C   UNL     1      -6.804  -9.803  -0.470  0.00  0.00    +0.000 C 
ATOM      7  C   UNL     1      -6.853  -8.724   0.613  0.00  0.00    +0.001 C 
ATOM      8  C   UNL     1      -5.494  -8.028   0.702  0.00  0.00    +0.018 C 
ATOM      9  C   UNL     1      -6.245  -6.387  -0.994  0.00  0.00    +0.076 C 
ATOM     10  C   UNL     1      -6.051  -5.050  -0.871  0.00  0.00    +0.100 C 
ATOM     11  N   UNL     1      -4.848  -4.551  -0.422  0.00  0.00    -0.296 N 
ATOM     12  H   UNL     1      -4.792  -3.641  -0.090  0.00  0.00    +0.154 HD
ENDROOT
BRANCH  10  13
ATOM     13  N   UNL     1      -7.068  -4.184  -1.192  0.00  0.00    -0.346 N 
ATOM     14  H   UNL     1      -7.919  -4.530  -1.504  0.00  0.00    +0.143 HD
ATOM     15  H   UNL     1      -6.936  -3.227  -1.105  0.00  0.00    +0.143 HD
ENDBRANCH  10  13
BRANCH   9  16
ATOM     16  C   UNL     1      -7.507  -6.869  -1.468  0.00  0.00    +0.099 C 
ATOM     17  N   UNL     1      -8.509  -7.251  -1.843  0.00  0.00    -0.191 NA
ENDBRANCH   9  16
BRANCH   2  18
ATOM     18  C   UNL     1      -2.638  -7.488  -0.589  0.00  0.00    +0.098 C 
ATOM     19  N   UNL     1      -1.692  -8.118  -0.613  0.00  0.00    -0.191 NA
ENDBRANCH   2  18
BRANCH   1  20
ATOM     20  S   UNL     1      -2.130  -4.602  -0.337  0.00  0.00    -0.100 S 
BRANCH  20  21
ATOM     21  C   UNL     1      -2.482  -2.827  -0.204  0.00  0.00    +0.171 C 
BRANCH  21  23
ATOM     22  N   UNL     1      -1.202  -0.721   0.010  0.00  0.00    -0.285 N 
ATOM     23  C   UNL     1      -1.186  -2.065  -0.099  0.00  0.00    +0.227 C 
ATOM     24  O   UNL     1      -0.129  -2.660  -0.113  0.00  0.00    -0.275 OA
ATOM     25  H   UNL     1      -2.046  -0.252   0.098  0.00  0.00    +0.155 HD
BRANCH  22  31
ATOM     26  C   UNL     1       1.071  -0.455  -0.766  0.00  0.00    +0.027 A 
ATOM     27  C   UNL     1       2.256   0.254  -0.780  0.00  0.00    +0.048 A 
ATOM     28  C   UNL     1       2.379   1.415  -0.032  0.00  0.00    +0.130 A 
ATOM     29  C   UNL     1       1.311   1.866   0.730  0.00  0.00    +0.048 A 
ATOM     30  C   UNL     1       0.126   1.159   0.745  0.00  0.00    +0.027 A 
ATOM     31  C   UNL     1       0.002  -0.004  -0.004  0.00  0.00    +0.034 A 
BRANCH  28  32
ATOM     32  O   UNL     1       3.547   2.112  -0.045  0.00  0.00    -0.406 OA
BRANCH  32  33
ATOM     33  C   UNL     1       3.603   3.299   0.748  0.00  0.00    +0.575 C 
ATOM     34  F   UNL     1       3.375   2.974   2.090  0.00  0.00    -0.133 F 
ATOM     35  F   UNL     1       4.866   3.886   0.619  0.00  0.00    -0.133 F 
ATOM     36  F   UNL     1       2.624   4.198   0.313  0.00  0.00    -0.133 F 
ENDBRANCH  32  33
ENDBRANCH  28  32
ENDBRANCH  22  31
ENDBRANCH  21  23
ENDBRANCH  20  21
ENDBRANCH   1  20
TORSDOF 9
