REMARK  Name = ZINC36524904
REMARK  15 active torsions:
REMARK  status: ('A' for Active; 'I' for Inactive)
REMARK    1  A    between atoms: C_1  and  C_2
REMARK    2  A    between atoms: C_2  and  C_3
REMARK    3  A    between atoms: C_2  and  C_4
REMARK    4  A    between atoms: C_2  and  N_5
REMARK    5  A    between atoms: C_6  and  C_8
REMARK    6  A    between atoms: C_8  and  C_10
REMARK    7  A    between atoms: C_8  and  N_19
REMARK    8  A    between atoms: C_13  and  N_16
REMARK    9  A    between atoms: N_16  and  C_17
REMARK   10  A    between atoms: N_16  and  C_18
REMARK   11  A    between atoms: N_19  and  C_20
REMARK   12  A    between atoms: C_21  and  C_23
REMARK   13  A    between atoms: C_23  and  C_24
REMARK   14  A    between atoms: C_24  and  C_25
REMARK   15  A    between atoms: C_25  and  C_26
REMARK                            x       y       z     vdW  Elec       q    Type
REMARK                         _______ _______ _______ _____ _____    ______ ____
ROOT
ATOM      1  N   UNL     1       4.028  -0.086  -2.670  0.00  0.00    -0.289 N 
ATOM      2  C   UNL     1       4.985  -0.533  -1.655  0.00  0.00    +0.133 C 
ATOM      3  C   UNL     1       4.382   0.863  -3.559  0.00  0.00    +0.216 C 
ATOM      4  O   UNL     1       3.590   1.233  -4.399  0.00  0.00    -0.276 OA
ENDROOT
BRANCH   1   5
ATOM      5  C   UNL     1       2.685  -0.670  -2.718  0.00  0.00    +0.192 C 
BRANCH   5   6
ATOM      6  C   UNL     1       2.788  -2.142  -3.025  0.00  0.00    -0.018 A 
ATOM      7  C   UNL     1       2.096  -2.673  -4.098  0.00  0.00    +0.008 A 
ATOM      8  C   UNL     1       2.188  -4.021  -4.381  0.00  0.00    +0.023 A 
ATOM      9  C   UNL     1       2.977  -4.844  -3.587  0.00  0.00    +0.029 A 
ATOM     10  C   UNL     1       3.671  -4.307  -2.510  0.00  0.00    +0.023 A 
ATOM     11  C   UNL     1       3.579  -2.957  -2.236  0.00  0.00    +0.008 A 
BRANCH   9  12
ATOM     12  N   UNL     1       3.072  -6.208  -3.871  0.00  0.00    -0.336 N 
ATOM     13  C   UNL     1       2.339  -6.773  -5.007  0.00  0.00    +0.129 C 
ATOM     14  C   UNL     1       3.905  -7.075  -3.033  0.00  0.00    +0.129 C 
ENDBRANCH   9  12
ENDBRANCH   5   6
BRANCH   5  16
ATOM     15  N   UNL     1       0.754  -0.941  -1.196  0.00  0.00    -0.309 N 
ATOM     16  C   UNL     1       2.006  -0.480  -1.386  0.00  0.00    +0.238 C 
ATOM     17  O   UNL     1       2.587   0.087  -0.485  0.00  0.00    -0.273 OA
ATOM     18  H   UNL     1       0.289  -1.394  -1.917  0.00  0.00    +0.149 HD
BRANCH  15  20
ATOM     19  C   UNL     1      -0.010   0.738   0.410  0.00  0.00    +0.031 C 
ATOM     20  C   UNL     1       0.095  -0.757   0.099  0.00  0.00    +0.026 C 
ATOM     21  C   UNL     1       0.913  -1.449   1.191  0.00  0.00    +0.031 C 
ATOM     22  C   UNL     1      -1.308  -1.367   0.049  0.00  0.00    +0.031 C 
ENDBRANCH  15  20
ENDBRANCH   5  16
ENDBRANCH   1   5
BRANCH   3  23
ATOM     23  C   UNL     1       5.764   1.463  -3.509  0.00  0.00    +0.096 C 
BRANCH  23  24
ATOM     24  C   UNL     1       5.906   2.507  -4.619  0.00  0.00    +0.014 C 
BRANCH  24  25
ATOM     25  C   UNL     1       7.308   3.117  -4.568  0.00  0.00    +0.036 C 
BRANCH  25  26
ATOM     26  C   UNL     1       7.449   4.145  -5.661  0.00  0.00    -0.039 A 
ATOM     27  C   UNL     1       8.038   3.765  -6.962  0.00  0.00    +0.012 A 
ATOM     28  C   UNL     1       8.161   4.659  -7.914  0.00  0.00    -0.016 A 
ATOM     29  C   UNL     1       8.740   4.344  -9.232  0.00  0.00    +0.008 A 
ATOM     30  C   UNL     1       8.832   5.293 -10.139  0.00  0.00    +0.001 A 
ATOM     31  C   UNL     1       8.380   6.669  -9.900  0.00  0.00    +0.008 A 
ATOM     32  C   UNL     1       7.852   7.039  -8.757  0.00  0.00    -0.017 A 
ATOM     33  C   UNL     1       7.708   6.044  -7.679  0.00  0.00    -0.002 A 
ATOM     34  C   UNL     1       7.188   6.379  -6.531  0.00  0.00    -0.002 A 
ATOM     35  C   UNL     1       7.043   5.376  -5.459  0.00  0.00    -0.014 A 
ATOM     36  C   UNL     1       6.442   5.817  -4.188  0.00  0.00    +0.009 A 
ATOM     37  C   UNL     1       6.058   7.068  -4.056  0.00  0.00    +0.001 A 
ATOM     38  C   UNL     1       6.199   8.062  -5.128  0.00  0.00    +0.008 A 
ATOM     39  C   UNL     1       6.733   7.760  -6.289  0.00  0.00    -0.017 A 
ATOM     40  C   UNL     1       6.873   8.760  -7.361  0.00  0.00    +0.009 A 
ATOM     41  C   UNL     1       7.401   8.421  -8.522  0.00  0.00    +0.009 A 
ENDBRANCH  25  26
ENDBRANCH  24  25
ENDBRANCH  23  24
ENDBRANCH   3  23
TORSDOF 9
