REMARK  Name = ZINC37674554
REMARK  4 active torsions:
REMARK  status: ('A' for Active; 'I' for Inactive)
REMARK    1  A    between atoms: C_4  and  O_8
REMARK    2  A    between atoms: C_5  and  O_7
REMARK    3  A    between atoms: O_8  and  C_9
REMARK    4  A    between atoms: C_12  and  C_15
REMARK                            x       y       z     vdW  Elec       q    Type
REMARK                         _______ _______ _______ _____ _____    ______ ____
ROOT
ATOM      1  C   UNL     1       4.729   0.111  -0.149  0.00  0.00    +0.239 A 
ATOM      2  C   UNL     1       5.956  -0.530  -0.279  0.00  0.00    +0.103 A 
ATOM      3  C   UNL     1       7.106   0.233  -0.393  0.00  0.00    +0.039 A 
ATOM      4  C   UNL     1       6.987   1.616  -0.372  0.00  0.00    +0.074 A 
ATOM      5  C   UNL     1       5.736   2.185  -0.240  0.00  0.00    +0.127 A 
ATOM      6  N   UNL     1       4.657   1.432  -0.139  0.00  0.00    -0.219 NA
ATOM      7 CL   UNL     1       6.045  -2.264  -0.299  0.00  0.00    -0.078 Cl
ENDROOT
BRANCH   4   8
ATOM      8  C   UNL     1       8.211   2.487  -0.492  0.00  0.00    +0.419 C 
ATOM      9  F   UNL     1       8.455   2.765  -1.841  0.00  0.00    -0.166 F 
ATOM     10  F   UNL     1       8.001   3.684   0.200  0.00  0.00    -0.166 F 
ATOM     11  F   UNL     1       9.313   1.820   0.054  0.00  0.00    -0.166 F 
ENDBRANCH   4   8
BRANCH   1  12
ATOM     12  O   UNL     1       3.594  -0.624  -0.037  0.00  0.00    -0.433 OA
BRANCH  12  16
ATOM     13  C   UNL     1      -0.008   1.386   0.140  0.00  0.00    +0.004 A 
ATOM     14  C   UNL     1       0.637   1.016   1.306  0.00  0.00    +0.004 A 
ATOM     15  C   UNL     1       1.843   0.344   1.249  0.00  0.00    +0.050 A 
ATOM     16  C   UNL     1       2.408   0.037   0.021  0.00  0.00    +0.172 A 
ATOM     17  C   UNL     1       1.758   0.408  -1.152  0.00  0.00    +0.159 A 
ATOM     18  C   UNL     1       0.550   1.083  -1.088  0.00  0.00    +0.049 A 
BRANCH  17  19
ATOM     19  O   UNL     1       2.309   0.111  -2.360  0.00  0.00    -0.503 OA
ATOM     20  H   UNL     1       2.037  -0.747  -2.715  0.00  0.00    +0.292 HD
ENDBRANCH  17  19
ENDBRANCH  12  16
ENDBRANCH   1  12
TORSDOF 4
