REMARK  Name = ZINC16958644
REMARK  5 active torsions:
REMARK  status: ('A' for Active; 'I' for Inactive)
REMARK    1  A    between atoms: C_1  and  C_2
REMARK    2  A    between atoms: C_2  and  C_3
REMARK    3  A    between atoms: C_2  and  C_4
REMARK    4  A    between atoms: C_2  and  C_5
REMARK    5  A    between atoms: N_30  and  C_33
REMARK                            x       y       z     vdW  Elec       q    Type
REMARK                         _______ _______ _______ _____ _____    ______ ____
ROOT
ATOM      1  C   UNL     1      -7.890   1.521  -1.433  0.00  0.00    -0.005 C 
ATOM      2  C   UNL     1      -8.528   0.138  -1.530  0.00  0.00    +0.004 C 
ATOM      3  C   UNL     1      -8.119  -0.750  -0.340  0.00  0.00    +0.009 C 
ATOM      4  C   UNL     1      -6.617  -0.785  -0.296  0.00  0.00    +0.025 C 
ATOM      5  C   UNL     1      -5.898  -1.854   0.418  0.00  0.00    -0.015 A 
ATOM      6  C   UNL     1      -6.271  -3.009   1.189  0.00  0.00    +0.003 A 
ATOM      7  C   UNL     1      -7.510  -3.546   1.564  0.00  0.00    +0.010 A 
ATOM      8  C   UNL     1      -7.493  -4.691   2.318  0.00  0.00    +0.001 A 
ATOM      9  C   UNL     1      -6.312  -5.304   2.703  0.00  0.00    +0.002 A 
ATOM     10  C   UNL     1      -5.072  -4.799   2.350  0.00  0.00    +0.026 A 
ATOM     11  C   UNL     1      -5.058  -3.637   1.583  0.00  0.00    +0.047 A 
ATOM     12  N   UNL     1      -4.024  -2.893   1.078  0.00  0.00    -0.357 N 
ATOM     13  H   UNL     1      -3.083  -3.096   1.193  0.00  0.00    +0.166 HD
ATOM     14  C   UNL     1      -4.512  -1.842   0.399  0.00  0.00    +0.033 A 
ATOM     15  C   UNL     1      -3.915  -0.673  -0.335  0.00  0.00    +0.135 C 
ATOM     16  C   UNL     1      -4.624   0.549   0.348  0.00  0.00    +0.097 C 
ATOM     17  C   UNL     1      -6.053   0.624  -0.064  0.00  0.00    +0.010 C 
ATOM     18  C   UNL     1      -6.357   1.427  -1.329  0.00  0.00    +0.009 C 
ATOM     19  C   UNL     1      -3.652   1.636   0.029  0.00  0.00    +0.231 C 
ATOM     20  O   UNL     1      -3.900   2.804  -0.179  0.00  0.00    -0.274 OA
ATOM     21  N   UNL     1      -2.430   1.038   0.020  0.00  0.00    -0.210 N 
ATOM     22  C   UNL     1      -2.490  -0.319   0.007  0.00  0.00    +0.236 C 
ATOM     23  O   UNL     1      -1.582  -1.091   0.229  0.00  0.00    -0.274 OA
ENDROOT
BRANCH  21  24
ATOM     24  C   UNL     1      -1.224   1.754   0.017  0.00  0.00    +0.045 A 
ATOM     25  C   UNL     1      -0.013   1.076   0.008  0.00  0.00    +0.024 A 
ATOM     26  C   UNL     1       1.174   1.783   0.000  0.00  0.00    +0.003 A 
ATOM     27  C   UNL     1       1.156   3.166   0.007  0.00  0.00    +0.020 A 
ATOM     28  C   UNL     1      -0.049   3.845   0.022  0.00  0.00    +0.043 A 
ATOM     29  C   UNL     1      -1.240   3.142   0.030  0.00  0.00    +0.044 A 
ATOM     30 CL   UNL     1      -0.067   5.581   0.029  0.00  0.00    -0.083 Cl
ENDBRANCH  21  24
BRANCH   1  32
ATOM     31  C   UNL     1      -7.699   1.633  -3.922  0.00  0.00    +0.011 C 
ATOM     32  C   UNL     1      -8.258   2.329  -2.679  0.00  0.00    -0.035 C 
ATOM     33  C   UNL     1      -9.781   2.427  -2.791  0.00  0.00    +0.011 C 
ATOM     34  C   UNL     1      -7.663   3.734  -2.570  0.00  0.00    +0.011 C 
ENDBRANCH   1  32
TORSDOF 2
