REMARK  Name = ZINC22281223
REMARK  13 active torsions:
REMARK  status: ('A' for Active; 'I' for Inactive)
REMARK    1  A    between atoms: C_1  and  C_2
REMARK    2  A    between atoms: C_2  and  C_3
REMARK    3  A    between atoms: C_2  and  N_4
REMARK    4  A    between atoms: C_5  and  C_7
REMARK    5  A    between atoms: C_7  and  N_8
REMARK    6  A    between atoms: N_11  and  C_14
REMARK    7  A    between atoms: C_14  and  N_15
REMARK    8  A    between atoms: C_18  and  C_22
REMARK    9  A    between atoms: C_18  and  C_23
REMARK   10  A    between atoms: C_26  and  C_29
REMARK   11  A    between atoms: C_29  and  C_30
REMARK   12  A    between atoms: C_29  and  C_31
REMARK   13  A    between atoms: C_29  and  C_32
REMARK                            x       y       z     vdW  Elec       q    Type
REMARK                         _______ _______ _______ _____ _____    ______ ____
ROOT
ATOM      1  N   UNL     1      -0.929   0.314   3.158  0.00  0.00    -0.210 N 
ATOM      2  C   UNL     1      -0.026   1.077   2.512  0.00  0.00    +0.252 C 
ATOM      3  O   UNL     1       1.113   1.313   2.856  0.00  0.00    -0.272 OA
ATOM      4  C   UNL     1      -0.729   1.579   1.267  0.00  0.00    +0.135 C 
ATOM      5  N   UNL     1      -2.073   0.985   1.365  0.00  0.00    -0.281 N 
ATOM      6  C   UNL     1      -2.094   0.265   2.501  0.00  0.00    +0.311 C 
ATOM      7  O   UNL     1      -3.062  -0.361   2.887  0.00  0.00    -0.252 OA
ATOM      8  C   UNL     1      -0.013   1.086   0.008  0.00  0.00    +0.047 C 
ATOM      9  H   UNL     1      -2.820   1.181   0.581  0.00  0.00    +0.152 HD
ENDROOT
BRANCH   4  10
ATOM     10  C   UNL     1      -0.809   3.084   1.274  0.00  0.00    -0.015 A 
ATOM     11  C   UNL     1       0.193   3.827   1.871  0.00  0.00    +0.006 A 
ATOM     12  C   UNL     1       0.122   5.207   1.873  0.00  0.00    +0.004 A 
ATOM     13  C   UNL     1      -0.956   5.845   1.288  0.00  0.00    -0.042 A 
ATOM     14  C   UNL     1      -1.960   5.102   0.696  0.00  0.00    +0.004 A 
ATOM     15  C   UNL     1      -1.887   3.722   0.689  0.00  0.00    +0.006 A 
BRANCH  13  16
ATOM     16  C   UNL     1      -1.036   7.350   1.296  0.00  0.00    -0.013 C 
ATOM     17  C   UNL     1      -2.304   7.789   2.032  0.00  0.00    +0.015 C 
ATOM     18  C   UNL     1       0.191   7.922   2.007  0.00  0.00    +0.015 C 
ATOM     19  C   UNL     1      -1.078   7.866  -0.144  0.00  0.00    +0.015 C 
ENDBRANCH  13  16
ENDBRANCH   4  10
BRANCH   1  20
ATOM     20  C   UNL     1      -0.669  -0.378   4.423  0.00  0.00    +0.205 C 
BRANCH  20  24
ATOM     21  N   UNL     1      -0.707   1.629   8.140  0.00  0.00    +0.387 N 
ATOM     22  C   UNL     1      -1.786   0.670   7.864  0.00  0.00    -0.063 C 
ATOM     23  C   UNL     1      -1.348  -0.278   6.745  0.00  0.00    +0.067 C 
ATOM     24  N   UNL     1      -1.022   0.503   5.544  0.00  0.00    -0.290 NA
ATOM     25  C   UNL     1       0.057   1.462   5.820  0.00  0.00    +0.067 C 
ATOM     26  C   UNL     1      -0.381   2.410   6.939  0.00  0.00    -0.063 C 
ATOM     27  H   UNL     1       0.188   1.060   8.428  0.00  0.00    -0.081 HD
BRANCH  21  28
ATOM     28  C   UNL     1      -1.060   2.510   9.261  0.00  0.00    +0.019 C 
BRANCH  28  30
ATOM     29  N   UNL     1       0.062   4.188  10.691  0.00  0.00    -0.315 N 
ATOM     30  C   UNL     1       0.150   3.307   9.674  0.00  0.00    +0.197 C 
ATOM     31  O   UNL     1       1.203   3.157   9.091  0.00  0.00    -0.278 OA
ATOM     32  H   UNL     1      -0.893   4.325  11.219  0.00  0.00    +0.149 HD
BRANCH  29  34
ATOM     33  C   UNL     1       1.351   6.211  10.214  0.00  0.00    +0.027 C 
ATOM     34  C   UNL     1       1.239   4.963  11.092  0.00  0.00    +0.067 C 
ATOM     35  C   UNL     1       1.099   5.381  12.557  0.00  0.00    +0.027 C 
ENDBRANCH  29  34
ENDBRANCH  28  30
ENDBRANCH  21  28
ENDBRANCH  20  24
ENDBRANCH   1  20
TORSDOF 7
