REMARK  Name = ZINC58006003
REMARK  6 active torsions:
REMARK  status: ('A' for Active; 'I' for Inactive)
REMARK    1  A    between atoms: C_1  and  C_2
REMARK    2  A    between atoms: C_2  and  C_3
REMARK    3  A    between atoms: C_3  and  C_20
REMARK    4  A    between atoms: N_5  and  C_14
REMARK    5  A    between atoms: C_8  and  N_13
REMARK    6  A    between atoms: C_20  and  C_21
REMARK                            x       y       z     vdW  Elec       q    Type
REMARK                         _______ _______ _______ _____ _____    ______ ____
ROOT
ATOM      1  C   UNL     1       0.827  -0.394  -1.286  0.00  0.00    +0.126 C 
ATOM      2  C   UNL     1       0.694  -1.916  -1.431  0.00  0.00    +0.153 C 
ATOM      3  N   UNL     1       1.413  -2.311  -2.654  0.00  0.00    -0.320 N 
ATOM      4  C   UNL     1       2.655  -1.707  -2.905  0.00  0.00    +0.074 A 
ATOM      5  C   UNL     1       3.501  -2.235  -3.868  0.00  0.00    +0.049 A 
ATOM      6  C   UNL     1       4.727  -1.632  -4.115  0.00  0.00    +0.027 A 
ATOM      7  C   UNL     1       5.101  -0.503  -3.398  0.00  0.00    +0.026 A 
ATOM      8  C   UNL     1       4.257   0.022  -2.438  0.00  0.00    +0.049 A 
ATOM      9  C   UNL     1       3.032  -0.577  -2.185  0.00  0.00    +0.142 A 
ATOM     10  O   UNL     1       2.214  -0.055  -1.231  0.00  0.00    -0.482 OA
ENDROOT
BRANCH   3  11
ATOM     11  C   UNL     1       0.852  -3.300  -3.577  0.00  0.00    +0.070 C 
ATOM     12  C   UNL     1      -0.553  -2.864  -4.004  0.00  0.00    +0.003 C 
ATOM     13  C   UNL     1      -1.164  -3.940  -4.904  0.00  0.00    -0.081 C 
ATOM     14  N   UNL     1      -1.246  -5.208  -4.170  0.00  0.00    +0.379 N 
ATOM     15  C   UNL     1       0.102  -5.670  -3.820  0.00  0.00    -0.081 C 
ATOM     16  C   UNL     1       0.763  -4.660  -2.878  0.00  0.00    +0.003 C 
ATOM     17  H   UNL     1      -1.784  -5.074  -3.326  0.00  0.00    -0.086 HD
ATOM     18  H   UNL     1      -1.698  -5.901  -4.747  0.00  0.00    -0.086 HD
ENDBRANCH   3  11
BRANCH   6  19
ATOM     19  N   UNL     1       5.585  -2.162  -5.085  0.00  0.00    -0.358 N 
ATOM     20  H   UNL     1       5.323  -2.951  -5.585  0.00  0.00    +0.142 HD
ATOM     21  H   UNL     1       6.441  -1.740  -5.258  0.00  0.00    +0.142 HD
ENDBRANCH   6  19
BRANCH   1  23
ATOM     22  C   UNL     1       0.766  -0.656   1.198  0.00  0.00    +0.008 C 
ATOM     23  C   UNL     1       0.136   0.061   0.002  0.00  0.00    +0.046 C 
ENDBRANCH   1  23
BRANCH   1  24
ATOM     24  C   UNL     1       0.177   0.297  -2.487  0.00  0.00    +0.046 C 
ATOM     25  C   UNL     1       0.356   1.812  -2.362  0.00  0.00    +0.008 C 
ENDBRANCH   1  24
TORSDOF 4
