REMARK  Name = ZINC41085312
REMARK  11 active torsions:
REMARK  status: ('A' for Active; 'I' for Inactive)
REMARK    1  A    between atoms: C_1  and  C_2
REMARK    2  A    between atoms: C_4  and  C_16
REMARK    3  A    between atoms: C_5  and  C_15
REMARK    4  A    between atoms: N_6  and  C_7
REMARK    5  A    between atoms: C_10  and  O_13
REMARK    6  A    between atoms: O_13  and  C_14
REMARK    7  A    between atoms: C_26  and  S_28
REMARK    8  A    between atoms: S_28  and  C_31
REMARK    9  A    between atoms: C_31  and  C_32
REMARK   10  A    between atoms: C_32  and  C_33
REMARK   11  A    between atoms: C_32  and  C_34
REMARK                            x       y       z     vdW  Elec       q    Type
REMARK                         _______ _______ _______ _____ _____    ______ ____
ROOT
ATOM      1  C   UNL     1       0.042  -3.340  -1.427  0.00  0.00    +0.026 C 
ATOM      2  C   UNL     1      -0.070  -3.241  -2.799  0.00  0.00    +0.081 C 
ATOM      3  C   UNL     1      -0.178  -4.446  -3.666  0.00  0.00    +0.153 C 
ATOM      4  N   UNL     1      -0.777  -5.547  -3.293  0.00  0.00    -0.283 NA
ATOM      5  N   UNL     1       0.429  -4.284  -4.930  0.00  0.00    -0.150 N 
ATOM      6  C   UNL     1       0.582  -2.997  -5.401  0.00  0.00    +0.182 C 
ATOM      7  N   UNL     1       0.315  -1.880  -4.772  0.00  0.00    -0.152 NA
ATOM      8  C   UNL     1      -0.095  -1.928  -3.487  0.00  0.00    +0.273 C 
ATOM      9  O   UNL     1      -0.472  -0.922  -2.907  0.00  0.00    -0.268 OA
ATOM     10  S   UNL     1       1.237  -3.272  -7.025  0.00  0.00    -0.015 S 
ATOM     11  C   UNL     1       1.357  -5.054  -6.931  0.00  0.00    +0.235 C 
ATOM     12  N   UNL     1       0.875  -5.300  -5.747  0.00  0.00    -0.145 NA
ATOM     13  H   UNL     1      -0.819  -6.305  -3.898  0.00  0.00    +0.188 HD
ENDROOT
BRANCH   1  17
ATOM     14  C   UNL     1       1.804   1.156   0.058  0.00  0.00    +0.064 C 
ATOM     15  C   UNL     1       1.099  -0.175   0.000  0.00  0.00    +0.022 A 
ATOM     16  C   UNL     1       1.128  -1.026  -1.039  0.00  0.00    +0.031 A 
ATOM     17  C   UNL     1       0.308  -2.183  -0.651  0.00  0.00    -0.003 A 
ATOM     18  C   UNL     1      -0.153  -1.910   0.627  0.00  0.00    +0.028 A 
ATOM     19  N   UNL     1       0.335  -0.710   0.999  0.00  0.00    -0.317 N 
ATOM     20  C   UNL     1      -1.039  -2.802   1.457  0.00  0.00    +0.064 C 
BRANCH  19  21
ATOM     21  C   UNL     1       0.089  -0.095   2.236  0.00  0.00    +0.047 A 
ATOM     22  C   UNL     1       0.571  -0.669   3.405  0.00  0.00    +0.030 A 
ATOM     23  C   UNL     1       0.330  -0.063   4.621  0.00  0.00    +0.047 A 
ATOM     24  C   UNL     1      -0.395   1.119   4.676  0.00  0.00    +0.120 A 
ATOM     25  C   UNL     1      -0.877   1.692   3.509  0.00  0.00    +0.047 A 
ATOM     26  C   UNL     1      -0.631   1.090   2.291  0.00  0.00    +0.030 A 
BRANCH  24  27
ATOM     27  O   UNL     1      -0.633   1.715   5.875  0.00  0.00    -0.495 OA
ATOM     28  C   UNL     1      -1.385   2.929   5.857  0.00  0.00    +0.277 C 
ENDBRANCH  24  27
ENDBRANCH  19  21
ENDBRANCH   1  17
BRANCH  11  29
ATOM     29  S   UNL     1       1.972  -6.186  -8.132  0.00  0.00    +0.022 S 
ATOM     30  O   UNL     1       2.978  -5.464  -8.830  0.00  0.00    -0.167 OA
ATOM     31  O   UNL     1       2.300  -7.355  -7.394  0.00  0.00    -0.167 OA
BRANCH  29  32
ATOM     32  C   UNL     1       0.564  -6.513  -9.228  0.00  0.00    +0.177 C 
BRANCH  32  33
ATOM     33  C   UNL     1       0.987  -7.495 -10.323  0.00  0.00    +0.004 C 
ATOM     34  C   UNL     1       1.331  -8.846  -9.691  0.00  0.00    +0.009 C 
ATOM     35  C   UNL     1      -0.161  -7.675 -11.318  0.00  0.00    +0.009 C 
ENDBRANCH  32  33
ENDBRANCH  29  32
ENDBRANCH  11  29
TORSDOF 6
