REMARK  Name = ZINC35781234
REMARK  14 active torsions:
REMARK  status: ('A' for Active; 'I' for Inactive)
REMARK    1  A    between atoms: C_1  and  N_2
REMARK    2  A    between atoms: N_5  and  C_8
REMARK    3  A    between atoms: C_9  and  C_19
REMARK    4  A    between atoms: C_10  and  C_13
REMARK    5  A    between atoms: C_19  and  N_20
REMARK    6  A    between atoms: N_20  and  C_21
REMARK    7  A    between atoms: N_20  and  C_25
REMARK    8  A    between atoms: C_21  and  C_22
REMARK    9  A    between atoms: C_25  and  C_26
REMARK   10  A    between atoms: C_26  and  C_28
REMARK   11  A    between atoms: C_26  and  O_33
REMARK   12  A    between atoms: C_28  and  O_29
REMARK   13  A    between atoms: O_29  and  C_30
REMARK   14  A    between atoms: C_30  and  C_31
REMARK                            x       y       z     vdW  Elec       q    Type
REMARK                         _______ _______ _______ _____ _____    ______ ____
ROOT
ATOM      1  C   UNL     1       1.812  -4.034  -0.646  0.00  0.00    +0.222 A 
ATOM      2  C   UNL     1       2.465  -4.267   0.520  0.00  0.00    +0.025 A 
ATOM      3  C   UNL     1       3.782  -4.665   0.210  0.00  0.00    +0.117 A 
ATOM      4  N   UNL     1       3.907  -4.668  -1.097  0.00  0.00    -0.076 NA
ATOM      5  O   UNL     1       2.667  -4.275  -1.656  0.00  0.00    -0.339 OA
ENDROOT
BRANCH   1  10
ATOM      6  C   UNL     1      -2.779  -2.375  -3.057  0.00  0.00    -0.096 C 
ATOM      7  N   UNL     1      -1.885  -2.772  -1.961  0.00  0.00    +0.380 N 
ATOM      8  C   UNL     1      -1.421  -4.147  -2.184  0.00  0.00    -0.060 C 
ATOM      9  C   UNL     1      -0.581  -4.602  -0.986  0.00  0.00    +0.089 C 
ATOM     10  N   UNL     1       0.498  -3.625  -0.775  0.00  0.00    -0.303 N 
ATOM     11  C   UNL     1       0.138  -2.200  -0.703  0.00  0.00    +0.089 C 
ATOM     12  C   UNL     1      -0.736  -1.858  -1.914  0.00  0.00    -0.060 C 
ATOM     13  H   UNL     1      -2.385  -2.726  -1.086  0.00  0.00    -0.082 HD
ENDBRANCH   1  10
BRANCH   3  14
ATOM     14  C   UNL     1       4.841  -5.019   1.189  0.00  0.00    +0.004 A 
ATOM     15  C   UNL     1       5.059  -4.213   2.304  0.00  0.00    +0.010 A 
ATOM     16  C   UNL     1       6.045  -4.546   3.211  0.00  0.00    +0.001 A 
ATOM     17  C   UNL     1       6.814  -5.678   3.015  0.00  0.00    +0.000 A 
ATOM     18  C   UNL     1       6.601  -6.482   1.909  0.00  0.00    +0.001 A 
ATOM     19  C   UNL     1       5.615  -6.161   0.999  0.00  0.00    +0.010 A 
ENDBRANCH   3  14
BRANCH   2  20
ATOM     20  C   UNL     1       1.884  -4.126   1.904  0.00  0.00    -0.035 C 
BRANCH  20  21
ATOM     21  N   UNL     1       1.176  -5.361   2.266  0.00  0.00    +0.384 N 
ATOM     22  H   UNL     1       0.496  -5.580   1.554  0.00  0.00    -0.081 HD
BRANCH  21  23
ATOM     23  C   UNL     1       0.494  -5.175   3.554  0.00  0.00    -0.075 C 
BRANCH  23  24
ATOM     24  C   UNL     1      -0.520  -4.036   3.434  0.00  0.00    -0.028 C 
ATOM     25  C   UNL     1      -0.270  -2.777   4.266  0.00  0.00    +0.002 C 
ATOM     26  C   UNL     1      -1.395  -3.738   4.653  0.00  0.00    +0.002 C 
ENDBRANCH  23  24
ENDBRANCH  21  23
BRANCH  21  27
ATOM     27  C   UNL     1       2.141  -6.464   2.377  0.00  0.00    -0.044 C 
BRANCH  27  28
ATOM     28  C   UNL     1       1.388  -7.784   2.555  0.00  0.00    +0.124 C 
BRANCH  28  29
ATOM     29  O   UNL     1       0.757  -7.803   3.837  0.00  0.00    -0.391 OA
ATOM     30  H   UNL     1       1.371  -7.723   4.579  0.00  0.00    +0.210 HD
ENDBRANCH  28  29
BRANCH  28  31
ATOM     31  C   UNL     1       2.373  -8.950   2.454  0.00  0.00    +0.190 C 
BRANCH  31  32
ATOM     32  O   UNL     1       1.655 -10.185   2.503  0.00  0.00    -0.365 OA
BRANCH  32  33
ATOM     33  C   UNL     1       2.486 -11.344   2.415  0.00  0.00    +0.248 C 
BRANCH  33  34
ATOM     34  C   UNL     1       1.650 -12.554   2.475  0.00  0.00    -0.077 C 
ATOM     35  C   UNL     1       0.982 -13.518   2.523  0.00  0.00    +0.006 C 
ENDBRANCH  33  34
ENDBRANCH  32  33
ENDBRANCH  31  32
ENDBRANCH  28  31
ENDBRANCH  27  28
ENDBRANCH  21  27
ENDBRANCH  20  21
ENDBRANCH   2  20
TORSDOF 13
