REMARK  Name = ZINC35280472
REMARK  3 active torsions:
REMARK  status: ('A' for Active; 'I' for Inactive)
REMARK    1  A    between atoms: C_3  and  N_10
REMARK    2  A    between atoms: C_6  and  C_7
REMARK    3  A    between atoms: C_7  and  N_9
REMARK                            x       y       z     vdW  Elec       q    Type
REMARK                         _______ _______ _______ _____ _____    ______ ____
ROOT
ATOM      1  C   UNL     1       0.804   0.034   1.147  0.00  0.00    +0.012 A 
ATOM      2  C   UNL     1       1.985   0.741   1.135  0.00  0.00    +0.024 A 
ATOM      3  C   UNL     1       2.381   1.418  -0.013  0.00  0.00    +0.044 A 
ATOM      4  C   UNL     1       1.586   1.383  -1.154  0.00  0.00    +0.024 A 
ATOM      5  C   UNL     1       0.403   0.678  -1.150  0.00  0.00    +0.012 A 
ATOM      6  C   UNL     1       0.002  -0.004   0.003  0.00  0.00    +0.003 A 
ENDROOT
BRANCH   3   7
ATOM      7  N   UNL     1       3.581   2.135  -0.022  0.00  0.00    -0.210 N 
ATOM      8  C   UNL     1       3.627   3.472  -0.107  0.00  0.00    +0.227 C 
ATOM      9  O   UNL     1       2.665   4.205  -0.186  0.00  0.00    -0.275 OA
ATOM     10  C   UNL     1       5.075   3.921  -0.089  0.00  0.00    +0.113 C 
ATOM     11  C   UNL     1       5.850   2.603   0.023  0.00  0.00    +0.056 C 
ATOM     12  C   UNL     1       4.782   1.543   0.062  0.00  0.00    +0.233 C 
ATOM     13  O   UNL     1       4.976   0.350   0.151  0.00  0.00    -0.274 OA
ATOM     14  C   UNL     1       6.704   2.575   1.297  0.00  0.00    +0.016 C 
ATOM     15  C   UNL     1       7.978   1.797   0.877  0.00  0.00    +0.001 C 
ATOM     16  C   UNL     1       8.214   2.280  -0.577  0.00  0.00    +0.001 C 
ATOM     17  C   UNL     1       6.792   2.413  -1.168  0.00  0.00    +0.016 C 
ENDBRANCH   3   7
BRANCH   6  18
ATOM     18  C   UNL     1      -1.264  -0.760   0.011  0.00  0.00    +0.077 C 
ATOM     19  S   UNL     1      -2.210  -0.829   1.436  0.00  0.00    -0.035 S 
BRANCH  18  20
ATOM     20  N   UNL     1      -1.675  -1.397  -1.103  0.00  0.00    -0.352 N 
ATOM     21  H   UNL     1      -1.139  -1.358  -1.910  0.00  0.00    +0.143 HD
ATOM     22  H   UNL     1      -2.508  -1.895  -1.097  0.00  0.00    +0.143 HD
ENDBRANCH  18  20
ENDBRANCH   6  18
TORSDOF 3
