REMARK  Name = ZINC40247802
REMARK  3 active torsions:
REMARK  status: ('A' for Active; 'I' for Inactive)
REMARK    1  A    between atoms: C_5  and  C_7
REMARK    2  A    between atoms: C_7  and  C_9
REMARK    3  A    between atoms: C_7  and  O_21
REMARK                            x       y       z     vdW  Elec       q    Type
REMARK                         _______ _______ _______ _____ _____    ______ ____
ROOT
ATOM      1  C   UNL     1       1.346  -2.678  -1.441  0.00  0.00    -0.013 A 
ATOM      2  C   UNL     1       0.224  -2.717  -2.252  0.00  0.00    +0.008 A 
ATOM      3  C   UNL     1       0.321  -3.166  -3.554  0.00  0.00    +0.028 A 
ATOM      4  C   UNL     1       1.547  -3.581  -4.052  0.00  0.00    +0.067 A 
ATOM      5  C   UNL     1       2.678  -3.543  -3.234  0.00  0.00    +0.067 A 
ATOM      6  C   UNL     1       2.572  -3.084  -1.930  0.00  0.00    +0.034 A 
ATOM      7  N   UNL     1       3.744  -4.012  -3.998  0.00  0.00    -0.306 N 
ATOM      8  H   UNL     1       4.662  -4.101  -3.698  0.00  0.00    +0.170 HD
ATOM      9  C   UNL     1       3.282  -4.322  -5.225  0.00  0.00    +0.325 A 
ATOM     10  O   UNL     1       3.957  -4.761  -6.137  0.00  0.00    -0.247 OA
ATOM     11  N   UNL     1       1.960  -4.073  -5.288  0.00  0.00    -0.306 N 
ATOM     12  H   UNL     1       1.393  -4.212  -6.062  0.00  0.00    +0.170 HD
ENDROOT
BRANCH   1  13
ATOM     13  C   UNL     1       1.229  -2.186  -0.022  0.00  0.00    +0.176 C 
BRANCH  13  18
ATOM     14  C   UNL     1      -0.017   1.378   0.010  0.00  0.00    +0.000 A 
ATOM     15  C   UNL     1       1.171   2.086   0.002  0.00  0.00    +0.001 A 
ATOM     16  C   UNL     1       2.377   1.411  -0.013  0.00  0.00    +0.015 A 
ATOM     17  C   UNL     1       2.396   0.029  -0.021  0.00  0.00    +0.019 A 
ATOM     18  C   UNL     1       1.208  -0.679  -0.013  0.00  0.00    -0.002 A 
ATOM     19  C   UNL     1       0.002  -0.004   0.002  0.00  0.00    +0.007 A 
ATOM     20  I   UNL     1       4.225  -0.994  -0.044  0.00  0.00    -0.043 I 
ENDBRANCH  13  18
BRANCH  13  21
ATOM     21  O   UNL     1       0.020  -2.682   0.556  0.00  0.00    -0.382 OA
ATOM     22  H   UNL     1      -0.781  -2.405   0.091  0.00  0.00    +0.211 HD
ENDBRANCH  13  21
ENDBRANCH   1  13
TORSDOF 3
