REMARK  Name = ZINC44388922
REMARK  6 active torsions:
REMARK  status: ('A' for Active; 'I' for Inactive)
REMARK    1  A    between atoms: C_1  and  C_2
REMARK    2  A    between atoms: C_2  and  C_3
REMARK    3  A    between atoms: C_2  and  C_4
REMARK    4  A    between atoms: C_4  and  C_6
REMARK    5  A    between atoms: C_4  and  N_11
REMARK    6  A    between atoms: C_13  and  N_19
REMARK                            x       y       z     vdW  Elec       q    Type
REMARK                         _______ _______ _______ _____ _____    ______ ____
ROOT
ATOM      1  N   UNL     1       0.712  -1.970   1.142  0.00  0.00    -0.320 N 
ATOM      2  C   UNL     1      -0.340  -2.686   1.703  0.00  0.00    +0.150 A 
ATOM      3  C   UNL     1      -0.334  -4.076   1.649  0.00  0.00    +0.167 A 
ATOM      4  C   UNL     1      -1.387  -4.776   2.212  0.00  0.00    +0.053 A 
ATOM      5  C   UNL     1      -2.414  -4.058   2.812  0.00  0.00    +0.038 A 
ATOM      6  C   UNL     1      -2.354  -2.678   2.830  0.00  0.00    +0.128 A 
ATOM      7  N   UNL     1      -1.335  -2.038   2.289  0.00  0.00    -0.237 NA
ATOM      8 BR   UNL     1      -3.878  -4.961   3.597  0.00  0.00    -0.049 Br
ATOM      9  H   UNL     1       1.405  -2.435   0.647  0.00  0.00    +0.148 HD
ENDROOT
BRANCH   3  10
ATOM     10  N   UNL     1       0.782  -4.797   0.998  0.00  0.00    +0.060 N 
ATOM     11  O   UNL     1       0.563  -5.796   0.353  0.00  0.00    -0.126 OA
ATOM     12  O   UNL     1       1.914  -4.387   1.111  0.00  0.00    -0.126 OA
ENDBRANCH   3  10
BRANCH   1  13
ATOM     13  C   UNL     1       0.774  -0.515   1.298  0.00  0.00    +0.111 C 
BRANCH  13  14
ATOM     14  C   UNL     1       2.204  -0.057   1.179  0.00  0.00    +0.010 A 
ATOM     15  C   UNL     1       2.861   0.887   1.896  0.00  0.00    +0.013 A 
ATOM     16  C   UNL     1       4.189   1.143   1.609  0.00  0.00    +0.008 A 
ATOM     17  C   UNL     1       4.795   0.444   0.619  0.00  0.00    +0.045 A 
ATOM     18  S   UNL     1       3.476  -0.623   0.060  0.00  0.00    -0.100 S 
ENDBRANCH  13  14
BRANCH  13  20
ATOM     19  C   UNL     1      -0.003   1.671   0.370  0.00  0.00    +0.009 C 
ATOM     20  C   UNL     1      -0.068   0.151   0.208  0.00  0.00    +0.008 C 
ATOM     21  C   UNL     1       0.479  -0.238  -1.167  0.00  0.00    +0.009 C 
ENDBRANCH  13  20
ENDBRANCH   1  13
TORSDOF 4
