REMARK  Name = ZINC25337843
REMARK  3 active torsions:
REMARK  status: ('A' for Active; 'I' for Inactive)
REMARK    1  A    between atoms: C_5  and  C_7
REMARK    2  A    between atoms: C_13  and  S_20
REMARK    3  A    between atoms: S_20  and  N_23
REMARK                            x       y       z     vdW  Elec       q    Type
REMARK                         _______ _______ _______ _____ _____    ______ ____
ROOT
ATOM      1  C   UNL     1       0.002  -0.004   0.002  0.00  0.00    +0.192 C 
ATOM      2  N   UNL     1       0.746  -0.469   1.171  0.00  0.00    -0.322 N 
ATOM      3  C   UNL     1       2.007   0.010   1.514  0.00  0.00    +0.057 A 
ATOM      4  C   UNL     1       2.823  -0.773   2.331  0.00  0.00    +0.047 A 
ATOM      5  C   UNL     1       4.072  -0.320   2.703  0.00  0.00    +0.069 A 
ATOM      6  C   UNL     1       4.524   0.915   2.270  0.00  0.00    +0.125 A 
ATOM      7  C   UNL     1       3.722   1.694   1.455  0.00  0.00    +0.060 A 
ATOM      8  C   UNL     1       2.477   1.240   1.074  0.00  0.00    +0.128 A 
ATOM      9  S   UNL     1       1.473   2.221  -0.000  0.00  0.00    +0.062 S 
ATOM     10  O   UNL     1       2.002   2.075  -1.311  0.00  0.00    -0.153 OA
ATOM     11  O   UNL     1       1.307   3.486   0.627  0.00  0.00    -0.153 OA
ATOM     12  N   UNL     1      -0.018   1.473   0.010  0.00  0.00    -0.166 NA
ATOM     13 CL   UNL     1       5.081  -1.302   3.718  0.00  0.00    -0.081 Cl
ATOM     14  H   UNL     1       0.311  -1.234   1.830  0.00  0.00    +0.148 HD
ATOM     15  H   UNL     1      -0.965   2.011  -0.143  0.00  0.00    +0.150 HD
ENDROOT
BRANCH   1  20
ATOM     16  C   UNL     1       1.315  -0.146  -3.535  0.00  0.00    +0.000 A 
ATOM     17  C   UNL     1       1.913  -1.392  -3.558  0.00  0.00    +0.001 A 
ATOM     18  C   UNL     1       1.894  -2.189  -2.429  0.00  0.00    +0.015 A 
ATOM     19  C   UNL     1       1.275  -1.740  -1.276  0.00  0.00    +0.024 A 
ATOM     20  C   UNL     1       0.676  -0.494  -1.254  0.00  0.00    +0.002 A 
ATOM     21  C   UNL     1       0.691   0.301  -2.385  0.00  0.00    +0.008 A 
ATOM     22 BR   UNL     1       1.248  -2.830   0.269  0.00  0.00    -0.050 Br
ENDBRANCH   1  20
BRANCH   6  23
ATOM     23  S   UNL     1       6.116   1.493   2.755  0.00  0.00    +0.057 S 
ATOM     24  O   UNL     1       7.027   0.432   2.505  0.00  0.00    -0.153 OA
ATOM     25  O   UNL     1       6.272   2.783   2.179  0.00  0.00    -0.153 OA
BRANCH  23  26
ATOM     26  N   UNL     1       6.079   1.709   4.396  0.00  0.00    -0.203 NA
ATOM     27  H   UNL     1       7.059   2.071   4.740  0.00  0.00    +0.144 HD
ATOM     28  H   UNL     1       5.849   0.752   4.887  0.00  0.00    +0.144 HD
ENDBRANCH  23  26
ENDBRANCH   6  23
TORSDOF 3
