REMARK  Name = ZINC17077588
REMARK  4 active torsions:
REMARK  status: ('A' for Active; 'I' for Inactive)
REMARK    1  A    between atoms: C_6  and  C_11
REMARK    2  A    between atoms: N_13  and  C_14
REMARK    3  A    between atoms: C_14  and  N_16
REMARK    4  A    between atoms: C_22  and  O_26
REMARK                            x       y       z     vdW  Elec       q    Type
REMARK                         _______ _______ _______ _____ _____    ______ ____
ROOT
ATOM      1  C   UNL     1       6.180  -4.714  -0.083  0.00  0.00    +0.163 C 
ATOM      2  S   UNL     1       7.650  -3.836  -0.103  0.00  0.00    -0.016 S 
ENDROOT
BRANCH   1   3
ATOM      3  N   UNL     1       6.200  -6.051  -0.088  0.00  0.00    -0.169 NA
ATOM      4  C   UNL     1       6.880  -6.708   0.844  0.00  0.00    +0.163 A 
ATOM      5  N   UNL     1       7.529  -6.213   1.936  0.00  0.00    -0.335 N 
ATOM      6  C   UNL     1       8.190  -7.069   2.802  0.00  0.00    +0.055 A 
ATOM      7  C   UNL     1       8.904  -6.727   3.964  0.00  0.00    +0.030 A 
ATOM      8  C   UNL     1       9.513  -7.691   4.730  0.00  0.00    +0.047 A 
ATOM      9  C   UNL     1       9.445  -9.034   4.383  0.00  0.00    +0.118 A 
ATOM     10  C   UNL     1       8.746  -9.400   3.240  0.00  0.00    +0.062 A 
ATOM     11  C   UNL     1       8.138  -8.432   2.477  0.00  0.00    +0.042 A 
ATOM     12  S   UNL     1       7.168  -8.464   0.989  0.00  0.00    -0.052 S 
ATOM     13  H   UNL     1       7.529  -5.259   2.107  0.00  0.00    +0.168 HD
BRANCH   9  14
ATOM     14  O   UNL     1      10.054  -9.977   5.150  0.00  0.00    -0.507 OA
ATOM     15  H   UNL     1       9.493 -10.336   5.851  0.00  0.00    +0.292 HD
ENDBRANCH   9  14
ENDBRANCH   1   3
BRANCH   1  18
ATOM     16  C   UNL     1       4.983  -2.710  -0.056  0.00  0.00    +0.250 C 
ATOM     17  O   UNL     1       6.026  -2.087  -0.071  0.00  0.00    -0.270 OA
ATOM     18  N   UNL     1       5.003  -4.058  -0.061  0.00  0.00    -0.262 N 
ATOM     19  H   UNL     1       4.171  -4.556  -0.049  0.00  0.00    +0.157 HD
BRANCH  16  25
ATOM     20  C   UNL     1      -0.001   1.370   0.040  0.00  0.00    +0.001 A 
ATOM     21  C   UNL     1       1.185   2.102   0.023  0.00  0.00    +0.001 A 
ATOM     22  C   UNL     1       2.393   1.476   0.001  0.00  0.00    +0.008 A 
ATOM     23  C   UNL     1       2.450   0.070  -0.005  0.00  0.00    -0.017 A 
ATOM     24  C   UNL     1       3.678  -0.606  -0.027  0.00  0.00    +0.021 A 
ATOM     25  C   UNL     1       3.693  -1.991  -0.032  0.00  0.00    +0.038 A 
ATOM     26  C   UNL     1       2.489  -2.718  -0.016  0.00  0.00    +0.013 A 
ATOM     27  C   UNL     1       1.291  -2.080   0.006  0.00  0.00    +0.009 A 
ATOM     28  C   UNL     1       1.243  -0.674   0.012  0.00  0.00    -0.018 A 
ATOM     29  C   UNL     1       0.015   0.008   0.034  0.00  0.00    +0.008 A 
ENDBRANCH  16  25
ENDBRANCH   1  18
TORSDOF 4
