REMARK  Name = ZINC08746046
REMARK  5 active torsions:
REMARK  status: ('A' for Active; 'I' for Inactive)
REMARK    1  A    between atoms: C_3  and  C_6
REMARK    2  A    between atoms: C_16  and  C_18
REMARK    3  A    between atoms: C_23  and  C_25
REMARK    4  A    between atoms: C_25  and  S_26
REMARK    5  A    between atoms: S_26  and  C_27
REMARK                            x       y       z     vdW  Elec       q    Type
REMARK                         _______ _______ _______ _____ _____    ______ ____
ROOT
ATOM      1  C   UNL     1      -7.204   8.700   0.117  0.00  0.00    +0.020 C 
ATOM      2  C   UNL     1      -8.410   8.087   0.064  0.00  0.00    -0.023 C 
ATOM      3  C   UNL     1      -9.661   8.907   0.151  0.00  0.00    +0.037 C 
ATOM      4  C   UNL     1     -10.932   8.135  -0.138  0.00  0.00    +0.005 C 
ATOM      5  C   UNL     1     -10.878   6.680   0.322  0.00  0.00    +0.012 C 
ATOM      6  C   UNL     1      -9.767   5.971  -0.455  0.00  0.00    +0.067 C 
ATOM      7  C   UNL     1      -8.471   6.683  -0.071  0.00  0.00    +0.068 C 
ATOM      8  N   UNL     1      -7.553   5.790   0.073  0.00  0.00    -0.181 NA
ATOM      9  N   UNL     1      -8.042   4.479   0.068  0.00  0.00    -0.184 N 
ATOM     10  C   UNL     1      -9.521   4.548   0.070  0.00  0.00    +0.146 C 
ATOM     11  C   UNL     1      -7.300   3.354   0.058  0.00  0.00    +0.246 C 
ATOM     12  O   UNL     1      -7.843   2.269   0.055  0.00  0.00    -0.273 OA
ENDROOT
BRANCH   1  15
ATOM     13  C   UNL     1      -6.196  12.324   0.463  0.00  0.00    +0.008 A 
ATOM     14  C   UNL     1      -6.009  10.968   0.335  0.00  0.00    +0.015 A 
ATOM     15  C   UNL     1      -7.129  10.154   0.257  0.00  0.00    +0.012 A 
ATOM     16  S   UNL     1      -8.455  11.343   0.382  0.00  0.00    -0.097 S 
ATOM     17  C   UNL     1      -7.461  12.819   0.519  0.00  0.00    +0.046 A 
ENDBRANCH   1  15
BRANCH  10  18
ATOM     18  C   UNL     1     -10.112   3.519  -0.859  0.00  0.00    +0.013 A 
ATOM     19  C   UNL     1     -11.224   2.761  -0.696  0.00  0.00    +0.013 A 
ATOM     20  C   UNL     1     -11.580   1.872  -1.693  0.00  0.00    +0.008 A 
ATOM     21  C   UNL     1     -10.807   1.785  -2.803  0.00  0.00    +0.045 A 
ATOM     22  S   UNL     1      -9.534   2.989  -2.462  0.00  0.00    -0.100 S 
ENDBRANCH  10  18
BRANCH  11  23
ATOM     23  C   UNL     1      -5.796   3.444   0.051  0.00  0.00    +0.175 C 
BRANCH  23  24
ATOM     24  S   UNL     1      -5.090   1.773   0.038  0.00  0.00    -0.075 S 
BRANCH  24  25
ATOM     25  C   UNL     1      -3.349   2.045   0.030  0.00  0.00    +0.210 A 
ATOM     26  N   UNL     1      -2.413   1.089   0.020  0.00  0.00    -0.188 NA
ATOM     27  C   UNL     1      -1.218   1.641   0.017  0.00  0.00    +0.209 A 
ATOM     28  N   UNL     1      -1.377   2.981   0.030  0.00  0.00    -0.246 N 
ATOM     29  H   UNL     1      -0.674   3.649   0.035  0.00  0.00    +0.192 HD
ATOM     30  N   UNL     1      -2.761   3.217   0.034  0.00  0.00    -0.144 NA
ATOM     31  N   UNL     1      -0.011   0.966   0.007  0.00  0.00    -0.328 N 
ATOM     32  H   UNL     1       0.002  -0.004   0.002  0.00  0.00    +0.145 HD
ATOM     33  H   UNL     1       0.822   1.462   0.002  0.00  0.00    +0.145 HD
ENDBRANCH  24  25
ENDBRANCH  23  24
ENDBRANCH  11  23
TORSDOF 5
