REMARK  Name = ZINC03521535
REMARK  8 active torsions:
REMARK  status: ('A' for Active; 'I' for Inactive)
REMARK    1  A    between atoms: C_1  and  C_2
REMARK    2  A    between atoms: C_2  and  N_3
REMARK    3  A    between atoms: C_7  and  C_9
REMARK    4  A    between atoms: C_9  and  C_11
REMARK    5  A    between atoms: C_9  and  O_12
REMARK    6  A    between atoms: O_12  and  C_13
REMARK    7  A    between atoms: C_13  and  C_15
REMARK    8  A    between atoms: C_26  and  C_30
REMARK                            x       y       z     vdW  Elec       q    Type
REMARK                         _______ _______ _______ _____ _____    ______ ____
ROOT
ATOM      1  C   UNL     1       2.535  -0.330  -0.025  0.00  0.00    +0.341 C 
ATOM      2  O   UNL     1       2.559  -0.931  -1.081  0.00  0.00    -0.245 OA
ENDROOT
BRANCH   1   3
ATOM      3  C   UNL     1       2.445   1.145  -0.017  0.00  0.00    +0.073 A 
ATOM      4  C   UNL     1       1.188   1.796   0.000  0.00  0.00    +0.015 A 
ATOM      5  C   UNL     1      -0.013   1.076   0.008  0.00  0.00    +0.011 A 
ATOM      6  C   UNL     1      -1.200   1.745   0.017  0.00  0.00    +0.001 A 
ATOM      7  C   UNL     1      -1.234   3.138   0.031  0.00  0.00    +0.002 A 
ATOM      8  C   UNL     1      -0.086   3.868   0.025  0.00  0.00    +0.028 A 
ATOM      9  C   UNL     1       1.159   3.213   0.009  0.00  0.00    +0.072 A 
ATOM     10  N   UNL     1       2.300   3.899   0.004  0.00  0.00    -0.251 NA
ATOM     11  C   UNL     1       3.483   3.315  -0.012  0.00  0.00    +0.046 A 
ATOM     12  C   UNL     1       3.597   1.931  -0.025  0.00  0.00    -0.011 A 
ATOM     13  C   UNL     1       4.925   1.223  -0.052  0.00  0.00    +0.041 C 
ATOM     14  C   UNL     1       6.047   2.170   0.369  0.00  0.00    -0.009 C 
ATOM     15  C   UNL     1       5.934   3.453  -0.464  0.00  0.00    +0.010 C 
ATOM     16  C   UNL     1       4.693   4.217  -0.009  0.00  0.00    +0.056 C 
ATOM     17  C   UNL     1       7.403   1.509   0.116  0.00  0.00    +0.008 C 
ENDBRANCH   1   3
BRANCH   1  18
ATOM     18  O   UNL     1       2.589  -1.008   1.137  0.00  0.00    -0.449 OA
BRANCH  18  19
ATOM     19  C   UNL     1       2.675  -2.455   1.053  0.00  0.00    +0.259 C 
ATOM     20  C   UNL     1       1.266  -3.051   1.040  0.00  0.00    +0.062 C 
BRANCH  19  25
ATOM     21  N   UNL     1       4.695  -6.081   3.479  0.00  0.00    -0.299 N 
ATOM     22  C   UNL     1       4.402  -4.768   3.394  0.00  0.00    +0.306 C 
ATOM     23  O   UNL     1       4.749  -4.010   4.279  0.00  0.00    -0.252 OA
ATOM     24  N   UNL     1       3.725  -4.296   2.329  0.00  0.00    -0.237 N 
ATOM     25  C   UNL     1       3.432  -2.983   2.244  0.00  0.00    +0.261 C 
ATOM     26  O   UNL     1       3.778  -2.227   3.127  0.00  0.00    -0.271 OA
ATOM     27  H   UNL     1       4.418  -6.686   2.773  0.00  0.00    +0.150 HD
ATOM     28  H   UNL     1       3.449  -4.901   1.623  0.00  0.00    +0.159 HD
BRANCH  21  30
ATOM     29  C   UNL     1       5.630  -8.104   4.486  0.00  0.00    +0.024 C 
ATOM     30  C   UNL     1       5.431  -6.595   4.637  0.00  0.00    +0.102 C 
ENDBRANCH  21  30
ENDBRANCH  19  25
ENDBRANCH  18  19
ENDBRANCH   1  18
TORSDOF 5
