REMARK  Name = ZINC35173341
REMARK  4 active torsions:
REMARK  status: ('A' for Active; 'I' for Inactive)
REMARK    1  A    between atoms: C_4  and  S_7
REMARK    2  A    between atoms: S_7  and  C_8
REMARK    3  A    between atoms: C_8  and  C_9
REMARK    4  A    between atoms: C_20  and  C_22
REMARK                            x       y       z     vdW  Elec       q    Type
REMARK                         _______ _______ _______ _____ _____    ______ ____
ROOT
ATOM      1  C   UNL     1       4.712  -3.430  -0.058  0.00  0.00    +0.227 C 
ATOM      2  O   UNL     1       5.810  -2.913  -0.070  0.00  0.00    -0.275 OA
ATOM      3  N   UNL     1       4.600  -4.773  -0.064  0.00  0.00    -0.288 N 
ATOM      4  C   UNL     1       3.282  -5.384  -0.055  0.00  0.00    +0.110 C 
ATOM      5  C   UNL     1       2.920  -6.113  -1.334  0.00  0.00    +0.040 C 
ATOM      6  C   UNL     1       3.798  -7.357  -1.523  0.00  0.00    +0.123 C 
ATOM      7  N   UNL     1       5.071  -6.921  -2.122  0.00  0.00    -0.349 N 
ATOM      8  C   UNL     1       5.540  -7.227  -3.361  0.00  0.00    +0.086 A 
ATOM      9  C   UNL     1       6.726  -6.604  -3.528  0.00  0.00    +0.019 A 
ATOM     10  C   UNL     1       7.002  -5.893  -2.340  0.00  0.00    +0.025 A 
ATOM     11  C   UNL     1       5.981  -6.116  -1.502  0.00  0.00    +0.044 A 
ATOM     12  C   UNL     1       5.814  -5.606  -0.086  0.00  0.00    +0.154 C 
ENDROOT
BRANCH  12  13
ATOM     13  C   UNL     1       5.659  -6.767   0.862  0.00  0.00    -0.014 A 
ATOM     14  C   UNL     1       5.042  -6.595   2.087  0.00  0.00    +0.013 A 
ATOM     15  C   UNL     1       4.918  -7.660   2.916  0.00  0.00    +0.045 A 
ATOM     16  S   UNL     1       5.689  -8.960   1.966  0.00  0.00    -0.105 S 
ATOM     17  C   UNL     1       6.119  -7.997   0.525  0.00  0.00    +0.051 A 
ENDBRANCH  12  13
BRANCH   1  18
ATOM     18  C   UNL     1       3.475  -2.570  -0.035  0.00  0.00    +0.170 C 
BRANCH  18  19
ATOM     19  S   UNL     1       3.954  -0.821  -0.032  0.00  0.00    -0.116 S 
BRANCH  19  23
ATOM     20  C   UNL     1       0.006   1.397   0.036  0.00  0.00    +0.000 A 
ATOM     21  C   UNL     1       1.194   2.104   0.024  0.00  0.00    +0.001 A 
ATOM     22  C   UNL     1       2.400   1.432   0.003  0.00  0.00    +0.015 A 
ATOM     23  C   UNL     1       2.418   0.042  -0.005  0.00  0.00    +0.008 A 
ATOM     24  C   UNL     1       1.222  -0.665   0.007  0.00  0.00    +0.015 A 
ATOM     25  C   UNL     1       0.020   0.014   0.027  0.00  0.00    +0.001 A 
ENDBRANCH  19  23
ENDBRANCH  18  19
ENDBRANCH   1  18
TORSDOF 4
