REMARK  Name = ZINC33680853
REMARK  5 active torsions:
REMARK  status: ('A' for Active; 'I' for Inactive)
REMARK    1  A    between atoms: C_8  and  C_10
REMARK    2  A    between atoms: N_18  and  C_21
REMARK    3  A    between atoms: C_27  and  C_29
REMARK    4  A    between atoms: C_27  and  C_40
REMARK    5  A    between atoms: C_29  and  C_30
REMARK                            x       y       z     vdW  Elec       q    Type
REMARK                         _______ _______ _______ _____ _____    ______ ____
ROOT
ATOM      1  C   UNL     1      -1.220  -3.437  -0.251  0.00  0.00    +0.010 C 
ATOM      2  C   UNL     1      -1.889  -3.623  -1.554  0.00  0.00    +0.080 C 
ATOM      3  C   UNL     1      -3.048  -2.550  -1.462  0.00  0.00    +0.086 C 
ATOM      4  C   UNL     1      -3.766  -2.992  -2.708  0.00  0.00    +0.225 C 
ATOM      5  O   UNL     1      -4.963  -3.010  -2.898  0.00  0.00    -0.275 OA
ATOM      6  N   UNL     1      -2.784  -3.369  -3.581  0.00  0.00    -0.239 N 
ATOM      7  C   UNL     1      -1.576  -3.573  -2.963  0.00  0.00    +0.225 C 
ATOM      8  O   UNL     1      -0.487  -3.687  -3.484  0.00  0.00    -0.275 OA
ATOM      9  C   UNL     1      -3.576  -2.941  -0.084  0.00  0.00    +0.052 C 
ATOM     10  N   UNL     1      -2.389  -3.375   0.694  0.00  0.00    +0.398 N 
ATOM     11  H   UNL     1      -2.560  -4.371   1.130  0.00  0.00    -0.083 HD
ATOM     12  H   UNL     1      -2.173  -2.655   1.498  0.00  0.00    -0.083 HD
ENDROOT
BRANCH   1  20
ATOM     13  C   UNL     1       2.344   1.476  -0.211  0.00  0.00    +0.001 A 
ATOM     14  C   UNL     1       1.130   2.125  -0.040  0.00  0.00    +0.004 A 
ATOM     15  C   UNL     1      -0.048   1.410   0.020  0.00  0.00    +0.047 A 
ATOM     16  C   UNL     1      -0.021   0.025  -0.093  0.00  0.00    +0.135 A 
ATOM     17  C   UNL     1       1.211  -0.625  -0.268  0.00  0.00    +0.020 A 
ATOM     18  C   UNL     1       2.392   0.115  -0.325  0.00  0.00    +0.011 A 
ATOM     19  C   UNL     1       0.891  -2.055  -0.350  0.00  0.00    +0.051 A 
ATOM     20  C   UNL     1      -0.439  -2.148  -0.226  0.00  0.00    +0.093 A 
ATOM     21  O   UNL     1      -0.977  -0.925  -0.075  0.00  0.00    -0.461 OA
ENDBRANCH   1  20
BRANCH   6  22
ATOM     22  C   UNL     1      -2.999  -3.536  -5.021  0.00  0.00    +0.084 C 
ATOM     23  C   UNL     1      -2.678  -4.978  -5.420  0.00  0.00    +0.023 C 
ATOM     24  C   UNL     1      -2.902  -5.153  -6.923  0.00  0.00    +0.002 C 
ATOM     25  C   UNL     1      -1.987  -4.196  -7.690  0.00  0.00    +0.000 C 
ATOM     26  C   UNL     1      -2.308  -2.755  -7.291  0.00  0.00    +0.002 C 
ATOM     27  C   UNL     1      -2.084  -2.579  -5.788  0.00  0.00    +0.023 C 
ENDBRANCH   6  22
BRANCH   9  28
ATOM     28  C   UNL     1      -4.545  -4.089  -0.202  0.00  0.00    +0.347 C 
ATOM     29  O   UNL     1      -5.729  -3.873  -0.298  0.00  0.00    -0.248 OA
ATOM     30  O   UNL     1      -4.091  -5.353  -0.199  0.00  0.00    -0.248 OA
ENDBRANCH   9  28
BRANCH   9  31
ATOM     31  C   UNL     1      -4.254  -1.743   0.585  0.00  0.00    +0.037 C 
BRANCH  31  32
ATOM     32  C   UNL     1      -4.658  -2.113   1.988  0.00  0.00    -0.023 A 
ATOM     33  C   UNL     1      -5.863  -2.554   2.382  0.00  0.00    +0.087 A 
ATOM     34  N   UNL     1      -5.856  -2.790   3.730  0.00  0.00    -0.360 N 
ATOM     35  H   UNL     1      -6.763  -3.165   4.228  0.00  0.00    +0.165 HD
ATOM     36  C   UNL     1      -4.617  -2.491   4.251  0.00  0.00    +0.047 A 
ATOM     37  C   UNL     1      -3.812  -2.054   3.183  0.00  0.00    +0.003 A 
ATOM     38  C   UNL     1      -2.488  -1.678   3.417  0.00  0.00    +0.010 A 
ATOM     39  C   UNL     1      -1.980  -1.736   4.684  0.00  0.00    +0.001 A 
ATOM     40  C   UNL     1      -2.770  -2.167   5.741  0.00  0.00    +0.002 A 
ATOM     41  C   UNL     1      -4.079  -2.543   5.533  0.00  0.00    +0.026 A 
ENDBRANCH  31  32
ENDBRANCH   9  31
TORSDOF 5
