REMARK  Name = ZINC06015211
REMARK  10 active torsions:
REMARK  status: ('A' for Active; 'I' for Inactive)
REMARK    1  A    between atoms: C_1  and  C_2
REMARK    2  A    between atoms: C_2  and  C_33
REMARK    3  A    between atoms: C_6  and  C_17
REMARK    4  A    between atoms: C_11  and  C_15
REMARK    5  A    between atoms: C_11  and  C_16
REMARK    6  A    between atoms: C_19  and  O_28
REMARK    7  A    between atoms: C_20  and  O_24
REMARK    8  A    between atoms: O_24  and  C_25
REMARK    9  A    between atoms: C_25  and  C_26
REMARK   10  A    between atoms: O_28  and  C_29
REMARK                            x       y       z     vdW  Elec       q    Type
REMARK                         _______ _______ _______ _____ _____    ______ ____
ROOT
ATOM      1  C   UNL     1      -3.100   1.991  -3.452  0.00  0.00    +0.011 C 
ATOM      2  C   UNL     1      -4.276   2.963  -3.565  0.00  0.00    -0.023 C 
ATOM      3  C   UNL     1      -5.150   2.850  -2.318  0.00  0.00    +0.058 C 
ATOM      4  C   UNL     1      -4.352   3.236  -1.097  0.00  0.00    +0.031 C 
ATOM      5  C   UNL     1      -3.347   4.134  -1.177  0.00  0.00    +0.111 C 
ATOM      6  C   UNL     1      -2.561   4.513   0.049  0.00  0.00    +0.070 C 
ATOM      7  C   UNL     1      -3.307   4.158   1.309  0.00  0.00    +0.025 C 
ATOM      8  C   UNL     1      -4.317   3.261   1.280  0.00  0.00    +0.049 C 
ATOM      9  N   UNL     1      -4.662   2.657   0.102  0.00  0.00    -0.260 NA
ATOM     10  C   UNL     1      -5.069   2.896   2.533  0.00  0.00    +0.062 C 
ATOM     11  C   UNL     1      -4.146   3.025   3.747  0.00  0.00    -0.023 C 
ATOM     12  C   UNL     1      -3.620   4.463   3.806  0.00  0.00    +0.086 C 
ATOM     13  C   UNL     1      -2.929   4.785   2.509  0.00  0.00    +0.162 C 
ATOM     14  O   UNL     1      -2.028   5.601   2.499  0.00  0.00    -0.292 OA
ATOM     15  C   UNL     1      -2.972   2.054   3.607  0.00  0.00    +0.011 C 
ATOM     16  C   UNL     1      -4.924   2.709   5.026  0.00  0.00    +0.011 C 
ATOM     17  C   UNL     1      -3.011   4.740  -2.400  0.00  0.00    +0.143 C 
ATOM     18  O   UNL     1      -2.109   5.553  -2.436  0.00  0.00    -0.297 OA
ATOM     19  C   UNL     1      -3.749   4.398  -3.666  0.00  0.00    +0.081 C 
ATOM     20  C   UNL     1      -5.104   2.626  -4.806  0.00  0.00    +0.011 C 
ENDROOT
BRANCH   6  21
ATOM     21  C   UNL     1      -1.246   3.776   0.029  0.00  0.00    -0.034 A 
ATOM     22  C   UNL     1      -0.059   4.485   0.020  0.00  0.00    +0.053 A 
ATOM     23  C   UNL     1       1.151   3.811   0.002  0.00  0.00    +0.163 A 
ATOM     24  C   UNL     1       1.168   2.419  -0.007  0.00  0.00    +0.181 A 
ATOM     25  C   UNL     1      -0.025   1.714   0.002  0.00  0.00    +0.086 A 
ATOM     26  C   UNL     1      -1.230   2.395   0.015  0.00  0.00    +0.028 A 
ATOM     27 CL   UNL     1      -0.008  -0.022  -0.009  0.00  0.00    -0.080 Cl
BRANCH  23  28
ATOM     28  O   UNL     1       2.319   4.507  -0.007  0.00  0.00    -0.491 OA
ATOM     29  C   UNL     1       2.224   5.933   0.003  0.00  0.00    +0.277 C 
ENDBRANCH  23  28
BRANCH  24  30
ATOM     30  O   UNL     1       2.354   1.753  -0.024  0.00  0.00    -0.474 OA
BRANCH  30  31
ATOM     31  C   UNL     1       2.905   1.442  -1.306  0.00  0.00    +0.317 C 
BRANCH  31  32
ATOM     32  C   UNL     1       4.179   0.726  -1.131  0.00  0.00    -0.065 C 
ATOM     33  C   UNL     1       5.195   0.155  -0.992  0.00  0.00    +0.007 C 
ENDBRANCH  31  32
ENDBRANCH  30  31
ENDBRANCH  24  30
ENDBRANCH   6  21
TORSDOF 5
