REMARK  Name = ZINC67564085
REMARK  4 active torsions:
REMARK  status: ('A' for Active; 'I' for Inactive)
REMARK    1  A    between atoms: C_3  and  C_8
REMARK    2  A    between atoms: C_11  and  N_13
REMARK    3  A    between atoms: N_16  and  C_17
REMARK    4  A    between atoms: C_17  and  C_18
REMARK                            x       y       z     vdW  Elec       q    Type
REMARK                         _______ _______ _______ _____ _____    ______ ____
ROOT
ATOM      1  N   UNL     1       4.913   3.403  -1.854  0.00  0.00    -0.296 N 
ATOM      2  C   UNL     1       5.555   3.331  -3.037  0.00  0.00    +0.300 C 
ATOM      3  O   UNL     1       5.455   2.332  -3.723  0.00  0.00    -0.253 OA
ATOM      4  N   UNL     1       6.306   4.367  -3.460  0.00  0.00    -0.295 N 
ATOM      5  H   UNL     1       4.992   4.200  -1.307  0.00  0.00    +0.151 HD
ATOM      6  H   UNL     1       6.386   5.164  -2.913  0.00  0.00    +0.151 HD
ENDROOT
BRANCH   1   9
ATOM      7  C   UNL     1       2.964   2.582  -0.411  0.00  0.00    +0.041 C 
ATOM      8  C   UNL     1       4.225   1.864   0.073  0.00  0.00    +0.033 C 
ATOM      9  C   UNL     1       4.096   2.278  -1.395  0.00  0.00    +0.082 C 
BRANCH   7  12
ATOM     10  C   UNL     1      -0.663   1.649  -0.894  0.00  0.00    +0.003 A 
ATOM     11  C   UNL     1       0.496   2.394  -0.785  0.00  0.00    +0.004 A 
ATOM     12  C   UNL     1       1.702   1.768  -0.529  0.00  0.00    -0.040 A 
ATOM     13  C   UNL     1       1.749   0.394  -0.382  0.00  0.00    +0.042 A 
ATOM     14  C   UNL     1       0.589  -0.354  -0.491  0.00  0.00    +0.124 A 
ATOM     15  C   UNL     1      -0.618   0.275  -0.747  0.00  0.00    +0.038 A 
ATOM     16  F   UNL     1       0.635  -1.696  -0.348  0.00  0.00    -0.205 F 
ENDBRANCH   7  12
ENDBRANCH   1   9
BRANCH   4  17
ATOM     17  C   UNL     1       7.004   4.288  -4.746  0.00  0.00    +0.142 C 
BRANCH  17  18
ATOM     18  C   UNL     1       7.768   5.566  -4.982  0.00  0.00    -0.014 A 
ATOM     19  C   UNL     1       7.165   6.634  -5.634  0.00  0.00    +0.010 A 
ATOM     20  C   UNL     1       7.901   7.788  -5.831  0.00  0.00    +0.042 A 
ATOM     21  C   UNL     1       9.213   7.840  -5.371  0.00  0.00    +0.099 A 
ATOM     22  N   UNL     1       9.752   6.801  -4.753  0.00  0.00    -0.349 N 
ATOM     23  C   UNL     1       9.072   5.689  -4.547  0.00  0.00    +0.089 A 
ATOM     24  N   UNL     1       9.964   8.994  -5.562  0.00  0.00    -0.317 N 
ATOM     25  C   UNL     1       9.312  10.164  -6.105  0.00  0.00    +0.106 C 
ATOM     26  C   UNL     1       9.395  10.134  -7.651  0.00  0.00    +0.019 C 
ATOM     27  C   UNL     1      10.773  10.394  -8.094  0.00  0.00    +0.002 C 
ATOM     28  C   UNL     1      11.786   9.347  -7.641  0.00  0.00    +0.002 C 
ATOM     29  C   UNL     1      12.268   9.685  -6.252  0.00  0.00    +0.019 C 
ATOM     30  C   UNL     1      11.394   8.976  -5.196  0.00  0.00    +0.106 C 
ATOM     31  H   UNL     1      10.669   6.859  -4.441  0.00  0.00    +0.167 HD
ENDBRANCH  17  18
ENDBRANCH   4  17
TORSDOF 4
