REMARK  Name = ZINC30513976
REMARK  9 active torsions:
REMARK  status: ('A' for Active; 'I' for Inactive)
REMARK    1  A    between atoms: C_1  and  C_2
REMARK    2  A    between atoms: C_2  and  C_4
REMARK    3  A    between atoms: C_2  and  N_15
REMARK    4  A    between atoms: N_6  and  C_7
REMARK    5  A    between atoms: C_12  and  O_13
REMARK    6  A    between atoms: O_13  and  C_14
REMARK    7  A    between atoms: N_15  and  C_16
REMARK    8  A    between atoms: C_16  and  C_17
REMARK    9  A    between atoms: C_17  and  N_22
REMARK                            x       y       z     vdW  Elec       q    Type
REMARK                         _______ _______ _______ _____ _____    ______ ____
ROOT
ATOM      1  N   UNL     1       3.608   1.700   0.096  0.00  0.00    +0.388 N 
ATOM      2  H   UNL     1       3.394   2.552  -0.566  0.00  0.00    -0.085 HD
ATOM      3  H   UNL     1       3.801   2.066   1.115  0.00  0.00    -0.085 HD
ENDROOT
BRANCH   1   5
ATOM      4  C   UNL     1       2.451  -0.006   1.418  0.00  0.00    -0.004 C 
ATOM      5  C   UNL     1       2.454   0.791   0.113  0.00  0.00    +0.013 C 
BRANCH   5   6
ATOM      6  C   UNL     1       1.182   1.593   0.011  0.00  0.00    +0.203 C 
ATOM      7  O   UNL     1       1.232   2.802  -0.068  0.00  0.00    -0.277 OA
ATOM      8  N   UNL     1      -0.011   0.966   0.007  0.00  0.00    -0.284 N 
ATOM      9  H   UNL     1      -0.055  -0.133  -0.011  0.00  0.00    +0.155 HD
BRANCH   8  10
ATOM     10  C   UNL     1      -1.196   1.714   0.028  0.00  0.00    +0.076 A 
ATOM     11  C   UNL     1      -1.198   2.998   0.553  0.00  0.00    +0.027 A 
ATOM     12  C   UNL     1      -2.367   3.736   0.567  0.00  0.00    +0.002 A 
ATOM     13  C   UNL     1      -3.537   3.194   0.068  0.00  0.00    +0.004 A 
ATOM     14  C   UNL     1      -3.543   1.913  -0.452  0.00  0.00    +0.047 A 
ATOM     15  C   UNL     1      -2.375   1.168  -0.474  0.00  0.00    +0.141 A 
BRANCH  15  16
ATOM     16  O   UNL     1      -2.380  -0.092  -0.985  0.00  0.00    -0.493 OA
ATOM     17  C   UNL     1      -3.625  -0.586  -1.482  0.00  0.00    +0.277 C 
ENDBRANCH  15  16
ENDBRANCH   8  10
ENDBRANCH   5   6
ENDBRANCH   1   5
BRANCH   1  18
ATOM     18  C   UNL     1       4.811   1.014  -0.394  0.00  0.00    -0.059 C 
BRANCH  18  19
ATOM     19  C   UNL     1       5.989   1.990  -0.397  0.00  0.00    +0.007 C 
ATOM     20  C   UNL     1       5.702   3.163  -1.357  0.00  0.00    +0.020 C 
ATOM     21  C   UNL     1       7.075   3.470  -2.003  0.00  0.00    +0.002 C 
ATOM     22  C   UNL     1       7.690   2.061  -2.188  0.00  0.00    +0.002 C 
ATOM     23  C   UNL     1       7.253   1.290  -0.925  0.00  0.00    +0.020 C 
BRANCH  19  24
ATOM     24  N   UNL     1       6.225   2.498   0.961  0.00  0.00    -0.297 NA
ATOM     25  C   UNL     1       6.690   1.428   1.848  0.00  0.00    +0.095 C 
ATOM     26  C   UNL     1       7.356   2.034   3.088  0.00  0.00    +0.084 C 
ATOM     27  S   UNL     1       6.118   3.029   3.975  0.00  0.00    -0.158 S 
ATOM     28  C   UNL     1       5.431   4.081   2.658  0.00  0.00    +0.084 C 
ATOM     29  C   UNL     1       5.039   3.184   1.479  0.00  0.00    +0.095 C 
ENDBRANCH  19  24
ENDBRANCH  18  19
ENDBRANCH   1  18
TORSDOF 7
