REMARK  Name = ZINC13500498
REMARK  16 active torsions:
REMARK  status: ('A' for Active; 'I' for Inactive)
REMARK    1  A    between atoms: C_1  and  C_2
REMARK    2  A    between atoms: C_2  and  C_3
REMARK    3  A    between atoms: C_3  and  C_4
REMARK    4  A    between atoms: C_3  and  C_5
REMARK    5  A    between atoms: C_3  and  N_6
REMARK    6  A    between atoms: C_7  and  C_11
REMARK    7  A    between atoms: C_11  and  C_13
REMARK    8  A    between atoms: C_11  and  N_74
REMARK    9  A    between atoms: C_13  and  C_14
REMARK   10  A    between atoms: C_13  and  C_15
REMARK   11  A    between atoms: C_16  and  C_17
REMARK   12  A    between atoms: C_16  and  N_74
REMARK   13  A    between atoms: C_17  and  C_18
REMARK   14  A    between atoms: C_24  and  C_25
REMARK   15  A    between atoms: C_24  and  N_74
REMARK   16  A    between atoms: C_31  and  C_37
REMARK                            x       y       z     vdW  Elec       q    Type
REMARK                         _______ _______ _______ _____ _____    ______ ____
ROOT
ATOM      1  N   UNL     1       0.478   0.621   3.985  0.00  0.00    +0.390 N 
ATOM      2  H   UNL     1       0.101   1.310   4.645  0.00  0.00    -0.080 HD
ENDROOT
BRANCH   1   3
ATOM      3  C   UNL     1       1.015   1.331   2.805  0.00  0.00    +0.006 C 
BRANCH   3   5
ATOM      4  N   UNL     1      -0.474   2.338   0.996  0.00  0.00    -0.225 N 
ATOM      5  C   UNL     1      -0.046   2.257   2.269  0.00  0.00    +0.139 A 
ATOM      6  N   UNL     1      -0.729   3.143   2.953  0.00  0.00    -0.115 NA
ATOM      7  N   UNL     1      -1.540   3.731   2.143  0.00  0.00    -0.023 NA
ATOM      8  N   UNL     1      -1.389   3.247   0.960  0.00  0.00    -0.043 NA
BRANCH   4   9
ATOM      9  C   UNL     1       0.004   1.539  -0.135  0.00  0.00    +0.061 C 
ATOM     10  C   UNL     1      -0.269   0.058   0.135  0.00  0.00    +0.036 C 
ATOM     11  C   UNL     1       1.508   1.757  -0.313  0.00  0.00    +0.036 C 
BRANCH   9  13
ATOM     12  C   UNL     1      -0.229   1.135  -2.590  0.00  0.00    +0.006 C 
ATOM     13  C   UNL     1      -0.728   1.969  -1.408  0.00  0.00    +0.026 C 
ENDBRANCH   9  13
ENDBRANCH   4   9
ENDBRANCH   3   5
BRANCH   3  14
ATOM     14  C   UNL     1       2.239   2.147   3.227  0.00  0.00    -0.024 C 
ATOM     15  C   UNL     1       2.776   2.921   2.022  0.00  0.00    +0.006 C 
ATOM     16  C   UNL     1       1.840   3.131   4.328  0.00  0.00    +0.006 C 
ENDBRANCH   3  14
ENDBRANCH   1   3
BRANCH   1  17
ATOM     17  C   UNL     1      -0.608  -0.293   3.572  0.00  0.00    -0.073 C 
BRANCH  17  18
ATOM     18  C   UNL     1      -1.897   0.516   3.418  0.00  0.00    +0.016 C 
BRANCH  18  19
ATOM     19  C   UNL     1      -3.050  -0.419   3.164  0.00  0.00    -0.049 A 
ATOM     20  C   UNL     1      -3.390  -0.763   1.869  0.00  0.00    +0.003 A 
ATOM     21  C   UNL     1      -4.445  -1.625   1.637  0.00  0.00    +0.000 A 
ATOM     22  C   UNL     1      -5.167  -2.136   2.699  0.00  0.00    +0.000 A 
ATOM     23  C   UNL     1      -4.831  -1.788   3.994  0.00  0.00    +0.000 A 
ATOM     24  C   UNL     1      -3.772  -0.930   4.227  0.00  0.00    +0.003 A 
ENDBRANCH  18  19
ENDBRANCH  17  18
ENDBRANCH   1  17
BRANCH   1  25
ATOM     25  C   UNL     1       1.556  -0.142   4.649  0.00  0.00    -0.037 C 
BRANCH  25  26
ATOM     26  C   UNL     1       1.005  -0.775   5.901  0.00  0.00    +0.001 A 
ATOM     27  C   UNL     1       0.592  -2.066   5.879  0.00  0.00    +0.017 A 
ATOM     28  C   UNL     1       0.066  -2.653   7.113  0.00  0.00    -0.001 A 
ATOM     29  C   UNL     1      -0.371  -3.981   7.154  0.00  0.00    +0.010 A 
ATOM     30  C   UNL     1      -0.860  -4.497   8.320  0.00  0.00    +0.001 A 
ATOM     31  C   UNL     1      -0.930  -3.715   9.465  0.00  0.00    +0.005 A 
ATOM     32  C   UNL     1      -0.506  -2.404   9.448  0.00  0.00    -0.026 A 
ATOM     33  C   UNL     1      -0.003  -1.857   8.272  0.00  0.00    +0.052 A 
ATOM     34  N   UNL     1       0.429  -0.548   8.226  0.00  0.00    -0.322 N 
ATOM     35  H   UNL     1       0.380  -0.001   9.026  0.00  0.00    +0.169 HD
ATOM     36  C   UNL     1       0.915  -0.019   7.090  0.00  0.00    +0.251 A 
ATOM     37  O   UNL     1       1.288   1.141   7.086  0.00  0.00    -0.268 OA
ATOM     38  C   UNL     1      -0.587  -1.566  10.698  0.00  0.00    +0.046 C 
ENDBRANCH  25  26
ENDBRANCH   1  25
TORSDOF 10
