REMARK  Name = ZINC13163358
REMARK  9 active torsions:
REMARK  status: ('A' for Active; 'I' for Inactive)
REMARK    1  A    between atoms: C_1  and  C_2
REMARK    2  A    between atoms: C_2  and  C_4
REMARK    3  A    between atoms: C_2  and  N_57
REMARK    4  A    between atoms: N_6  and  C_7
REMARK    5  A    between atoms: C_8  and  C_15
REMARK    6  A    between atoms: C_22  and  O_29
REMARK    7  A    between atoms: C_23  and  O_27
REMARK    8  A    between atoms: O_27  and  C_28
REMARK    9  A    between atoms: O_29  and  C_30
REMARK                            x       y       z     vdW  Elec       q    Type
REMARK                         _______ _______ _______ _____ _____    ______ ____
ROOT
ATOM      1  C   UNL     1       1.786   0.719   4.881  0.00  0.00    -0.004 C 
ATOM      2  C   UNL     1       1.770   2.248   4.932  0.00  0.00    +0.017 C 
ENDROOT
BRANCH   2  12
ATOM      3  C   UNL     1       4.098   2.080   5.582  0.00  0.00    -0.073 C 
ATOM      4  C   UNL     1       5.192   2.857   6.314  0.00  0.00    +0.017 C 
ATOM      5  C   UNL     1       4.812   3.042   7.761  0.00  0.00    -0.044 A 
ATOM      6  C   UNL     1       5.803   3.400   8.664  0.00  0.00    +0.053 A 
ATOM      7  C   UNL     1       5.499   3.584  10.000  0.00  0.00    +0.162 A 
ATOM      8  C   UNL     1       4.190   3.409  10.440  0.00  0.00    +0.162 A 
ATOM      9  C   UNL     1       3.206   3.050   9.537  0.00  0.00    +0.051 A 
ATOM     10  C   UNL     1       3.516   2.865   8.197  0.00  0.00    -0.057 A 
ATOM     11  C   UNL     1       2.408   2.471   7.255  0.00  0.00    -0.042 C 
ATOM     12  N   UNL     1       2.809   2.742   5.864  0.00  0.00    +0.390 N 
ATOM     13  H   UNL     1       2.917   3.755   5.737  0.00  0.00    -0.080 HD
BRANCH   8  14
ATOM     14  O   UNL     1       3.880   3.589  11.752  0.00  0.00    -0.491 OA
ATOM     15  C   UNL     1       2.516   3.391  12.129  0.00  0.00    +0.277 C 
ENDBRANCH   8  14
BRANCH   7  16
ATOM     16  O   UNL     1       6.475   3.934  10.881  0.00  0.00    -0.491 OA
ATOM     17  C   UNL     1       7.794   4.096  10.357  0.00  0.00    +0.277 C 
ENDBRANCH   7  16
ENDBRANCH   2  12
BRANCH   2  18
ATOM     18  C   UNL     1       2.046   2.799   3.557  0.00  0.00    +0.204 C 
ATOM     19  O   UNL     1       3.112   3.327   3.318  0.00  0.00    -0.277 OA
ATOM     20  N   UNL     1       1.109   2.707   2.593  0.00  0.00    -0.281 N 
ATOM     21  H   UNL     1       0.256   2.285   2.784  0.00  0.00    +0.155 HD
BRANCH  20  22
ATOM     22  C   UNL     1       1.363   3.214   1.328  0.00  0.00    +0.084 A 
ATOM     23  C   UNL     1       0.535   3.213   0.218  0.00  0.00    +0.068 A 
ATOM     24  C   UNL     1       1.046   3.823  -1.008  0.00  0.00    -0.023 A 
ATOM     25  C   UNL     1       2.291   4.324  -0.921  0.00  0.00    -0.004 A 
ATOM     26  S   UNL     1       2.794   3.999   0.751  0.00  0.00    -0.077 S 
ATOM     27  C   UNL     1       2.745   4.938  -2.218  0.00  0.00    +0.043 C 
ATOM     28  C   UNL     1       1.445   5.140  -3.029  0.00  0.00    +0.010 C 
ATOM     29  C   UNL     1       0.529   4.055  -2.429  0.00  0.00    +0.037 C 
BRANCH  23  30
ATOM     30  C   UNL     1      -0.808   2.627   0.273  0.00  0.00    +0.244 C 
ATOM     31  O   UNL     1      -0.972   1.453  -0.003  0.00  0.00    -0.270 OA
ATOM     32  N   UNL     1      -1.862   3.390   0.624  0.00  0.00    -0.325 N 
ATOM     33  H   UNL     1      -2.751   3.004   0.656  0.00  0.00    +0.145 HD
ATOM     34  H   UNL     1      -1.732   4.326   0.844  0.00  0.00    +0.145 HD
ENDBRANCH  23  30
ENDBRANCH  20  22
ENDBRANCH   2  18
TORSDOF 6
