REMARK  Name = ZINC59170897
REMARK  8 active torsions:
REMARK  status: ('A' for Active; 'I' for Inactive)
REMARK    1  A    between atoms: C_1  and  C_2
REMARK    2  A    between atoms: C_2  and  N_3
REMARK    3  A    between atoms: N_3  and  C_4
REMARK    4  A    between atoms: N_3  and  C_6
REMARK    5  A    between atoms: C_4  and  C_5
REMARK    6  A    between atoms: C_11  and  C_24
REMARK    7  A    between atoms: N_13  and  C_14
REMARK    8  A    between atoms: C_24  and  N_26
REMARK                            x       y       z     vdW  Elec       q    Type
REMARK                         _______ _______ _______ _____ _____    ______ ____
ROOT
ATOM      1  C   UNL     1       2.442  -0.760   0.386  0.00  0.00    +0.033 A 
ATOM      2  C   UNL     1       3.390  -0.431  -0.585  0.00  0.00    +0.024 A 
ATOM      3  C   UNL     1       4.719  -0.598  -0.337  0.00  0.00    +0.013 A 
ATOM      4  C   UNL     1       5.142  -1.114   0.898  0.00  0.00    +0.018 A 
ATOM      5  C   UNL     1       6.520  -1.326   1.153  0.00  0.00    +0.027 A 
ATOM      6  C   UNL     1       6.875  -2.020   2.302  0.00  0.00    +0.064 A 
ATOM      7  C   UNL     1       5.781  -2.516   3.160  0.00  0.00    +0.209 A 
ATOM      8  N   UNL     1       5.951  -3.557   3.948  0.00  0.00    -0.325 N 
ATOM      9  O   UNL     1       4.593  -1.860   3.109  0.00  0.00    -0.439 OA
ATOM     10  C   UNL     1       4.190  -1.419   1.892  0.00  0.00    +0.139 A 
ATOM     11  C   UNL     1       2.843  -1.245   1.624  0.00  0.00    +0.070 A 
ATOM     12  H   UNL     1       6.774  -4.069   3.904  0.00  0.00    +0.169 HD
ENDROOT
BRANCH   8  13
ATOM     13  C   UNL     1       4.968  -3.916   4.828  0.00  0.00    +0.043 A 
ATOM     14  C   UNL     1       4.325  -2.942   5.597  0.00  0.00    +0.026 A 
ATOM     15  C   UNL     1       3.335  -3.311   6.484  0.00  0.00    +0.003 A 
ATOM     16  C   UNL     1       2.978  -4.642   6.613  0.00  0.00    +0.020 A 
ATOM     17  C   UNL     1       3.610  -5.612   5.854  0.00  0.00    +0.043 A 
ATOM     18  C   UNL     1       4.599  -5.256   4.958  0.00  0.00    +0.045 A 
ATOM     19 CL   UNL     1       3.154  -7.278   6.024  0.00  0.00    -0.083 Cl
ENDBRANCH   8  13
BRANCH   6  20
ATOM     20  C   UNL     1       8.284  -2.252   2.650  0.00  0.00    +0.082 C 
ATOM     21  S   UNL     1       8.689  -2.973   4.149  0.00  0.00    -0.035 S 
BRANCH  20  22
ATOM     22  N   UNL     1       9.258  -1.898   1.788  0.00  0.00    -0.352 N 
ATOM     23  H   UNL     1       9.029  -1.490   0.938  0.00  0.00    +0.143 HD
ATOM     24  H   UNL     1      10.188  -2.051   2.017  0.00  0.00    +0.143 HD
ENDBRANCH  20  22
ENDBRANCH   6  20
BRANCH   1  25
ATOM     25  N   UNL     1       1.089  -0.596   0.114  0.00  0.00    -0.330 N 
BRANCH  25  27
ATOM     26  C   UNL     1       0.572   1.441  -1.136  0.00  0.00    +0.024 C 
ATOM     27  C   UNL     1       0.660  -0.085  -1.190  0.00  0.00    +0.102 C 
ENDBRANCH  25  27
BRANCH  25  28
ATOM     28  C   UNL     1       0.091  -0.935   1.132  0.00  0.00    +0.102 C 
ATOM     29  C   UNL     1      -0.318  -2.401   0.978  0.00  0.00    +0.024 C 
ENDBRANCH  25  28
ENDBRANCH   1  25
TORSDOF 6
