REMARK  Name = ZINC50362339
REMARK  7 active torsions:
REMARK  status: ('A' for Active; 'I' for Inactive)
REMARK    1  A    between atoms: C_1  and  C_2
REMARK    2  A    between atoms: C_8  and  N_10
REMARK    3  A    between atoms: N_10  and  C_11
REMARK    4  A    between atoms: N_10  and  C_12
REMARK    5  A    between atoms: C_12  and  C_14
REMARK    6  A    between atoms: C_12  and  C_16
REMARK    7  A    between atoms: C_14  and  N_15
REMARK                            x       y       z     vdW  Elec       q    Type
REMARK                         _______ _______ _______ _____ _____    ______ ____
ROOT
ATOM      1  C   UNL     1       0.694  -0.376   3.655  0.00  0.00    +0.105 C 
ENDROOT
BRANCH   1   2
ATOM      2  C   UNL     1      -0.296  -0.404   4.791  0.00  0.00    +0.123 A 
ATOM      3  C   UNL     1      -0.282  -1.263   5.825  0.00  0.00    +0.062 A 
ATOM      4  C   UNL     1      -1.383  -0.932   6.649  0.00  0.00    +0.070 A 
ATOM      5  C   UNL     1      -2.005   0.111   6.067  0.00  0.00    +0.184 A 
ATOM      6  O   UNL     1      -1.339   0.429   4.945  0.00  0.00    -0.450 OA
ATOM      7 BR   UNL     1      -3.550   0.983   6.721  0.00  0.00    -0.007 Br
ATOM      8 BR   UNL     1      -1.887  -1.791   8.257  0.00  0.00    -0.046 Br
ENDBRANCH   1   2
BRANCH   1   9
ATOM      9  N   UNL     1      -0.012  -0.102   2.397  0.00  0.00    -0.294 NA
ATOM     10  C   UNL     1      -0.297   1.333   2.255  0.00  0.00    +0.105 C 
BRANCH   9  17
ATOM     11  C   UNL     1      -0.636  -2.681   1.233  0.00  0.00    +0.009 C 
ATOM     12  C   UNL     1       0.791  -2.132   1.287  0.00  0.00    +0.003 C 
ATOM     13  C   UNL     1       1.585  -2.654   0.088  0.00  0.00    +0.005 C 
ATOM     14  C   UNL     1       0.911  -2.197  -1.208  0.00  0.00    +0.000 C 
ATOM     15  C   UNL     1       0.871  -0.668  -1.249  0.00  0.00    +0.002 C 
ATOM     16  C   UNL     1       0.077  -0.146  -0.050  0.00  0.00    +0.019 C 
ATOM     17  C   UNL     1       0.750  -0.603   1.245  0.00  0.00    +0.060 C 
ENDBRANCH   9  17
ENDBRANCH   1   9
BRANCH   1  18
ATOM     18  C   UNL     1       1.730   0.721   3.909  0.00  0.00    -0.059 C 
BRANCH  18  19
ATOM     19  N   UNL     1       2.636   0.814   2.756  0.00  0.00    +0.379 N 
ATOM     20  H   UNL     1       3.419   1.407   2.991  0.00  0.00    -0.090 HD
ATOM     21  H   UNL     1       2.972  -0.107   2.517  0.00  0.00    -0.090 HD
ATOM     22  H   UNL     1       2.142   1.207   1.970  0.00  0.00    -0.090 HD
ENDBRANCH  18  19
ENDBRANCH   1  18
TORSDOF 5
