REMARK  Name = ZINC43288869
REMARK  10 active torsions:
REMARK  status: ('A' for Active; 'I' for Inactive)
REMARK    1  A    between atoms: C_1  and  C_2
REMARK    2  A    between atoms: C_2  and  C_3
REMARK    3  A    between atoms: C_3  and  C_5
REMARK    4  A    between atoms: C_3  and  N_23
REMARK    5  A    between atoms: C_5  and  C_7
REMARK    6  A    between atoms: C_5  and  O_13
REMARK    7  A    between atoms: O_13  and  C_14
REMARK    8  A    between atoms: C_17  and  C_22
REMARK    9  A    between atoms: C_19  and  O_20
REMARK   10  A    between atoms: O_20  and  C_21
REMARK                            x       y       z     vdW  Elec       q    Type
REMARK                         _______ _______ _______ _____ _____    ______ ____
ROOT
ATOM      1  C   UNL     1      -1.407  -2.031  -0.248  0.00  0.00    +0.196 C 
ENDROOT
BRANCH   1   2
ATOM      2  C   UNL     1      -2.720  -2.704  -0.554  0.00  0.00    +0.029 A 
ATOM      3  C   UNL     1      -3.284  -2.968  -1.758  0.00  0.00    +0.030 A 
ATOM      4  C   UNL     1      -4.512  -3.604  -1.798  0.00  0.00    +0.025 A 
ATOM      5  C   UNL     1      -5.114  -3.944  -0.632  0.00  0.00    +0.060 A 
ATOM      6  S   UNL     1      -3.932  -3.369   0.576  0.00  0.00    -0.097 S 
ATOM      7 BR   UNL     1      -5.337  -3.992  -3.454  0.00  0.00    -0.050 Br
ENDBRANCH   1   2
BRANCH   1   8
ATOM      8  C   UNL     1      -1.660  -0.572   0.138  0.00  0.00    -0.029 C 
BRANCH   8   9
ATOM      9  N   UNL     1      -2.560  -0.521   1.297  0.00  0.00    +0.383 N 
ATOM     10  H   UNL     1      -3.436  -0.964   1.063  0.00  0.00    -0.089 HD
ATOM     11  H   UNL     1      -2.136  -1.006   2.074  0.00  0.00    -0.089 HD
ATOM     12  H   UNL     1      -2.727   0.441   1.552  0.00  0.00    -0.089 HD
ENDBRANCH   8   9
BRANCH   8  14
ATOM     13  C   UNL     1      -0.569   1.586   0.765  0.00  0.00    +0.002 C 
ATOM     14  C   UNL     1      -0.332   0.099   0.493  0.00  0.00    -0.016 C 
ENDBRANCH   8  14
ENDBRANCH   1   8
BRANCH   1  15
ATOM     15  O   UNL     1      -0.766  -2.706   0.836  0.00  0.00    -0.482 OA
BRANCH  15  16
ATOM     16  C   UNL     1      -0.029  -3.806   0.528  0.00  0.00    +0.163 A 
ATOM     17  C   UNL     1      -0.017  -4.294  -0.768  0.00  0.00    +0.050 A 
ATOM     18  C   UNL     1       0.734  -5.412  -1.079  0.00  0.00    +0.007 A 
ATOM     19  C   UNL     1       1.474  -6.046  -0.099  0.00  0.00    -0.047 A 
ATOM     20  C   UNL     1       1.466  -5.565   1.197  0.00  0.00    +0.052 A 
ATOM     21  C   UNL     1       0.721  -4.441   1.514  0.00  0.00    +0.162 A 
ATOM     22  C   UNL     1       2.290  -7.266  -0.443  0.00  0.00    +0.044 C 
BRANCH  21  23
ATOM     23  O   UNL     1       0.717  -3.962   2.787  0.00  0.00    -0.491 OA
ATOM     24  C   UNL     1       1.510  -4.665   3.747  0.00  0.00    +0.277 C 
ENDBRANCH  21  23
ENDBRANCH  15  16
ENDBRANCH   1  15
TORSDOF 7
