REMARK  Name = ZINC35597219
REMARK  7 active torsions:
REMARK  status: ('A' for Active; 'I' for Inactive)
REMARK    1  A    between atoms: C_1  and  N_2
REMARK    2  A    between atoms: C_9  and  C_11
REMARK    3  A    between atoms: C_11  and  C_13
REMARK    4  A    between atoms: C_11  and  N_26
REMARK    5  A    between atoms: C_13  and  N_14
REMARK    6  A    between atoms: N_17  and  C_18
REMARK    7  A    between atoms: C_18  and  C_19
REMARK                            x       y       z     vdW  Elec       q    Type
REMARK                         _______ _______ _______ _____ _____    ______ ____
ROOT
ATOM      1  C   UNL     1       0.132  -3.565   4.110  0.00  0.00    -0.020 C 
ENDROOT
BRANCH   1  10
ATOM      2  C   UNL     1       0.340   1.468  -0.356  0.00  0.00    +0.129 C 
ATOM      3  N   UNL     1       0.276   0.006  -0.291  0.00  0.00    -0.332 N 
ATOM      4  C   UNL     1       0.239  -0.886  -1.453  0.00  0.00    +0.109 C 
ATOM      5  C   UNL     1       0.176  -2.307  -0.870  0.00  0.00    +0.056 C 
ATOM      6  C   UNL     1       0.182  -2.102   0.629  0.00  0.00    -0.025 A 
ATOM      7  C   UNL     1       0.246  -0.742   0.888  0.00  0.00    +0.033 A 
ATOM      8  C   UNL     1       0.269  -0.305   2.214  0.00  0.00    +0.023 A 
ATOM      9  C   UNL     1       0.232  -1.217   3.247  0.00  0.00    +0.004 A 
ATOM     10  C   UNL     1       0.172  -2.571   2.978  0.00  0.00    -0.059 A 
ATOM     11  C   UNL     1       0.140  -3.012   1.667  0.00  0.00    +0.007 A 
ENDBRANCH   1  10
BRANCH   1  12
ATOM     12  N   UNL     1      -0.733  -3.053   5.181  0.00  0.00    +0.385 N 
ATOM     13  C   UNL     1      -2.115  -2.857   4.673  0.00  0.00    -0.078 C 
ATOM     14  C   UNL     1      -2.973  -2.880   5.963  0.00  0.00    -0.020 C 
ATOM     15  C   UNL     1      -2.275  -3.959   6.822  0.00  0.00    -0.020 C 
ATOM     16  C   UNL     1      -0.841  -4.049   6.269  0.00  0.00    -0.078 C 
ATOM     17  H   UNL     1      -0.366  -2.184   5.540  0.00  0.00    -0.081 HD
ENDBRANCH   1  12
BRANCH   1  18
ATOM     18  C   UNL     1       1.547  -3.776   4.654  0.00  0.00    +0.095 C 
BRANCH  18  19
ATOM     19  N   UNL     1       2.377  -4.406   3.624  0.00  0.00    -0.301 N 
ATOM     20  C   UNL     1       3.694  -4.593   3.841  0.00  0.00    +0.300 C 
ATOM     21  O   UNL     1       4.193  -4.238   4.892  0.00  0.00    -0.253 OA
ATOM     22  N   UNL     1       4.457  -5.173   2.894  0.00  0.00    -0.295 N 
ATOM     23  H   UNL     1       1.978  -4.690   2.786  0.00  0.00    +0.150 HD
ATOM     24  H   UNL     1       4.059  -5.456   2.057  0.00  0.00    +0.151 HD
BRANCH  22  25
ATOM     25  C   UNL     1       5.889  -5.376   3.130  0.00  0.00    +0.141 C 
BRANCH  25  26
ATOM     26  C   UNL     1       6.508  -6.038   1.926  0.00  0.00    -0.030 A 
ATOM     27  C   UNL     1       6.556  -7.417   1.845  0.00  0.00    +0.008 A 
ATOM     28  C   UNL     1       7.123  -8.025   0.741  0.00  0.00    +0.038 A 
ATOM     29  C   UNL     1       7.643  -7.253  -0.283  0.00  0.00    +0.123 A 
ATOM     30  C   UNL     1       7.594  -5.872  -0.201  0.00  0.00    +0.038 A 
ATOM     31  C   UNL     1       7.022  -5.266   0.901  0.00  0.00    +0.008 A 
ATOM     32  F   UNL     1       8.197  -7.847  -1.363  0.00  0.00    -0.205 F 
ENDBRANCH  25  26
ENDBRANCH  22  25
ENDBRANCH  18  19
ENDBRANCH   1  18
TORSDOF 6
