REMARK  Name = ZINC22494232
REMARK  2 active torsions:
REMARK  status: ('A' for Active; 'I' for Inactive)
REMARK    1  A    between atoms: C_11  and  C_13
REMARK    2  A    between atoms: C_22  and  C_25
REMARK                            x       y       z     vdW  Elec       q    Type
REMARK                         _______ _______ _______ _____ _____    ______ ____
ROOT
ATOM      1  C   UNL     1       4.119   5.897  -1.021  0.00  0.00    +0.078 C 
ATOM      2  C   UNL     1       3.188   6.219   0.151  0.00  0.00    +0.032 C 
ATOM      3  C   UNL     1       1.901   5.404   0.013  0.00  0.00    +0.107 C 
ATOM      4  N   UNL     1       2.226   3.972   0.002  0.00  0.00    -0.314 N 
ATOM      5  C   UNL     1       3.081   3.630  -1.142  0.00  0.00    +0.107 C 
ATOM      6  C   UNL     1       4.403   4.393  -1.039  0.00  0.00    +0.032 C 
ATOM      7  C   UNL     1       1.070   3.198   0.009  0.00  0.00    +0.144 A 
ATOM      8  C   UNL     1       1.162   1.804   0.001  0.00  0.00    +0.047 A 
ATOM      9  C   UNL     1      -0.013   1.076   0.008  0.00  0.00    +0.034 A 
ATOM     10  C   UNL     1      -1.223   1.782   0.017  0.00  0.00    +0.100 A 
ATOM     11  N   UNL     1      -1.212   3.110   0.030  0.00  0.00    -0.147 NA
ATOM     12  N   UNL     1      -0.119   3.782   0.024  0.00  0.00    -0.134 NA
ENDROOT
BRANCH   1  23
ATOM     13  C   UNL     1      10.900  10.091   0.178  0.00  0.00    +0.002 A 
ATOM     14  C   UNL     1      11.714   9.773  -0.900  0.00  0.00    +0.001 A 
ATOM     15  C   UNL     1      11.251   8.896  -1.863  0.00  0.00    +0.017 A 
ATOM     16  C   UNL     1       9.997   8.352  -1.737  0.00  0.00    +0.041 A 
ATOM     17  C   UNL     1       9.140   8.652  -0.654  0.00  0.00    +0.080 A 
ATOM     18  C   UNL     1       9.647   9.554   0.311  0.00  0.00    +0.029 A 
ATOM     19  N   UNL     1       7.935   8.043  -0.674  0.00  0.00    -0.225 NA
ATOM     20  C   UNL     1       7.579   7.217  -1.629  0.00  0.00    +0.165 A 
ATOM     21  S   UNL     1       9.015   7.220  -2.692  0.00  0.00    -0.052 S 
ATOM     22  N   UNL     1       6.389   6.522  -1.779  0.00  0.00    -0.264 N 
ATOM     23  C   UNL     1       5.413   6.652  -0.859  0.00  0.00    +0.222 C 
ATOM     24  O   UNL     1       5.576   7.377   0.100  0.00  0.00    -0.275 OA
ATOM     25  H   UNL     1       6.242   5.865  -2.648  0.00  0.00    +0.157 HD
ENDBRANCH   1  23
BRANCH  10  26
ATOM     26  C   UNL     1      -2.507   1.052   0.019  0.00  0.00    +0.039 A 
ATOM     27  C   UNL     1      -3.784   1.550   0.027  0.00  0.00    +0.018 A 
ATOM     28  C   UNL     1      -4.839   0.665   0.026  0.00  0.00    +0.008 A 
ATOM     29  C   UNL     1      -4.585  -0.669   0.017  0.00  0.00    +0.046 A 
ATOM     30  S   UNL     1      -2.800  -0.710   0.002  0.00  0.00    -0.095 S 
ENDBRANCH  10  26
TORSDOF 2
