REMARK  Name = ZINC09616455
REMARK  11 active torsions:
REMARK  status: ('A' for Active; 'I' for Inactive)
REMARK    1  A    between atoms: C_1  and  C_2
REMARK    2  A    between atoms: C_2  and  C_3
REMARK    3  A    between atoms: C_6  and  N_9
REMARK    4  A    between atoms: C_13  and  S_15
REMARK    5  A    between atoms: S_15  and  C_16
REMARK    6  A    between atoms: C_16  and  C_17
REMARK    7  A    between atoms: N_19  and  C_20
REMARK    8  A    between atoms: C_20  and  C_21
REMARK    9  A    between atoms: C_23  and  C_29
REMARK   10  A    between atoms: C_24  and  O_28
REMARK   11  A    between atoms: C_25  and  C_27
REMARK                            x       y       z     vdW  Elec       q    Type
REMARK                         _______ _______ _______ _____ _____    ______ ____
ROOT
ATOM      1  S   UNL     1      -1.590   7.533   8.011  0.00  0.00    -0.088 S 
ENDROOT
BRANCH   1   6
ATOM      2  N   UNL     1      -2.667   2.914   4.675  0.00  0.00    -0.292 N 
ATOM      3  C   UNL     1      -2.241   4.078   5.305  0.00  0.00    +0.187 A 
ATOM      4  N   UNL     1      -1.309   4.935   4.937  0.00  0.00    -0.125 NA
ATOM      5  N   UNL     1      -1.046   6.038   5.716  0.00  0.00    -0.133 NA
ATOM      6  C   UNL     1      -1.722   6.228   6.834  0.00  0.00    +0.160 A 
ATOM      7  S   UNL     1      -2.806   4.808   6.834  0.00  0.00    -0.024 S 
ATOM      8  H   UNL     1      -3.428   2.424   5.023  0.00  0.00    +0.154 HD
BRANCH   2  12
ATOM      9  C   UNL     1      -0.673   1.533   1.289  0.00  0.00    -0.048 A 
ATOM     10  C   UNL     1      -1.999   1.196   1.495  0.00  0.00    +0.005 A 
ATOM     11  C   UNL     1      -2.661   1.648   2.619  0.00  0.00    +0.023 A 
ATOM     12  C   UNL     1      -1.998   2.451   3.539  0.00  0.00    +0.033 A 
ATOM     13  C   UNL     1      -0.668   2.792   3.326  0.00  0.00    +0.023 A 
ATOM     14  C   UNL     1      -0.010   2.333   2.202  0.00  0.00    +0.005 A 
BRANCH   9  16
ATOM     15  C   UNL     1       0.710  -0.310   0.374  0.00  0.00    +0.009 C 
ATOM     16  C   UNL     1       0.048   1.034   0.064  0.00  0.00    +0.032 C 
ENDBRANCH   9  16
ENDBRANCH   2  12
ENDBRANCH   1   6
BRANCH   1  17
ATOM     17  C   UNL     1      -0.284   8.598   7.340  0.00  0.00    +0.172 C 
BRANCH  17  18
ATOM     18  C   UNL     1      -0.068   9.769   8.263  0.00  0.00    +0.224 C 
ATOM     19  O   UNL     1      -0.730   9.875   9.274  0.00  0.00    -0.275 OA
ATOM     20  N   UNL     1       0.861  10.699   7.966  0.00  0.00    -0.311 N 
ATOM     21  H   UNL     1       1.391  10.615   7.158  0.00  0.00    +0.149 HD
BRANCH  20  22
ATOM     22  C   UNL     1       1.071  11.838   8.863  0.00  0.00    +0.139 C 
BRANCH  22  23
ATOM     23  C   UNL     1       2.156  12.723   8.306  0.00  0.00    -0.030 A 
ATOM     24  C   UNL     1       3.475  12.504   8.660  0.00  0.00    +0.012 A 
ATOM     25  C   UNL     1       4.472  13.310   8.147  0.00  0.00    -0.008 A 
ATOM     26  C   UNL     1       4.149  14.347   7.284  0.00  0.00    +0.123 A 
ATOM     27  C   UNL     1       2.824  14.569   6.935  0.00  0.00    -0.008 A 
ATOM     28  C   UNL     1       1.831  13.756   7.447  0.00  0.00    +0.012 A 
ATOM     29  C   UNL     1       2.469  15.695   5.999  0.00  0.00    +0.047 C 
ATOM     30  C   UNL     1       5.910  13.067   8.528  0.00  0.00    +0.047 C 
BRANCH  26  31
ATOM     31  O   UNL     1       5.127  15.145   6.782  0.00  0.00    -0.506 OA
ATOM     32  H   UNL     1       5.320  15.921   7.325  0.00  0.00    +0.292 HD
ENDBRANCH  26  31
ENDBRANCH  22  23
ENDBRANCH  20  22
ENDBRANCH  17  18
ENDBRANCH   1  17
TORSDOF 8
