REMARK  Name = ZINC64938685
REMARK  8 active torsions:
REMARK  status: ('A' for Active; 'I' for Inactive)
REMARK    1  A    between atoms: C_1  and  C_2
REMARK    2  A    between atoms: C_2  and  C_3
REMARK    3  A    between atoms: C_3  and  C_4
REMARK    4  A    between atoms: C_4  and  C_5
REMARK    5  A    between atoms: C_5  and  N_6
REMARK    6  A    between atoms: N_9  and  N_10
REMARK    7  A    between atoms: N_10  and  S_11
REMARK    8  A    between atoms: S_11  and  C_14
REMARK                            x       y       z     vdW  Elec       q    Type
REMARK                         _______ _______ _______ _____ _____    ______ ____
ROOT
ATOM      1  S   UNL     1       0.331  -7.848  -2.825  0.00  0.00    +0.074 S 
ATOM      2  O   UNL     1       0.042  -8.489  -1.589  0.00  0.00    -0.152 OA
ATOM      3  O   UNL     1      -0.670  -7.205  -3.602  0.00  0.00    -0.152 OA
ENDROOT
BRANCH   1   4
ATOM      4  C   UNL     1       1.070  -9.066  -3.862  0.00  0.00    +0.115 A 
ATOM      5  C   UNL     1       1.234 -10.352  -3.424  0.00  0.00    +0.031 A 
ATOM      6  C   UNL     1       1.812 -11.356  -4.201  0.00  0.00    +0.026 A 
ATOM      7  C   UNL     1       2.251 -11.073  -5.481  0.00  0.00    +0.042 A 
ATOM      8  C   UNL     1       2.077  -9.762  -5.912  0.00  0.00    +0.017 A 
ATOM      9  C   UNL     1       1.498  -8.740  -5.160  0.00  0.00    +0.011 A 
ATOM     10  C   UNL     1       1.399  -7.475  -5.764  0.00  0.00    +0.010 A 
ATOM     11  C   UNL     1       1.862  -7.313  -7.042  0.00  0.00    +0.001 A 
ATOM     12  C   UNL     1       2.434  -8.347  -7.783  0.00  0.00    +0.014 A 
ATOM     13  C   UNL     1       2.559  -9.605  -7.220  0.00  0.00    +0.047 A 
ATOM     14  C   UNL     1       3.058 -10.937  -7.583  0.00  0.00    +0.249 C 
ATOM     15  O   UNL     1       3.566 -11.246  -8.645  0.00  0.00    -0.270 OA
ATOM     16  N   UNL     1       2.853 -11.765  -6.525  0.00  0.00    -0.281 N 
ATOM     17  H   UNL     1       3.092 -12.705  -6.501  0.00  0.00    +0.155 HD
ENDBRANCH   1   4
BRANCH   1  18
ATOM     18  N   UNL     1       1.489  -6.708  -2.507  0.00  0.00    -0.107 NA
ATOM     19  H   UNL     1       1.761  -6.535  -1.592  0.00  0.00    +0.172 HD
BRANCH  18  23
ATOM     20  N   UNL     1       1.475  -3.986  -2.532  0.00  0.00    -0.298 N 
ATOM     21  C   UNL     1       2.058  -4.646  -3.552  0.00  0.00    +0.315 C 
ATOM     22  O   UNL     1       2.567  -4.026  -4.465  0.00  0.00    -0.251 OA
ATOM     23  N   UNL     1       2.076  -5.994  -3.559  0.00  0.00    -0.216 N 
ATOM     24  H   UNL     1       1.069  -4.480  -1.803  0.00  0.00    +0.150 HD
ATOM     25  H   UNL     1       2.496  -6.469  -4.294  0.00  0.00    +0.172 HD
BRANCH  20  26
ATOM     26  C   UNL     1       1.455  -2.521  -2.524  0.00  0.00    +0.106 C 
BRANCH  26  27
ATOM     27  C   UNL     1       0.739  -2.027  -1.265  0.00  0.00    +0.019 C 
BRANCH  27  28
ATOM     28  C   UNL     1       0.718  -0.497  -1.257  0.00  0.00    +0.001 C 
BRANCH  28  30
ATOM     29  C   UNL     1      -0.019   1.526   0.010  0.00  0.00    +0.004 C 
ATOM     30  C   UNL     1       0.002  -0.004   0.002  0.00  0.00    -0.003 C 
ENDBRANCH  28  30
ENDBRANCH  27  28
ENDBRANCH  26  27
ENDBRANCH  20  26
ENDBRANCH  18  23
ENDBRANCH   1  18
TORSDOF 7
