REMARK  Name = ZINC66427660
REMARK  5 active torsions:
REMARK  status: ('A' for Active; 'I' for Inactive)
REMARK    1  A    between atoms: C_5  and  C_7
REMARK    2  A    between atoms: C_7  and  C_12
REMARK    3  A    between atoms: N_14  and  C_15
REMARK    4  A    between atoms: C_15  and  C_16
REMARK    5  A    between atoms: C_20  and  C_22
REMARK                            x       y       z     vdW  Elec       q    Type
REMARK                         _______ _______ _______ _____ _____    ______ ____
ROOT
ATOM      1  C   UNL     1       1.852  -2.686  -1.299  0.00  0.00    +0.224 C 
ATOM      2  O   UNL     1       1.189  -3.327  -2.088  0.00  0.00    -0.275 OA
ATOM      3  N   UNL     1       3.147  -2.422  -1.565  0.00  0.00    -0.307 N 
ATOM      4  H   UNL     1       3.696  -1.974  -0.904  0.00  0.00    +0.149 HD
ENDROOT
BRANCH   1   5
ATOM      5  C   UNL     1       1.228  -2.186  -0.022  0.00  0.00    +0.074 C 
ATOM      6  C   UNL     1       2.034  -2.683   1.190  0.00  0.00    +0.021 C 
ATOM      7  C   UNL     1       1.072  -3.542   2.037  0.00  0.00    +0.001 C 
ATOM      8  C   UNL     1      -0.009  -4.006   1.030  0.00  0.00    +0.001 C 
ATOM      9  C   UNL     1      -0.196  -2.759   0.130  0.00  0.00    +0.021 C 
BRANCH   5  14
ATOM     10  C   UNL     1       1.539   1.403  -1.154  0.00  0.00    +0.000 A 
ATOM     11  C   UNL     1       1.094   2.086  -0.037  0.00  0.00    +0.003 A 
ATOM     12  C   UNL     1       0.692   1.387   1.086  0.00  0.00    +0.038 A 
ATOM     13  C   UNL     1       0.735   0.003   1.092  0.00  0.00    +0.128 A 
ATOM     14  C   UNL     1       1.180  -0.679  -0.028  0.00  0.00    +0.003 A 
ATOM     15  C   UNL     1       1.582   0.021  -1.149  0.00  0.00    +0.007 A 
ATOM     16  F   UNL     1       0.343  -0.680   2.189  0.00  0.00    -0.205 F 
ENDBRANCH   5  14
ENDBRANCH   1   5
BRANCH   3  17
ATOM     17  C   UNL     1       3.724  -2.813  -2.854  0.00  0.00    +0.180 C 
BRANCH  17  18
ATOM     18  C   UNL     1       5.175  -2.407  -2.898  0.00  0.00    +0.143 A 
ATOM     19  N   UNL     1       6.222  -3.195  -2.596  0.00  0.00    -0.261 N 
ATOM     20  H   UNL     1       6.188  -4.122  -2.312  0.00  0.00    +0.190 HD
ATOM     21  N   UNL     1       7.375  -2.413  -2.774  0.00  0.00    -0.152 NA
ATOM     22  C   UNL     1       6.969  -1.223  -3.164  0.00  0.00    +0.188 A 
ATOM     23  N   UNL     1       5.630  -1.231  -3.242  0.00  0.00    -0.209 NA
BRANCH  22  24
ATOM     24  C   UNL     1       7.843  -0.071  -3.471  0.00  0.00    +0.058 A 
ATOM     25  C   UNL     1       9.209   0.011  -3.427  0.00  0.00    +0.019 A 
ATOM     26  C   UNL     1       9.812   1.204  -3.761  0.00  0.00    +0.008 A 
ATOM     27  C   UNL     1       9.037   2.259  -4.122  0.00  0.00    +0.046 A 
ATOM     28  S   UNL     1       7.393   1.573  -4.004  0.00  0.00    -0.093 S 
ENDBRANCH  22  24
ENDBRANCH  17  18
ENDBRANCH   3  17
TORSDOF 5
