REMARK  Name = ZINC36531474
REMARK  15 active torsions:
REMARK  status: ('A' for Active; 'I' for Inactive)
REMARK    1  A    between atoms: C_1  and  C_2
REMARK    2  A    between atoms: C_2  and  C_3
REMARK    3  A    between atoms: C_2  and  C_4
REMARK    4  A    between atoms: C_2  and  C_5
REMARK    5  A    between atoms: C_5  and  C_6
REMARK    6  A    between atoms: C_6  and  C_7
REMARK    7  A    between atoms: C_6  and  C_8
REMARK    8  A    between atoms: C_6  and  N_9
REMARK    9  A    between atoms: C_10  and  C_12
REMARK   10  A    between atoms: C_12  and  C_14
REMARK   11  A    between atoms: C_12  and  N_21
REMARK   12  A    between atoms: N_21  and  C_22
REMARK   13  A    between atoms: C_23  and  C_25
REMARK   14  A    between atoms: C_29  and  O_32
REMARK   15  A    between atoms: C_30  and  O_31
REMARK                            x       y       z     vdW  Elec       q    Type
REMARK                         _______ _______ _______ _____ _____    ______ ____
ROOT
ATOM      1  C   UNL     1       5.357  -0.757  -4.365  0.00  0.00    +0.192 C 
ENDROOT
BRANCH   1   2
ATOM      2  C   UNL     1       4.452   0.127  -5.184  0.00  0.00    -0.018 A 
ATOM      3  C   UNL     1       3.583  -0.435  -6.101  0.00  0.00    +0.007 A 
ATOM      4  C   UNL     1       2.753   0.376  -6.853  0.00  0.00    +0.020 A 
ATOM      5  C   UNL     1       2.792   1.748  -6.687  0.00  0.00    +0.041 A 
ATOM      6  C   UNL     1       3.662   2.310  -5.770  0.00  0.00    +0.020 A 
ATOM      7  C   UNL     1       4.488   1.498  -5.015  0.00  0.00    +0.007 A 
ATOM      8 CL   UNL     1       1.750   2.767  -7.631  0.00  0.00    -0.084 Cl
ENDBRANCH   1   2
BRANCH   1  10
ATOM      9  N   UNL     1       4.007  -0.532  -2.305  0.00  0.00    -0.308 N 
ATOM     10  C   UNL     1       5.208  -0.414  -2.906  0.00  0.00    +0.238 C 
ATOM     11  O   UNL     1       6.168  -0.032  -2.271  0.00  0.00    -0.273 OA
ATOM     12  H   UNL     1       3.239  -0.838  -2.813  0.00  0.00    +0.149 HD
BRANCH   9  13
ATOM     13  C   UNL     1       3.861  -0.199  -0.886  0.00  0.00    +0.030 C 
ATOM     14  C   UNL     1       4.411   1.206  -0.634  0.00  0.00    +0.031 C 
ATOM     15  C   UNL     1       4.640  -1.210  -0.042  0.00  0.00    +0.031 C 
BRANCH  13  16
ATOM     16  C   UNL     1       2.381  -0.244  -0.501  0.00  0.00    +0.031 C 
BRANCH  16  18
ATOM     17  C   UNL     1       1.296  -0.610  -2.721  0.00  0.00    +0.010 C 
ATOM     18  C   UNL     1       1.546   0.406  -1.605  0.00  0.00    -0.036 C 
ATOM     19  C   UNL     1       2.301   1.610  -2.173  0.00  0.00    +0.010 C 
ATOM     20  C   UNL     1       0.208   0.869  -1.027  0.00  0.00    +0.010 C 
ENDBRANCH  16  18
ENDBRANCH  13  16
ENDBRANCH   9  13
ENDBRANCH   1  10
BRANCH   1  21
ATOM     21  N   UNL     1       6.748  -0.547  -4.777  0.00  0.00    -0.285 N 
ATOM     22  C   UNL     1       7.414   0.724  -4.484  0.00  0.00    +0.133 C 
ATOM     23  C   UNL     1       7.414  -1.524  -5.424  0.00  0.00    +0.251 C 
ATOM     24  O   UNL     1       6.834  -2.542  -5.751  0.00  0.00    -0.270 OA
BRANCH  23  25
ATOM     25  C   UNL     1       8.847  -1.358  -5.736  0.00  0.00    +0.082 A 
ATOM     26  C   UNL     1       9.749  -1.006  -4.728  0.00  0.00    +0.017 A 
ATOM     27  C   UNL     1      11.085  -0.852  -5.022  0.00  0.00    +0.005 A 
ATOM     28  C   UNL     1      11.544  -1.046  -6.315  0.00  0.00    +0.049 A 
ATOM     29  C   UNL     1      10.663  -1.394  -7.325  0.00  0.00    +0.159 A 
ATOM     30  C   UNL     1       9.310  -1.559  -7.041  0.00  0.00    +0.171 A 
BRANCH  30  31
ATOM     31  O   UNL     1       8.444  -1.907  -8.027  0.00  0.00    -0.503 OA
ATOM     32  H   UNL     1       8.055  -1.154  -8.492  0.00  0.00    +0.292 HD
ENDBRANCH  30  31
BRANCH  29  33
ATOM     33  O   UNL     1      11.120  -1.582  -8.592  0.00  0.00    -0.503 OA
ATOM     34  H   UNL     1      11.389  -2.491  -8.782  0.00  0.00    +0.292 HD
ENDBRANCH  29  33
ENDBRANCH  23  25
ENDBRANCH   1  21
TORSDOF 9
