REMARK  Name = ZINC00471789
REMARK  4 active torsions:
REMARK  status: ('A' for Active; 'I' for Inactive)
REMARK    1  A    between atoms: C_1  and  C_2
REMARK    2  A    between atoms: C_2  and  C_4
REMARK    3  A    between atoms: C_2  and  C_13
REMARK    4  A    between atoms: C_7  and  N_10
REMARK                            x       y       z     vdW  Elec       q    Type
REMARK                         _______ _______ _______ _____ _____    ______ ____
ROOT
ATOM      1  C   UNL     1      -0.896   1.008  -2.208  0.00  0.00    +0.227 C 
ATOM      2  O   UNL     1      -0.580  -0.125  -1.909  0.00  0.00    -0.275 OA
ATOM      3  N   UNL     1      -0.411   2.050  -1.504  0.00  0.00    -0.271 N 
ATOM      4  C   UNL     1      -0.696   3.429  -1.920  0.00  0.00    +0.114 C 
ATOM      5  C   UNL     1       0.612   4.227  -1.828  0.00  0.00    +0.024 C 
ATOM      6  C   UNL     1       1.068   4.261  -0.370  0.00  0.00    +0.038 C 
ATOM      7  C   UNL     1       1.098   2.870   0.207  0.00  0.00    -0.026 A 
ATOM      8  C   UNL     1       0.373   1.835  -0.362  0.00  0.00    +0.039 A 
ATOM      9  C   UNL     1       0.418   0.564   0.199  0.00  0.00    +0.024 A 
ATOM     10  C   UNL     1       1.187   0.331   1.323  0.00  0.00    +0.002 A 
ATOM     11  C   UNL     1       1.912   1.364   1.888  0.00  0.00    +0.000 A 
ATOM     12  C   UNL     1       1.868   2.628   1.332  0.00  0.00    +0.005 A 
ENDROOT
BRANCH   1  14
ATOM     13  C   UNL     1      -3.177   1.750  -2.837  0.00  0.00    +0.022 C 
ATOM     14  C   UNL     1      -1.830   1.250  -3.365  0.00  0.00    +0.102 C 
BRANCH  14  15
ATOM     15  C   UNL     1      -2.035  -0.037  -4.123  0.00  0.00    -0.036 A 
ATOM     16  C   UNL     1      -2.568  -1.139  -3.482  0.00  0.00    +0.006 A 
ATOM     17  C   UNL     1      -2.760  -2.318  -4.179  0.00  0.00    +0.033 A 
ATOM     18  C   UNL     1      -2.409  -2.397  -5.514  0.00  0.00    +0.126 A 
ATOM     19  C   UNL     1      -1.871  -1.295  -6.153  0.00  0.00    +0.033 A 
ATOM     20  C   UNL     1      -1.684  -0.115  -5.458  0.00  0.00    +0.006 A 
BRANCH  18  21
ATOM     21  N   UNL     1      -2.610  -3.660  -6.259  0.00  0.00    +0.056 N 
ATOM     22  O   UNL     1      -2.301  -3.729  -7.435  0.00  0.00    -0.126 OA
ATOM     23  O   UNL     1      -3.084  -4.630  -5.696  0.00  0.00    -0.126 OA
ENDBRANCH  18  21
ENDBRANCH  14  15
ENDBRANCH   1  14
TORSDOF 3
