REMARK  Name = ZINC40731112
REMARK  11 active torsions:
REMARK  status: ('A' for Active; 'I' for Inactive)
REMARK    1  A    between atoms: C_1  and  C_2
REMARK    2  A    between atoms: C_2  and  C_3
REMARK    3  A    between atoms: C_2  and  O_4
REMARK    4  A    between atoms: O_4  and  C_5
REMARK    5  A    between atoms: C_8  and  C_12
REMARK    6  A    between atoms: C_12  and  N_13
REMARK    7  A    between atoms: N_13  and  C_14
REMARK    8  A    between atoms: C_14  and  C_15
REMARK    9  A    between atoms: C_15  and  C_16
REMARK   10  A    between atoms: C_19  and  O_22
REMARK   11  A    between atoms: O_22  and  C_23
REMARK                            x       y       z     vdW  Elec       q    Type
REMARK                         _______ _______ _______ _____ _____    ______ ____
ROOT
ATOM      1  N   UNL     1       6.675  -2.203  -0.589  0.00  0.00    +0.382 N 
ATOM      2  H   UNL     1       6.285  -2.443   0.309  0.00  0.00    -0.085 HD
ATOM      3  H   UNL     1       6.326  -2.840  -1.289  0.00  0.00    -0.085 HD
ENDROOT
BRANCH   1   4
ATOM      4  C   UNL     1       6.288  -0.830  -0.940  0.00  0.00    -0.047 C 
BRANCH   4   8
ATOM      5  C   UNL     1       2.026  -0.553  -1.118  0.00  0.00    +0.139 A 
ATOM      6  C   UNL     1       2.690  -0.309   0.076  0.00  0.00    +0.047 A 
ATOM      7  C   UNL     1       4.067  -0.399   0.130  0.00  0.00    +0.005 A 
ATOM      8  C   UNL     1       4.785  -0.732  -1.003  0.00  0.00    -0.063 A 
ATOM      9  C   UNL     1       4.127  -0.976  -2.195  0.00  0.00    +0.025 A 
ATOM     10  C   UNL     1       2.748  -0.893  -2.253  0.00  0.00    +0.083 A 
ATOM     11 CL   UNL     1       1.922  -1.206  -3.748  0.00  0.00    -0.080 Cl
BRANCH   5  12
ATOM     12  O   UNL     1       0.671  -0.465  -1.174  0.00  0.00    -0.488 OA
BRANCH  12  14
ATOM     13  C   UNL     1      -0.050   1.265   0.351  0.00  0.00    +0.051 C 
ATOM     14  C   UNL     1      -0.016  -0.236   0.058  0.00  0.00    +0.167 C 
ATOM     15  C   UNL     1      -1.446  -0.768  -0.049  0.00  0.00    +0.051 C 
ENDBRANCH  12  14
ENDBRANCH   5  12
ENDBRANCH   4   8
ENDBRANCH   1   4
BRANCH   1  16
ATOM     16  C   UNL     1       8.140  -2.297  -0.528  0.00  0.00    -0.077 C 
BRANCH  16  17
ATOM     17  C   UNL     1       8.543  -3.727  -0.163  0.00  0.00    +0.016 C 
BRANCH  17  18
ATOM     18  C   UNL     1      10.046  -3.825  -0.100  0.00  0.00    -0.049 A 
ATOM     19  C   UNL     1      10.764  -4.152  -1.234  0.00  0.00    +0.007 A 
ATOM     20  C   UNL     1      12.142  -4.243  -1.179  0.00  0.00    +0.046 A 
ATOM     21  C   UNL     1      12.804  -4.004   0.016  0.00  0.00    +0.120 A 
ATOM     22  C   UNL     1      12.081  -3.675   1.153  0.00  0.00    +0.046 A 
ATOM     23  C   UNL     1      10.704  -3.580   1.092  0.00  0.00    +0.007 A 
BRANCH  21  24
ATOM     24  O   UNL     1      14.159  -4.092   0.073  0.00  0.00    -0.495 OA
ATOM     25  C   UNL     1      14.774  -3.833   1.337  0.00  0.00    +0.277 C 
ENDBRANCH  21  24
ENDBRANCH  17  18
ENDBRANCH  16  17
ENDBRANCH   1  16
TORSDOF 8
