REMARK  Name = ZINC35799527
REMARK  8 active torsions:
REMARK  status: ('A' for Active; 'I' for Inactive)
REMARK    1  A    between atoms: C_4  and  C_7
REMARK    2  A    between atoms: C_7  and  N_8
REMARK    3  A    between atoms: N_8  and  C_9
REMARK    4  A    between atoms: C_9  and  C_10
REMARK    5  A    between atoms: C_15  and  C_17
REMARK    6  A    between atoms: C_17  and  N_18
REMARK    7  A    between atoms: N_18  and  C_19
REMARK    8  A    between atoms: N_27  and  C_28
REMARK                            x       y       z     vdW  Elec       q    Type
REMARK                         _______ _______ _______ _____ _____    ______ ____
ROOT
ATOM      1  N   UNL     1       6.244   0.846   3.843  0.00  0.00    -0.274 N 
ATOM      2  C   UNL     1       7.556   0.679   3.583  0.00  0.00    +0.303 C 
ATOM      3  O   UNL     1       7.931  -0.285   2.945  0.00  0.00    -0.253 OA
ATOM      4  N   UNL     1       8.451   1.583   4.030  0.00  0.00    -0.294 N 
ATOM      5  H   UNL     1       8.161   2.311   4.601  0.00  0.00    +0.151 HD
ENDROOT
BRANCH   4   6
ATOM      6  C   UNL     1       9.861   1.464   3.653  0.00  0.00    +0.037 C 
ATOM      7  C   UNL     1       9.991   1.538   2.130  0.00  0.00    +0.029 C 
ATOM      8  C   UNL     1      11.464   1.414   1.736  0.00  0.00    -0.008 C 
ATOM      9  C   UNL     1      12.259   2.556   2.372  0.00  0.00    +0.007 C 
ATOM     10  C   UNL     1      12.130   2.482   3.894  0.00  0.00    -0.008 C 
ATOM     11  C   UNL     1      10.657   2.606   4.288  0.00  0.00    +0.029 C 
ATOM     12  C   UNL     1      12.679   1.142   4.388  0.00  0.00    +0.007 C 
ATOM     13  C   UNL     1      11.883  -0.000   3.753  0.00  0.00    -0.008 C 
ATOM     14  C   UNL     1      12.012   0.074   2.230  0.00  0.00    +0.007 C 
ATOM     15  C   UNL     1      10.410   0.124   4.147  0.00  0.00    +0.029 C 
ENDBRANCH   4   6
BRANCH   1  16
ATOM     16  C   UNL     1       5.777   2.064   4.510  0.00  0.00    +0.078 C 
ATOM     17  C   UNL     1       4.881   2.856   3.556  0.00  0.00    +0.022 C 
ATOM     18  C   UNL     1       4.394   4.129   4.252  0.00  0.00    +0.002 C 
ATOM     19  C   UNL     1       3.600   3.753   5.504  0.00  0.00    +0.000 C 
ATOM     20  C   UNL     1       4.496   2.961   6.458  0.00  0.00    +0.002 C 
ATOM     21  C   UNL     1       4.983   1.688   5.762  0.00  0.00    +0.022 C 
ENDBRANCH   1  16
BRANCH   1  22
ATOM     22  C   UNL     1       5.284  -0.192   3.459  0.00  0.00    +0.205 C 
BRANCH  22  24
ATOM     23  N   UNL     1       3.885  -0.753   1.498  0.00  0.00    -0.291 N 
ATOM     24  C   UNL     1       4.783   0.077   2.064  0.00  0.00    +0.234 C 
ATOM     25  O   UNL     1       5.188   1.042   1.450  0.00  0.00    -0.274 OA
BRANCH  23  26
ATOM     26  C   UNL     1       3.398  -0.491   0.141  0.00  0.00    +0.143 C 
BRANCH  26  30
ATOM     27  C   UNL     1      -0.078   1.985   0.327  0.00  0.00    +0.000 A 
ATOM     28  C   UNL     1       1.176   2.560   0.238  0.00  0.00    +0.000 A 
ATOM     29  C   UNL     1       2.301   1.759   0.178  0.00  0.00    +0.005 A 
ATOM     30  C   UNL     1       2.172   0.383   0.207  0.00  0.00    -0.030 A 
ATOM     31  C   UNL     1       0.918  -0.192   0.297  0.00  0.00    +0.005 A 
ATOM     32  C   UNL     1      -0.207   0.609   0.355  0.00  0.00    +0.000 A 
ENDBRANCH  26  30
ENDBRANCH  23  26
BRANCH  23  33
ATOM     33  C   UNL     1       3.396  -1.918   2.239  0.00  0.00    +0.150 C 
BRANCH  33  34
ATOM     34  C   UNL     1       4.287  -3.101   1.962  0.00  0.00    +0.007 A 
ATOM     35  C   UNL     1       5.396  -3.508   2.626  0.00  0.00    +0.013 A 
ATOM     36  C   UNL     1       6.063  -4.637   2.188  0.00  0.00    +0.008 A 
ATOM     37  C   UNL     1       5.589  -5.303   1.107  0.00  0.00    +0.045 A 
ATOM     38  S   UNL     1       4.153  -4.333   0.677  0.00  0.00    -0.100 S 
ENDBRANCH  33  34
ENDBRANCH  23  33
ENDBRANCH  22  24
ENDBRANCH   1  22
TORSDOF 8
