REMARK  Name = ZINC08861134
REMARK  7 active torsions:
REMARK  status: ('A' for Active; 'I' for Inactive)
REMARK    1  A    between atoms: C_1  and  C_2
REMARK    2  A    between atoms: C_2  and  O_3
REMARK    3  A    between atoms: O_3  and  C_4
REMARK    4  A    between atoms: C_7  and  C_11
REMARK    5  A    between atoms: N_12  and  N_13
REMARK    6  A    between atoms: N_13  and  S_14
REMARK    7  A    between atoms: S_14  and  C_17
REMARK                            x       y       z     vdW  Elec       q    Type
REMARK                         _______ _______ _______ _____ _____    ______ ____
ROOT
ATOM      1  N   UNL     1       1.048   8.184   1.616  0.00  0.00    -0.137 N 
ATOM      2  H   UNL     1       0.317   8.717   1.964  0.00  0.00    +0.197 HD
ENDROOT
BRANCH   1   3
ATOM      3  S   UNL     1       1.040   7.702   0.031  0.00  0.00    +0.086 S 
ATOM      4  O   UNL     1       2.275   8.128  -0.529  0.00  0.00    -0.149 OA
ATOM      5  O   UNL     1      -0.216   8.094  -0.506  0.00  0.00    -0.149 OA
BRANCH   3   6
ATOM      6  C   UNL     1       1.064   5.940   0.022  0.00  0.00    +0.111 A 
ATOM      7  C   UNL     1       2.286   5.270   0.008  0.00  0.00    +0.029 A 
ATOM      8  C   UNL     1       2.340   3.910  -0.000  0.00  0.00    +0.010 A 
ATOM      9  C   UNL     1       1.147   3.167   0.008  0.00  0.00    -0.018 A 
ATOM     10  C   UNL     1       1.163   1.762   0.000  0.00  0.00    +0.008 A 
ATOM     11  C   UNL     1      -0.013   1.076   0.008  0.00  0.00    +0.001 A 
ATOM     12  C   UNL     1      -1.235   1.746   0.017  0.00  0.00    +0.001 A 
ATOM     13  C   UNL     1      -1.288   3.106   0.030  0.00  0.00    +0.008 A 
ATOM     14  C   UNL     1      -0.096   3.849   0.023  0.00  0.00    -0.016 A 
ATOM     15  C   UNL     1      -0.111   5.254   0.030  0.00  0.00    +0.037 A 
ENDBRANCH   3   6
ENDBRANCH   1   3
BRANCH   1  17
ATOM     16  C   UNL     1       2.118   8.199   3.694  0.00  0.00    +0.139 C 
ATOM     17  N   UNL     1       2.112   7.821   2.452  0.00  0.00    -0.174 NA
BRANCH  16  21
ATOM     18  C   UNL     1       5.343   7.101   6.231  0.00  0.00    +0.148 A 
ATOM     19  C   UNL     1       4.296   7.864   6.732  0.00  0.00    +0.061 A 
ATOM     20  C   UNL     1       3.247   8.223   5.912  0.00  0.00    +0.028 A 
ATOM     21  C   UNL     1       3.238   7.817   4.575  0.00  0.00    -0.003 A 
ATOM     22  C   UNL     1       4.290   7.045   4.076  0.00  0.00    +0.028 A 
ATOM     23  C   UNL     1       5.338   6.695   4.902  0.00  0.00    +0.061 A 
ATOM     24 BR   UNL     1       6.766   5.656   4.227  0.00  0.00    -0.046 Br
ATOM     25 BR   UNL     1       4.309   8.411   8.542  0.00  0.00    -0.046 Br
BRANCH  18  26
ATOM     26  O   UNL     1       6.375   6.749   7.042  0.00  0.00    -0.490 OA
BRANCH  26  28
ATOM     27  C   UNL     1       7.497   5.293   8.611  0.00  0.00    +0.048 C 
ATOM     28  C   UNL     1       6.248   5.518   7.756  0.00  0.00    +0.226 C 
ENDBRANCH  26  28
ENDBRANCH  18  26
ENDBRANCH  16  21
ENDBRANCH   1  17
TORSDOF 6
