REMARK  Name = ZINC02102159
REMARK  4 active torsions:
REMARK  status: ('A' for Active; 'I' for Inactive)
REMARK    1  A    between atoms: C_6  and  C_7
REMARK    2  A    between atoms: C_15  and  O_27
REMARK    3  A    between atoms: C_18  and  C_19
REMARK    4  A    between atoms: C_18  and  N_61
REMARK                            x       y       z     vdW  Elec       q    Type
REMARK                         _______ _______ _______ _____ _____    ______ ____
ROOT
ATOM      1  C   UNL     1       2.652   3.514  -0.055  0.00  0.00    -0.031 C 
ATOM      2  C   UNL     1       1.256   2.891  -0.105  0.00  0.00    +0.011 C 
ATOM      3  C   UNL     1       0.631   3.163  -1.461  0.00  0.00    +0.005 C 
ATOM      4  C   UNL     1       1.482   2.526  -2.561  0.00  0.00    +0.000 C 
ATOM      5  C   UNL     1       1.568   1.016  -2.326  0.00  0.00    +0.003 C 
ATOM      6  C   UNL     1       2.214   0.749  -0.966  0.00  0.00    +0.035 C 
ATOM      7  C   UNL     1       1.366   1.384   0.138  0.00  0.00    +0.066 C 
ATOM      8  C   UNL     1       2.038   1.136   1.493  0.00  0.00    +0.016 C 
ATOM      9  C   UNL     1       3.408   1.820   1.505  0.00  0.00    -0.075 C 
ATOM     10  N   UNL     1       3.237   3.271   1.282  0.00  0.00    +0.390 N 
ATOM     11  H   UNL     1       2.601   3.645   1.996  0.00  0.00    -0.080 HD
ENDROOT
BRANCH   1  17
ATOM     12  C   UNL     1       2.171   5.830   0.759  0.00  0.00    +0.006 A 
ATOM     13  C   UNL     1       2.078   7.196   0.559  0.00  0.00    +0.050 A 
ATOM     14  C   UNL     1       2.352   7.734  -0.687  0.00  0.00    +0.166 A 
ATOM     15  C   UNL     1       2.726   6.897  -1.736  0.00  0.00    +0.166 A 
ATOM     16  C   UNL     1       2.823   5.531  -1.527  0.00  0.00    +0.051 A 
ATOM     17  C   UNL     1       2.548   5.001  -0.280  0.00  0.00    -0.057 A 
ATOM     18  O   UNL     1       2.939   7.659  -2.848  0.00  0.00    -0.453 OA
ATOM     19  C   UNL     1       2.297   8.919  -2.579  0.00  0.00    +0.466 C 
ATOM     20  O   UNL     1       2.330   9.020  -1.143  0.00  0.00    -0.453 OA
ENDBRANCH   1  17
BRANCH   7  21
ATOM     21  O   UNL     1       0.061   0.801   0.137  0.00  0.00    -0.388 OA
ATOM     22  H   UNL     1       0.057  -0.154   0.289  0.00  0.00    +0.210 HD
ENDBRANCH   7  21
BRANCH  10  23
ATOM     23  C   UNL     1       4.541   3.956   1.394  0.00  0.00    +0.020 C 
BRANCH  23  24
ATOM     24  C   UNL     1       5.524   3.392   0.401  0.00  0.00    +0.199 C 
ATOM     25  O   UNL     1       5.160   2.567  -0.410  0.00  0.00    -0.278 OA
ATOM     26  N   UNL     1       6.807   3.803   0.415  0.00  0.00    -0.303 N 
ATOM     27  C   UNL     1       7.261   4.806   1.388  0.00  0.00    +0.107 C 
ATOM     28  C   UNL     1       8.476   4.242   2.140  0.00  0.00    +0.019 C 
ATOM     29  C   UNL     1       9.544   3.820   1.129  0.00  0.00    +0.003 C 
ATOM     30  C   UNL     1       8.985   2.719   0.224  0.00  0.00    +0.019 C 
ATOM     31  C   UNL     1       7.777   3.262  -0.547  0.00  0.00    +0.107 C 
ENDBRANCH  23  24
ENDBRANCH  10  23
TORSDOF 4
