REMARK  Name = ZINC12531715
REMARK  11 active torsions:
REMARK  status: ('A' for Active; 'I' for Inactive)
REMARK    1  A    between atoms: C_1  and  C_2
REMARK    2  A    between atoms: C_7  and  N_59
REMARK    3  A    between atoms: C_9  and  C_11
REMARK    4  A    between atoms: C_12  and  C_13
REMARK    5  A    between atoms: C_12  and  N_59
REMARK    6  A    between atoms: C_13  and  C_15
REMARK    7  A    between atoms: C_13  and  O_32
REMARK    8  A    between atoms: C_15  and  O_16
REMARK    9  A    between atoms: O_16  and  C_17
REMARK   10  A    between atoms: C_17  and  C_18
REMARK   11  A    between atoms: C_17  and  C_25
REMARK                            x       y       z     vdW  Elec       q    Type
REMARK                         _______ _______ _______ _____ _____    ______ ____
ROOT
ATOM      1  C   UNL     1       2.699   4.107  -0.127  0.00  0.00    +0.190 C 
ENDROOT
BRANCH   1   2
ATOM      2  C   UNL     1       1.285   3.539   0.009  0.00  0.00    +0.123 C 
BRANCH   2   3
ATOM      3  O   UNL     1       0.708   3.985   1.238  0.00  0.00    -0.391 OA
ATOM      4  H   UNL     1       1.201   3.715   2.025  0.00  0.00    +0.210 HD
ENDBRANCH   2   3
BRANCH   2   5
ATOM      5  C   UNL     1       1.346   2.010   0.000  0.00  0.00    -0.048 C 
BRANCH   5   6
ATOM      6  N   UNL     1      -0.027   1.471   0.010  0.00  0.00    +0.383 N 
ATOM      7  H   UNL     1      -0.512   1.795   0.855  0.00  0.00    -0.085 HD
ATOM      8  H   UNL     1      -0.528   1.804  -0.822  0.00  0.00    -0.085 HD
BRANCH   6  14
ATOM      9  C   UNL     1      -0.075  -2.563   1.426  0.00  0.00    +0.008 C 
ATOM     10  C   UNL     1      -1.272  -2.065   0.613  0.00  0.00    -0.013 C 
ATOM     11  C   UNL     1      -1.153  -2.565  -0.828  0.00  0.00    +0.003 C 
ATOM     12  C   UNL     1       0.142  -2.034  -1.447  0.00  0.00    -0.001 C 
ATOM     13  C   UNL     1       0.121  -0.505  -1.439  0.00  0.00    -0.015 C 
ATOM     14  C   UNL     1       0.002  -0.004   0.002  0.00  0.00    -0.069 C 
ATOM     15  C   UNL     1      -1.292  -0.535   0.621  0.00  0.00    -0.025 C 
ATOM     16  C   UNL     1      -1.411  -0.035   2.062  0.00  0.00    +0.006 C 
ENDBRANCH   6  14
ENDBRANCH   5   6
ENDBRANCH   2   5
ENDBRANCH   1   2
BRANCH   1  17
ATOM     17  O   UNL     1       2.632   5.530  -0.236  0.00  0.00    -0.365 OA
BRANCH  17  18
ATOM     18  C   UNL     1       3.906   6.163  -0.369  0.00  0.00    +0.178 C 
BRANCH  18  19
ATOM     19  C   UNL     1       3.757   7.428  -1.174  0.00  0.00    -0.014 A 
ATOM     20  C   UNL     1       2.656   8.243  -0.983  0.00  0.00    +0.009 A 
ATOM     21  C   UNL     1       2.521   9.406  -1.717  0.00  0.00    +0.039 A 
ATOM     22  C   UNL     1       3.483   9.750  -2.652  0.00  0.00    +0.123 A 
ATOM     23  C   UNL     1       4.582   8.931  -2.846  0.00  0.00    +0.039 A 
ATOM     24  C   UNL     1       4.718   7.771  -2.107  0.00  0.00    +0.009 A 
ATOM     25  F   UNL     1       3.349  10.884  -3.373  0.00  0.00    -0.205 F 
ENDBRANCH  18  19
BRANCH  18  26
ATOM     26  C   UNL     1       4.445   6.498   0.998  0.00  0.00    -0.014 A 
ATOM     27  C   UNL     1       3.581   6.887   2.005  0.00  0.00    +0.009 A 
ATOM     28  C   UNL     1       4.073   7.189   3.260  0.00  0.00    +0.039 A 
ATOM     29  C   UNL     1       5.434   7.114   3.506  0.00  0.00    +0.123 A 
ATOM     30  C   UNL     1       6.299   6.730   2.496  0.00  0.00    +0.039 A 
ATOM     31  C   UNL     1       5.803   6.423   1.243  0.00  0.00    +0.009 A 
ATOM     32  F   UNL     1       5.917   7.414   4.732  0.00  0.00    -0.205 F 
ENDBRANCH  18  26
ENDBRANCH  17  18
ENDBRANCH   1  17
TORSDOF 9
