REMARK  Name = ZINC09111665
REMARK  5 active torsions:
REMARK  status: ('A' for Active; 'I' for Inactive)
REMARK    1  A    between atoms: N_10  and  C_11
REMARK    2  A    between atoms: C_11  and  C_12
REMARK    3  A    between atoms: N_14  and  N_15
REMARK    4  A    between atoms: C_16  and  C_18
REMARK    5  A    between atoms: C_23  and  C_24
REMARK                            x       y       z     vdW  Elec       q    Type
REMARK                         _______ _______ _______ _____ _____    ______ ____
ROOT
ATOM      1  N   UNL     1      -1.357   5.970   0.226  0.00  0.00    -0.230 N 
ATOM      2  C   UNL     1      -0.180   5.335   0.056  0.00  0.00    +0.261 C 
ATOM      3  O   UNL     1       0.854   5.972   0.011  0.00  0.00    -0.269 OA
ATOM      4  H   UNL     1      -2.182   5.461   0.262  0.00  0.00    +0.173 HD
ENDROOT
BRANCH   2   5
ATOM      5  C   UNL     1      -0.147   3.864  -0.075  0.00  0.00    +0.048 A 
ATOM      6  C   UNL     1      -0.654   3.057   0.944  0.00  0.00    +0.014 A 
ATOM      7  C   UNL     1      -0.625   1.684   0.814  0.00  0.00    +0.001 A 
ATOM      8  C   UNL     1      -0.086   1.097  -0.318  0.00  0.00    +0.001 A 
ATOM      9  C   UNL     1       0.421   1.878  -1.337  0.00  0.00    +0.011 A 
ATOM     10  C   UNL     1       0.396   3.268  -1.228  0.00  0.00    +0.019 A 
BRANCH  10  11
ATOM     11  C   UNL     1       0.937   4.109  -2.316  0.00  0.00    +0.110 A 
ATOM     12  N   UNL     1       1.582   3.741  -3.401  0.00  0.00    -0.239 NA
ATOM     13  C   UNL     1       2.021   4.618  -4.315  0.00  0.00    +0.079 A 
ATOM     14  C   UNL     1       2.722   4.353  -5.517  0.00  0.00    +0.029 A 
ATOM     15  C   UNL     1       3.098   5.365  -6.342  0.00  0.00    +0.002 A 
ATOM     16  C   UNL     1       2.815   6.691  -6.046  0.00  0.00    +0.001 A 
ATOM     17  C   UNL     1       2.132   6.995  -4.883  0.00  0.00    +0.017 A 
ATOM     18  C   UNL     1       1.747   5.980  -4.042  0.00  0.00    +0.040 A 
ATOM     19  S   UNL     1       0.875   5.886  -2.496  0.00  0.00    -0.067 S 
ENDBRANCH  10  11
ENDBRANCH   2   5
BRANCH   1  22
ATOM     20  C   UNL     1      -2.565   8.000   0.519  0.00  0.00    +0.246 C 
ATOM     21  O   UNL     1      -3.596   7.364   0.564  0.00  0.00    -0.273 OA
ATOM     22  N   UNL     1      -1.388   7.365   0.350  0.00  0.00    -0.233 N 
ATOM     23  H   UNL     1      -0.563   7.874   0.314  0.00  0.00    +0.173 HD
BRANCH  20  24
ATOM     24  C   UNL     1      -2.598   9.501   0.653  0.00  0.00    +0.202 C 
BRANCH  24  34
ATOM     25  C   UNL     1      -6.505   8.822  -2.158  0.00  0.00    +0.000 A 
ATOM     26  C   UNL     1      -5.194   9.187  -2.408  0.00  0.00    +0.002 A 
ATOM     27  C   UNL     1      -4.370   9.550  -1.365  0.00  0.00    +0.023 A 
ATOM     28  C   UNL     1      -4.849   9.551  -0.053  0.00  0.00    +0.033 A 
ATOM     29  C   UNL     1      -6.160   9.180   0.191  0.00  0.00    -0.026 A 
ATOM     30  C   UNL     1      -6.983   8.818  -0.864  0.00  0.00    +0.005 A 
ATOM     31  C   UNL     1      -6.736   9.152   1.585  0.00  0.00    +0.038 C 
ATOM     32  C   UNL     1      -5.825   9.933   2.534  0.00  0.00    +0.024 C 
ATOM     33  C   UNL     1      -4.382   9.478   2.285  0.00  0.00    +0.106 C 
ATOM     34  N   UNL     1      -3.969   9.935   0.957  0.00  0.00    -0.321 N 
ENDBRANCH  24  34
ENDBRANCH  20  24
ENDBRANCH   1  22
TORSDOF 5
