REMARK  Name = ZINC40901792
REMARK  9 active torsions:
REMARK  status: ('A' for Active; 'I' for Inactive)
REMARK    1  A    between atoms: C_1  and  C_2
REMARK    2  A    between atoms: C_9  and  N_15
REMARK    3  A    between atoms: C_10  and  C_11
REMARK    4  A    between atoms: C_11  and  O_13
REMARK    5  A    between atoms: O_13  and  C_14
REMARK    6  A    between atoms: N_15  and  C_16
REMARK    7  A    between atoms: C_16  and  N_18
REMARK    8  A    between atoms: C_19  and  C_21
REMARK    9  A    between atoms: C_21  and  N_22
REMARK                            x       y       z     vdW  Elec       q    Type
REMARK                         _______ _______ _______ _____ _____    ______ ____
ROOT
ATOM      1  C   UNL     1       1.680  -6.093   3.325  0.00  0.00    +0.141 C 
ATOM      2  S   UNL     1       2.675  -4.814   3.879  0.00  0.00    -0.018 S 
ENDROOT
BRANCH   1   3
ATOM      3  N   UNL     1       1.878  -7.346   3.779  0.00  0.00    -0.266 N 
ATOM      4  C   UNL     1       2.860  -7.593   4.668  0.00  0.00    +0.236 C 
ATOM      5  O   UNL     1       3.565  -6.688   5.060  0.00  0.00    -0.274 OA
ATOM      6  H   UNL     1       1.314  -8.070   3.465  0.00  0.00    +0.157 HD
BRANCH   4   7
ATOM      7  C   UNL     1       3.082  -8.995   5.176  0.00  0.00    +0.213 C 
BRANCH   7   8
ATOM      8  N   UNL     1       4.199  -9.000   6.124  0.00  0.00    -0.225 N 
ATOM      9  C   UNL     1       5.486  -9.187   5.783  0.00  0.00    +0.254 C 
ATOM     10  O   UNL     1       5.901  -9.376   4.657  0.00  0.00    -0.270 OA
ATOM     11  C   UNL     1       6.312  -9.124   7.007  0.00  0.00    +0.049 A 
ATOM     12  C   UNL     1       7.668  -9.242   7.267  0.00  0.00    +0.014 A 
ATOM     13  C   UNL     1       8.130  -9.129   8.569  0.00  0.00    +0.001 A 
ATOM     14  C   UNL     1       7.248  -8.899   9.608  0.00  0.00    +0.001 A 
ATOM     15  C   UNL     1       5.889  -8.778   9.363  0.00  0.00    +0.014 A 
ATOM     16  C   UNL     1       5.413  -8.889   8.067  0.00  0.00    +0.049 A 
ATOM     17  C   UNL     1       4.072  -8.813   7.450  0.00  0.00    +0.254 C 
ATOM     18  O   UNL     1       3.029  -8.616   8.042  0.00  0.00    -0.270 OA
ENDBRANCH   7   8
ENDBRANCH   4   7
ENDBRANCH   1   3
BRANCH   1  19
ATOM     19  N   UNL     1       0.698  -5.846   2.436  0.00  0.00    -0.290 N 
ATOM     20  H   UNL     1       0.134  -6.570   2.122  0.00  0.00    +0.154 HD
BRANCH  19  28
ATOM     21  C   UNL     1      -0.019   1.526   0.010  0.00  0.00    +0.008 C 
ATOM     22  C   UNL     1       0.002  -0.004   0.002  0.00  0.00    -0.009 C 
ATOM     23  C   UNL     1      -1.434  -0.537   0.019  0.00  0.00    +0.008 C 
ATOM     24  C   UNL     1      -1.432  -2.046  -0.236  0.00  0.00    +0.037 C 
ATOM     25  C   UNL     1      -0.463  -2.704   0.735  0.00  0.00    -0.021 A 
ATOM     26  C   UNL     1       0.485  -1.986   1.374  0.00  0.00    -0.004 A 
ATOM     27  S   UNL     1       1.344  -3.167   2.373  0.00  0.00    -0.077 S 
ATOM     28  C   UNL     1       0.494  -4.557   1.970  0.00  0.00    +0.086 A 
ATOM     29  C   UNL     1      -0.459  -4.120   1.061  0.00  0.00    +0.091 A 
ATOM     30  C   UNL     1       0.739  -0.515   1.248  0.00  0.00    +0.046 C 
BRANCH  29  31
ATOM     31  C   UNL     1      -1.420  -5.045   0.458  0.00  0.00    +0.342 C 
ATOM     32  O   UNL     1      -1.147  -5.610  -0.585  0.00  0.00    -0.245 OA
BRANCH  31  33
ATOM     33  O   UNL     1      -2.607  -5.271   1.057  0.00  0.00    -0.464 OA
ATOM     34  C   UNL     1      -3.495  -6.186   0.412  0.00  0.00    +0.280 C 
ENDBRANCH  31  33
ENDBRANCH  29  31
ENDBRANCH  19  28
ENDBRANCH   1  19
TORSDOF 7
