REMARK  Name = ZINC12029729
REMARK  7 active torsions:
REMARK  status: ('A' for Active; 'I' for Inactive)
REMARK    1  A    between atoms: C_10  and  C_11
REMARK    2  A    between atoms: N_13  and  C_14
REMARK    3  A    between atoms: C_14  and  C_15
REMARK    4  A    between atoms: C_21  and  C_22
REMARK    5  A    between atoms: C_21  and  N_54
REMARK    6  A    between atoms: C_25  and  C_27
REMARK    7  A    between atoms: C_27  and  O_28
REMARK                            x       y       z     vdW  Elec       q    Type
REMARK                         _______ _______ _______ _____ _____    ______ ____
ROOT
ATOM      1  C   UNL     1      -0.793   1.597  -1.254  0.00  0.00    -0.011 C 
ATOM      2  C   UNL     1      -0.072   1.088  -0.003  0.00  0.00    +0.001 C 
ATOM      3  C   UNL     1      -0.812   1.584   1.242  0.00  0.00    -0.018 C 
ATOM      4  C   UNL     1      -0.882   3.113   1.212  0.00  0.00    -0.078 C 
ATOM      5  C   UNL     1      -0.863   3.125  -1.211  0.00  0.00    -0.073 C 
ATOM      6  N   UNL     1      -1.609   3.537  -0.003  0.00  0.00    +0.385 N 
ATOM      7  H   UNL     1      -2.532   3.088  -0.013  0.00  0.00    -0.081 HD
ENDROOT
BRANCH   1   8
ATOM      8  C   UNL     1      -0.025   1.155  -2.502  0.00  0.00    +0.106 C 
BRANCH   8  11
ATOM      9  C   UNL     1       0.558  -0.923  -3.631  0.00  0.00    +0.245 C 
ATOM     10  O   UNL     1       1.140  -0.268  -4.474  0.00  0.00    -0.270 OA
ATOM     11  N   UNL     1      -0.058  -0.306  -2.603  0.00  0.00    -0.311 N 
ATOM     12  H   UNL     1      -0.522  -0.829  -1.931  0.00  0.00    +0.149 HD
BRANCH   9  22
ATOM     13  C   UNL     1       2.107  -4.366  -7.075  0.00  0.00    +0.001 A 
ATOM     14  C   UNL     1       2.150  -2.976  -7.000  0.00  0.00    +0.001 A 
ATOM     15  C   UNL     1       1.640  -2.317  -5.921  0.00  0.00    +0.009 A 
ATOM     16  C   UNL     1       1.065  -3.045  -4.871  0.00  0.00    -0.006 A 
ATOM     17  C   UNL     1       1.022  -4.459  -4.945  0.00  0.00    -0.017 A 
ATOM     18  C   UNL     1       1.557  -5.105  -6.073  0.00  0.00    +0.008 A 
ATOM     19  C   UNL     1       0.446  -5.190  -3.892  0.00  0.00    +0.008 A 
ATOM     20  C   UNL     1      -0.067  -4.541  -2.809  0.00  0.00    +0.001 A 
ATOM     21  C   UNL     1      -0.028  -3.156  -2.715  0.00  0.00    +0.013 A 
ATOM     22  C   UNL     1       0.526  -2.394  -3.733  0.00  0.00    +0.044 A 
ENDBRANCH   9  22
ENDBRANCH   8  11
ENDBRANCH   1   8
BRANCH   6  23
ATOM     23  C   UNL     1      -1.789   5.004   0.003  0.00  0.00    -0.003 C 
BRANCH  23  24
ATOM     24  C   UNL     1      -2.302   5.433   1.353  0.00  0.00    +0.089 A 
ATOM     25  C   UNL     1      -1.545   5.801   2.402  0.00  0.00    +0.043 A 
ATOM     26  C   UNL     1      -2.433   6.121   3.455  0.00  0.00    +0.047 A 
ATOM     27  C   UNL     1      -3.679   5.929   2.987  0.00  0.00    +0.130 A 
ATOM     28  O   UNL     1      -3.594   5.518   1.711  0.00  0.00    -0.464 OA
BRANCH  27  29
ATOM     29  C   UNL     1      -4.954   6.146   3.760  0.00  0.00    +0.230 C 
BRANCH  29  30
ATOM     30  O   UNL     1      -5.396   7.493   3.583  0.00  0.00    -0.387 OA
ATOM     31  H   UNL     1      -6.214   7.704   4.053  0.00  0.00    +0.210 HD
ENDBRANCH  29  30
ENDBRANCH  27  29
ENDBRANCH  23  24
ENDBRANCH   6  23
TORSDOF 7
