REMARK  Name = ZINC08967623
REMARK  4 active torsions:
REMARK  status: ('A' for Active; 'I' for Inactive)
REMARK    1  A    between atoms: C_1  and  C_2
REMARK    2  A    between atoms: C_2  and  C_3
REMARK    3  A    between atoms: C_2  and  C_4
REMARK    4  A    between atoms: C_14  and  C_16
REMARK                            x       y       z     vdW  Elec       q    Type
REMARK                         _______ _______ _______ _____ _____    ______ ____
ROOT
ATOM      1  C   UNL     1      -1.266   3.130   0.031  0.00  0.00    -0.018 A 
ATOM      2  C   UNL     1      -1.219   1.760   0.017  0.00  0.00    +0.006 A 
ATOM      3  C   UNL     1      -0.013   1.076   0.008  0.00  0.00    +0.001 A 
ATOM      4  C   UNL     1       1.171   1.791   0.001  0.00  0.00    +0.017 A 
ATOM      5  C   UNL     1       1.135   3.162   0.008  0.00  0.00    +0.041 A 
ATOM      6  C   UNL     1      -0.075   3.893   0.024  0.00  0.00    +0.084 A 
ATOM      7  N   UNL     1       0.053   5.238   0.029  0.00  0.00    -0.224 NA
ATOM      8  C   UNL     1       1.222   5.835   0.021  0.00  0.00    +0.166 A 
ATOM      9  S   UNL     1       2.356   4.453   0.003  0.00  0.00    -0.052 S 
ATOM     10  N   UNL     1       1.505   7.191   0.025  0.00  0.00    -0.262 N 
ATOM     11  C   UNL     1       2.785   7.612   0.015  0.00  0.00    +0.263 C 
ATOM     12  O   UNL     1       3.689   6.804   0.002  0.00  0.00    -0.271 OA
ATOM     13  H   UNL     1       0.782   7.837   0.036  0.00  0.00    +0.157 HD
ENDROOT
BRANCH  11  14
ATOM     14  C   UNL     1       3.093   9.087   0.019  0.00  0.00    +0.296 C 
ATOM     15  C   UNL     1       2.615   9.720  -1.295  0.00  0.00    +0.283 C 
ATOM     16  O   UNL     1       2.935  11.115  -1.262  0.00  0.00    -0.484 OA
ATOM     17  C   UNL     1       4.189  11.446  -0.850  0.00  0.00    +0.162 A 
ATOM     18  C   UNL     1       4.685  12.711  -1.128  0.00  0.00    +0.049 A 
ATOM     19  C   UNL     1       5.955  13.063  -0.712  0.00  0.00    +0.004 A 
ATOM     20  C   UNL     1       6.735  12.156  -0.019  0.00  0.00    +0.004 A 
ATOM     21  C   UNL     1       6.247  10.893   0.260  0.00  0.00    +0.049 A 
ATOM     22  C   UNL     1       4.973  10.533  -0.155  0.00  0.00    +0.163 A 
ATOM     23  O   UNL     1       4.507   9.285   0.124  0.00  0.00    -0.473 OA
ENDBRANCH  11  14
BRANCH   1  25
ATOM     24  C   UNL     1      -3.398   3.435  -1.197  0.00  0.00    +0.012 C 
ATOM     25  C   UNL     1      -2.600   3.830   0.047  0.00  0.00    +0.015 C 
ATOM     26  C   UNL     1      -3.375   3.422   1.302  0.00  0.00    +0.012 C 
ENDBRANCH   1  25
TORSDOF 2
