REMARK  Name = ZINC32885638
REMARK  7 active torsions:
REMARK  status: ('A' for Active; 'I' for Inactive)
REMARK    1  A    between atoms: C_1  and  C_2
REMARK    2  A    between atoms: C_2  and  C_3
REMARK    3  A    between atoms: C_3  and  C_4
REMARK    4  A    between atoms: C_7  and  C_10
REMARK    5  A    between atoms: C_10  and  C_12
REMARK    6  A    between atoms: C_10  and  N_17
REMARK    7  A    between atoms: C_18  and  C_20
REMARK                            x       y       z     vdW  Elec       q    Type
REMARK                         _______ _______ _______ _____ _____    ______ ____
ROOT
ATOM      1  N   UNL     1      -2.948   4.392   4.659  0.00  0.00    -0.303 N 
ATOM      2  C   UNL     1      -3.956   4.964   5.347  0.00  0.00    +0.222 C 
ATOM      3  O   UNL     1      -4.673   4.284   6.051  0.00  0.00    -0.275 OA
ATOM      4  H   UNL     1      -2.298   5.008   4.021  0.00  0.00    +0.150 HD
ENDROOT
BRANCH   2   5
ATOM      5  C   UNL     1      -4.194   6.448   5.240  0.00  0.00    +0.115 C 
ATOM      6  C   UNL     1      -2.949   7.199   5.715  0.00  0.00    +0.113 C 
ATOM      7  C   UNL     1      -2.812   7.070   7.208  0.00  0.00    +0.218 C 
ATOM      8  O   UNL     1      -1.707   6.991   7.704  0.00  0.00    -0.275 OA
ATOM      9  N   UNL     1      -3.899   7.042   8.000  0.00  0.00    -0.285 N 
ATOM     10  C   UNL     1      -5.181   7.114   7.446  0.00  0.00    +0.037 A 
ATOM     11  C   UNL     1      -5.371   6.831   6.099  0.00  0.00    -0.014 A 
ATOM     12  C   UNL     1      -6.636   6.901   5.551  0.00  0.00    +0.006 A 
ATOM     13  C   UNL     1      -7.715   7.253   6.343  0.00  0.00    +0.000 A 
ATOM     14  C   UNL     1      -7.529   7.535   7.684  0.00  0.00    +0.002 A 
ATOM     15  C   UNL     1      -6.265   7.466   8.238  0.00  0.00    +0.023 A 
ATOM     16  H   UNL     1      -3.784   6.962   9.091  0.00  0.00    +0.155 HD
ENDBRANCH   2   5
BRANCH   1  17
ATOM     17  C   UNL     1      -2.717   2.949   4.763  0.00  0.00    +0.140 C 
BRANCH  17  21
ATOM     18  C   UNL     1      -0.718   1.572   1.248  0.00  0.00    -0.047 A 
ATOM     19  C   UNL     1      -0.360   2.779   1.819  0.00  0.00    +0.004 A 
ATOM     20  C   UNL     1      -1.010   3.227   2.953  0.00  0.00    +0.006 A 
ATOM     21  C   UNL     1      -2.012   2.463   3.523  0.00  0.00    -0.022 A 
ATOM     22  C   UNL     1      -2.366   1.254   2.955  0.00  0.00    +0.006 A 
ATOM     23  C   UNL     1      -1.719   0.808   1.818  0.00  0.00    +0.004 A 
BRANCH  18  24
ATOM     24  C   UNL     1      -0.013   1.086   0.008  0.00  0.00    +0.035 C 
BRANCH  24  26
ATOM     25  C   UNL     1      -0.037   1.099  -2.490  0.00  0.00    +0.004 C 
ATOM     26  C   UNL     1      -0.753   1.593  -1.232  0.00  0.00    +0.001 C 
ENDBRANCH  24  26
ENDBRANCH  18  24
ENDBRANCH  17  21
BRANCH  17  27
ATOM     27  C   UNL     1      -1.864   2.662   5.971  0.00  0.00    +0.014 A 
ATOM     28  C   UNL     1      -1.964   1.649   6.867  0.00  0.00    +0.013 A 
ATOM     29  C   UNL     1      -1.060   1.584   7.910  0.00  0.00    +0.008 A 
ATOM     30  C   UNL     1      -0.098   2.535   8.006  0.00  0.00    +0.045 A 
ATOM     31  S   UNL     1      -0.453   3.564   6.591  0.00  0.00    -0.099 S 
ENDBRANCH  17  27
ENDBRANCH   1  17
TORSDOF 6
