REMARK  Name = ZINC34603796
REMARK  11 active torsions:
REMARK  status: ('A' for Active; 'I' for Inactive)
REMARK    1  A    between atoms: C_1  and  C_2
REMARK    2  A    between atoms: C_2  and  C_3
REMARK    3  A    between atoms: C_6  and  C_35
REMARK    4  A    between atoms: C_7  and  C_9
REMARK    5  A    between atoms: C_9  and  N_10
REMARK    6  A    between atoms: N_13  and  C_16
REMARK    7  A    between atoms: C_23  and  C_25
REMARK    8  A    between atoms: C_28  and  C_31
REMARK    9  A    between atoms: C_31  and  C_32
REMARK   10  A    between atoms: C_31  and  C_33
REMARK   11  A    between atoms: C_31  and  C_34
REMARK                            x       y       z     vdW  Elec       q    Type
REMARK                         _______ _______ _______ _____ _____    ______ ____
ROOT
ATOM      1  C   UNL     1      -9.136   0.574  -1.628  0.00  0.00    +0.107 A 
ATOM      2  C   UNL     1      -9.729   0.964  -0.466  0.00  0.00    +0.042 A 
ATOM      3  C   UNL     1     -11.119   1.118  -0.402  0.00  0.00    +0.007 A 
ATOM      4  C   UNL     1     -11.879   0.876  -1.507  0.00  0.00    +0.045 A 
ATOM      5  C   UNL     1     -11.254   0.473  -2.704  0.00  0.00    +0.117 A 
ATOM      6  N   UNL     1      -9.890   0.334  -2.744  0.00  0.00    -0.289 N 
ATOM      7  C   UNL     1      -9.560  -0.056  -4.016  0.00  0.00    +0.120 A 
ATOM      8  C   UNL     1     -10.721  -0.140  -4.721  0.00  0.00    +0.065 A 
ATOM      9  N   UNL     1     -11.737   0.178  -3.902  0.00  0.00    -0.339 N 
ATOM     10  H   UNL     1     -12.675   0.198  -4.151  0.00  0.00    +0.167 HD
ENDROOT
BRANCH   1  14
ATOM     11  N   UNL     1      -5.076   0.805  -1.047  0.00  0.00    -0.294 NA
ATOM     12  C   UNL     1      -5.809   1.883  -1.726  0.00  0.00    +0.104 C 
ATOM     13  C   UNL     1      -6.945   1.278  -2.558  0.00  0.00    +0.122 C 
ATOM     14  N   UNL     1      -7.763   0.425  -1.682  0.00  0.00    -0.314 N 
ATOM     15  C   UNL     1      -7.081  -0.589  -0.864  0.00  0.00    +0.122 C 
ATOM     16  C   UNL     1      -5.939   0.089  -0.099  0.00  0.00    +0.104 C 
BRANCH  11  17
ATOM     17  C   UNL     1      -3.876   1.325  -0.378  0.00  0.00    +0.139 C 
BRANCH  17  22
ATOM     18  C   UNL     1      -1.627   2.892  -2.734  0.00  0.00    +0.084 A 
ATOM     19  N   UNL     1      -1.268   1.602  -2.913  0.00  0.00    -0.347 N 
ATOM     20  H   UNL     1      -0.589   1.273  -3.522  0.00  0.00    +0.167 HD
ATOM     21  C   UNL     1      -2.043   0.847  -2.074  0.00  0.00    +0.035 A 
ATOM     22  C   UNL     1      -2.847   1.700  -1.412  0.00  0.00    +0.050 A 
ATOM     23  N   UNL     1      -2.567   2.944  -1.831  0.00  0.00    -0.346 N 
ATOM     24  C   UNL     1      -2.003  -0.652  -1.921  0.00  0.00    +0.065 C 
ATOM     25  H   UNL     1      -2.998   3.753  -1.514  0.00  0.00    +0.167 HD
BRANCH  18  27
ATOM     26  C   UNL     1       0.166   4.604  -2.665  0.00  0.00    +0.012 C 
ATOM     27  C   UNL     1      -1.034   4.076  -3.454  0.00  0.00    +0.069 C 
ENDBRANCH  18  27
ENDBRANCH  17  22
ENDBRANCH  11  17
ENDBRANCH   1  14
BRANCH   8  28
ATOM     28  C   UNL     1     -10.844  -0.529  -6.148  0.00  0.00    -0.000 A 
ATOM     29  C   UNL     1      -9.706  -0.853  -6.885  0.00  0.00    +0.010 A 
ATOM     30  C   UNL     1      -9.827  -1.214  -8.212  0.00  0.00    +0.005 A 
ATOM     31  C   UNL     1     -11.073  -1.255  -8.810  0.00  0.00    -0.042 A 
ATOM     32  C   UNL     1     -12.206  -0.934  -8.083  0.00  0.00    +0.005 A 
ATOM     33  C   UNL     1     -12.097  -0.577  -6.754  0.00  0.00    +0.010 A 
BRANCH  31  34
ATOM     34  C   UNL     1     -11.198  -1.649 -10.259  0.00  0.00    -0.013 C 
ATOM     35  C   UNL     1     -10.648  -3.063 -10.452  0.00  0.00    +0.015 C 
ATOM     36  C   UNL     1     -12.671  -1.614 -10.672  0.00  0.00    +0.015 C 
ATOM     37  C   UNL     1     -10.402  -0.670 -11.124  0.00  0.00    +0.015 C 
ENDBRANCH  31  34
ENDBRANCH   8  28
TORSDOF 6
