REMARK  Name = ZINC08412251
REMARK  8 active torsions:
REMARK  status: ('A' for Active; 'I' for Inactive)
REMARK    1  A    between atoms: C_5  and  C_7
REMARK    2  A    between atoms: C_7  and  N_59
REMARK    3  A    between atoms: C_8  and  N_59
REMARK    4  A    between atoms: N_13  and  C_16
REMARK    5  A    between atoms: C_19  and  N_22
REMARK    6  A    between atoms: C_26  and  N_62
REMARK    7  A    between atoms: C_30  and  C_31
REMARK    8  A    between atoms: C_30  and  N_62
REMARK                            x       y       z     vdW  Elec       q    Type
REMARK                         _______ _______ _______ _____ _____    ______ ____
ROOT
ATOM      1  C   UNL     1       7.371   3.087  -2.433  0.00  0.00    +0.044 A 
ATOM      2  C   UNL     1       7.686   2.137  -1.471  0.00  0.00    +0.026 A 
ATOM      3  C   UNL     1       8.838   1.387  -1.594  0.00  0.00    +0.026 A 
ATOM      4  C   UNL     1       9.686   1.589  -2.675  0.00  0.00    +0.044 A 
ATOM      5  C   UNL     1       9.374   2.543  -3.634  0.00  0.00    +0.026 A 
ATOM      6  C   UNL     1       8.219   3.290  -3.513  0.00  0.00    +0.026 A 
ENDROOT
BRANCH   1  11
ATOM      7  C   UNL     1       4.785   5.668  -1.989  0.00  0.00    +0.026 C 
ATOM      8  C   UNL     1       3.939   4.403  -2.246  0.00  0.00    +0.090 C 
ATOM      9  C   UNL     1       4.975   3.316  -2.434  0.00  0.00    +0.225 C 
ATOM     10  O   UNL     1       4.735   2.150  -2.661  0.00  0.00    -0.275 OA
ATOM     11  N   UNL     1       6.198   3.847  -2.310  0.00  0.00    -0.212 N 
ATOM     12  C   UNL     1       6.209   5.162  -2.059  0.00  0.00    +0.213 C 
ATOM     13  O   UNL     1       7.203   5.840  -1.912  0.00  0.00    -0.277 OA
BRANCH   7  14
ATOM     14  N   UNL     1       4.493   6.215  -0.651  0.00  0.00    +0.390 N 
ATOM     15  H   UNL     1       3.501   6.069  -0.434  0.00  0.00    -0.084 HD
ATOM     16  H   UNL     1       5.071   5.730   0.046  0.00  0.00    -0.084 HD
BRANCH  14  17
ATOM     17  C   UNL     1       4.793   7.659  -0.612  0.00  0.00    -0.043 C 
BRANCH  17  22
ATOM     18  C   UNL     1       3.020   9.348   2.262  0.00  0.00    +0.000 A 
ATOM     19  C   UNL     1       3.921   9.159   3.293  0.00  0.00    +0.003 A 
ATOM     20  C   UNL     1       5.109   8.493   3.061  0.00  0.00    +0.038 A 
ATOM     21  C   UNL     1       5.391   8.004   1.796  0.00  0.00    +0.125 A 
ATOM     22  C   UNL     1       4.486   8.189   0.765  0.00  0.00    -0.029 A 
ATOM     23  C   UNL     1       3.301   8.861   0.999  0.00  0.00    +0.004 A 
ATOM     24  F   UNL     1       6.550   7.348   1.569  0.00  0.00    -0.205 F 
ENDBRANCH  17  22
ENDBRANCH  14  17
ENDBRANCH   7  14
ENDBRANCH   1  11
BRANCH   4  25
ATOM     25  N   UNL     1      10.859   0.829  -2.798  0.00  0.00    -0.212 N 
ATOM     26  C   UNL     1      11.033  -0.085  -3.761  0.00  0.00    +0.225 C 
ATOM     27  O   UNL     1      10.224  -0.361  -4.621  0.00  0.00    -0.275 OA
ATOM     28  C   UNL     1      12.400  -0.715  -3.609  0.00  0.00    +0.090 C 
ATOM     29  C   UNL     1      12.989  -0.006  -2.372  0.00  0.00    +0.026 C 
ATOM     30  C   UNL     1      11.894   0.953  -1.958  0.00  0.00    +0.213 C 
ATOM     31  O   UNL     1      11.947   1.714  -1.016  0.00  0.00    -0.277 OA
BRANCH  29  32
ATOM     32  N   UNL     1      14.214   0.729  -2.738  0.00  0.00    +0.390 N 
ATOM     33  H   UNL     1      13.955   1.624  -3.170  0.00  0.00    -0.084 HD
ATOM     34  H   UNL     1      14.757   0.171  -3.407  0.00  0.00    -0.084 HD
BRANCH  32  35
ATOM     35  C   UNL     1      15.034   0.986  -1.540  0.00  0.00    -0.043 C 
BRANCH  35  36
ATOM     36  C   UNL     1      16.277   1.737  -1.944  0.00  0.00    -0.029 A 
ATOM     37  C   UNL     1      16.388   3.088  -1.670  0.00  0.00    +0.004 A 
ATOM     38  C   UNL     1      17.527   3.777  -2.040  0.00  0.00    +0.000 A 
ATOM     39  C   UNL     1      18.558   3.117  -2.684  0.00  0.00    +0.003 A 
ATOM     40  C   UNL     1      18.449   1.767  -2.958  0.00  0.00    +0.038 A 
ATOM     41  C   UNL     1      17.310   1.074  -2.584  0.00  0.00    +0.125 A 
ATOM     42  F   UNL     1      17.205  -0.247  -2.847  0.00  0.00    -0.205 F 
ENDBRANCH  35  36
ENDBRANCH  32  35
ENDBRANCH  29  32
ENDBRANCH   4  25
TORSDOF 8
