REMARK  Name = ZINC09467229
REMARK  9 active torsions:
REMARK  status: ('A' for Active; 'I' for Inactive)
REMARK    1  A    between atoms: C_1  and  C_2
REMARK    2  A    between atoms: C_2  and  N_3
REMARK    3  A    between atoms: C_7  and  S_26
REMARK    4  A    between atoms: C_11  and  C_12
REMARK    5  A    between atoms: C_12  and  N_64
REMARK    6  A    between atoms: C_13  and  C_14
REMARK    7  A    between atoms: C_13  and  C_20
REMARK    8  A    between atoms: C_13  and  N_64
REMARK    9  A    between atoms: S_26  and  N_29
REMARK                            x       y       z     vdW  Elec       q    Type
REMARK                         _______ _______ _______ _____ _____    ______ ____
ROOT
ATOM      1  N   UNL     1      -2.909   3.291   4.775  0.00  0.00    -0.329 N 
ATOM      2  C   UNL     1      -2.370   2.635   3.686  0.00  0.00    +0.069 A 
ATOM      3  C   UNL     1      -2.568   1.386   3.115  0.00  0.00    +0.030 A 
ATOM      4  C   UNL     1      -1.848   1.024   1.996  0.00  0.00    +0.030 A 
ATOM      5  C   UNL     1      -0.927   1.900   1.439  0.00  0.00    +0.108 A 
ATOM      6  C   UNL     1      -0.714   3.131   1.992  0.00  0.00    +0.058 A 
ATOM      7  C   UNL     1      -1.437   3.522   3.122  0.00  0.00    +0.091 A 
ATOM      8  N   UNL     1      -1.455   4.649   3.879  0.00  0.00    -0.234 NA
ATOM      9  C   UNL     1      -2.316   4.513   4.845  0.00  0.00    +0.094 A 
ENDROOT
BRANCH   5  10
ATOM     10  S   UNL     1      -0.017   1.417   0.010  0.00  0.00    +0.061 S 
ATOM     11  O   UNL     1       0.002  -0.004   0.002  0.00  0.00    -0.153 OA
ATOM     12  O   UNL     1       1.172   2.195   0.003  0.00  0.00    -0.153 OA
BRANCH  10  13
ATOM     13  N   UNL     1      -0.897   1.885  -1.312  0.00  0.00    -0.172 NA
ATOM     14  C   UNL     1      -1.888   0.984  -1.921  0.00  0.00    +0.137 C 
ATOM     15  C   UNL     1      -3.209   1.756  -2.073  0.00  0.00    +0.177 C 
ATOM     16  O   UNL     1      -2.958   2.982  -2.764  0.00  0.00    -0.377 OA
ATOM     17  C   UNL     1      -2.082   3.875  -2.072  0.00  0.00    +0.177 C 
ATOM     18  C   UNL     1      -0.708   3.214  -1.917  0.00  0.00    +0.137 C 
ENDBRANCH  10  13
ENDBRANCH   5  10
BRANCH   1  20
ATOM     19  C   UNL     1      -3.254   2.036   6.845  0.00  0.00    +0.027 C 
ATOM     20  C   UNL     1      -3.931   2.768   5.685  0.00  0.00    +0.120 C 
ENDBRANCH   1  20
BRANCH   9  21
ATOM     21  C   UNL     1      -2.613   5.558   5.889  0.00  0.00    -0.006 C 
BRANCH  21  22
ATOM     22  N   UNL     1      -1.711   5.362   7.040  0.00  0.00    +0.391 N 
ATOM     23  H   UNL     1      -0.737   5.451   6.726  0.00  0.00    -0.084 HD
ATOM     24  H   UNL     1      -1.860   4.425   7.432  0.00  0.00    -0.084 HD
BRANCH  22  25
ATOM     25  C   UNL     1      -1.980   6.374   8.080  0.00  0.00    -0.009 C 
BRANCH  25  26
ATOM     26  C   UNL     1      -3.107   5.901   8.961  0.00  0.00    -0.057 A 
ATOM     27  C   UNL     1      -3.188   4.569   9.325  0.00  0.00    +0.002 A 
ATOM     28  C   UNL     1      -4.219   4.136  10.137  0.00  0.00    +0.000 A 
ATOM     29  C   UNL     1      -5.174   5.033  10.579  0.00  0.00    +0.000 A 
ATOM     30  C   UNL     1      -5.096   6.363  10.211  0.00  0.00    +0.000 A 
ATOM     31  C   UNL     1      -4.062   6.797   9.403  0.00  0.00    +0.002 A 
ENDBRANCH  25  26
BRANCH  25  32
ATOM     32  C   UNL     1      -0.739   6.570   8.912  0.00  0.00    -0.057 A 
ATOM     33  C   UNL     1       0.035   5.480   9.266  0.00  0.00    +0.002 A 
ATOM     34  C   UNL     1       1.176   5.660  10.026  0.00  0.00    +0.000 A 
ATOM     35  C   UNL     1       1.538   6.929  10.439  0.00  0.00    +0.000 A 
ATOM     36  C   UNL     1       0.761   8.018  10.089  0.00  0.00    +0.000 A 
ATOM     37  C   UNL     1      -0.377   7.838   9.325  0.00  0.00    +0.002 A 
ENDBRANCH  25  32
ENDBRANCH  22  25
ENDBRANCH  21  22
ENDBRANCH   9  21
TORSDOF 8
