REMARK  Name = ZINC03139440
REMARK  11 active torsions:
REMARK  status: ('A' for Active; 'I' for Inactive)
REMARK    1  A    between atoms: C_1  and  C_2
REMARK    2  A    between atoms: C_2  and  O_3
REMARK    3  A    between atoms: O_3  and  C_4
REMARK    4  A    between atoms: C_8  and  C_11
REMARK    5  A    between atoms: C_9  and  O_10
REMARK    6  A    between atoms: N_12  and  C_13
REMARK    7  A    between atoms: C_20  and  C_22
REMARK    8  A    between atoms: C_25  and  C_28
REMARK    9  A    between atoms: C_28  and  C_29
REMARK   10  A    between atoms: C_28  and  C_30
REMARK   11  A    between atoms: C_28  and  C_31
REMARK                            x       y       z     vdW  Elec       q    Type
REMARK                         _______ _______ _______ _____ _____    ______ ____
ROOT
ATOM      1  C   UNL     1      -6.700  -0.661   0.029  0.00  0.00    +0.066 A 
ATOM      2  C   UNL     1      -5.986  -1.867   0.020  0.00  0.00    +0.031 A 
ATOM      3  C   UNL     1      -4.610  -1.860   0.013  0.00  0.00    +0.050 A 
ATOM      4  C   UNL     1      -3.919  -0.656   0.016  0.00  0.00    +0.156 A 
ATOM      5  C   UNL     1      -4.624   0.560   0.026  0.00  0.00    +0.112 A 
ATOM      6  C   UNL     1      -6.019   0.552   0.032  0.00  0.00    +0.059 A 
ATOM      7  N   UNL     1      -3.694   1.549   0.033  0.00  0.00    -0.209 NA
ATOM      8  C   UNL     1      -2.503   1.007   0.019  0.00  0.00    +0.228 A 
ATOM      9  O   UNL     1      -2.606  -0.335   0.012  0.00  0.00    -0.435 OA
ENDROOT
BRANCH   8  10
ATOM     10  C   UNL     1      -1.230   1.759   0.017  0.00  0.00    +0.037 A 
ATOM     11  C   UNL     1      -0.013   1.076   0.008  0.00  0.00    +0.013 A 
ATOM     12  C   UNL     1       1.172   1.783   0.000  0.00  0.00    +0.005 A 
ATOM     13  C   UNL     1       1.155   3.167   0.008  0.00  0.00    -0.042 A 
ATOM     14  C   UNL     1      -0.048   3.850   0.023  0.00  0.00    +0.005 A 
ATOM     15  C   UNL     1      -1.240   3.155   0.031  0.00  0.00    +0.013 A 
BRANCH  13  16
ATOM     16  C   UNL     1       2.452   3.933  -0.002  0.00  0.00    -0.013 C 
ATOM     17  C   UNL     1       3.245   3.578  -1.261  0.00  0.00    +0.015 C 
ATOM     18  C   UNL     1       2.158   5.434   0.009  0.00  0.00    +0.015 C 
ATOM     19  C   UNL     1       3.271   3.565   1.238  0.00  0.00    +0.015 C 
ENDBRANCH  13  16
ENDBRANCH   8  10
BRANCH   1  21
ATOM     20  C   UNL     1      -8.715  -1.478  -0.764  0.00  0.00    +0.123 C 
ATOM     21  N   UNL     1      -8.069  -0.677   0.035  0.00  0.00    -0.255 NA
BRANCH  20  26
ATOM     22  C   UNL     1     -12.286  -0.675   0.104  0.00  0.00    +0.163 A 
ATOM     23  C   UNL     1     -12.963  -1.531  -0.750  0.00  0.00    +0.064 A 
ATOM     24  C   UNL     1     -12.261  -2.366  -1.605  0.00  0.00    +0.022 A 
ATOM     25  C   UNL     1     -10.883  -2.354  -1.614  0.00  0.00    +0.028 A 
ATOM     26  C   UNL     1     -10.185  -1.495  -0.758  0.00  0.00    +0.039 A 
ATOM     27  C   UNL     1     -10.896  -0.655   0.111  0.00  0.00    +0.167 A 
ATOM     28 BR   UNL     1     -13.200  -3.528  -2.764  0.00  0.00    -0.050 Br
BRANCH  27  29
ATOM     29  O   UNL     1     -10.229   0.179   0.951  0.00  0.00    -0.503 OA
ATOM     30  H   UNL     1     -10.046   1.051   0.576  0.00  0.00    +0.292 HD
ENDBRANCH  27  29
BRANCH  22  31
ATOM     31  O   UNL     1     -12.982   0.142   0.940  0.00  0.00    -0.489 OA
BRANCH  31  33
ATOM     32  C   UNL     1     -15.011   1.049   1.888  0.00  0.00    +0.048 C 
ATOM     33  C   UNL     1     -14.407   0.065   0.884  0.00  0.00    +0.226 C 
ENDBRANCH  31  33
ENDBRANCH  22  31
ENDBRANCH  20  26
ENDBRANCH   1  21
TORSDOF 7
