REMARK  Name = ZINC02256665
REMARK  4 active torsions:
REMARK  status: ('A' for Active; 'I' for Inactive)
REMARK    1  A    between atoms: C_1  and  O_2
REMARK    2  A    between atoms: O_2  and  C_3
REMARK    3  A    between atoms: C_6  and  C_9
REMARK    4  A    between atoms: C_20  and  C_22
REMARK                            x       y       z     vdW  Elec       q    Type
REMARK                         _______ _______ _______ _____ _____    ______ ____
ROOT
ATOM      1  C   UNL     1      -4.981  -2.629   0.035  0.00  0.00    +0.159 C 
ATOM      2  C   UNL     1      -5.308  -3.004   1.464  0.00  0.00    +0.027 C 
ATOM      3  C   UNL     1      -5.512  -4.306   1.747  0.00  0.00    +0.083 C 
ATOM      4  C   UNL     1      -5.822  -4.660   3.156  0.00  0.00    +0.042 A 
ATOM      5  C   UNL     1      -6.355  -5.897   3.492  0.00  0.00    +0.013 A 
ATOM      6  C   UNL     1      -6.630  -6.184   4.815  0.00  0.00    +0.001 A 
ATOM      7  C   UNL     1      -6.378  -5.245   5.799  0.00  0.00    +0.004 A 
ATOM      8  C   UNL     1      -5.846  -4.011   5.472  0.00  0.00    +0.046 A 
ATOM      9  C   UNL     1      -5.564  -3.710   4.152  0.00  0.00    +0.131 A 
ATOM     10  O   UNL     1      -5.035  -2.509   3.803  0.00  0.00    -0.479 OA
ATOM     11  C   UNL     1      -5.413  -1.962   2.538  0.00  0.00    +0.234 C 
ATOM     12  N   UNL     1      -5.436  -5.261   0.787  0.00  0.00    -0.213 NA
ATOM     13  C   UNL     1      -5.160  -5.023  -0.473  0.00  0.00    +0.237 C 
ATOM     14  N   UNL     1      -4.919  -3.743  -0.919  0.00  0.00    -0.208 N 
ATOM     15  N   UNL     1      -4.655  -3.841  -2.287  0.00  0.00    -0.251 N 
ATOM     16  C   UNL     1      -4.749  -5.163  -2.604  0.00  0.00    +0.203 C 
ATOM     17  N   UNL     1      -5.046  -5.842  -1.542  0.00  0.00    -0.205 NA
ATOM     18  H   UNL     1      -4.447  -3.112  -2.893  0.00  0.00    +0.171 HD
ENDROOT
BRANCH  11  19
ATOM     19  C   UNL     1      -6.834  -1.466   2.615  0.00  0.00    -0.002 A 
ATOM     20  C   UNL     1      -7.765  -2.150   3.375  0.00  0.00    +0.007 A 
ATOM     21  C   UNL     1      -9.068  -1.696   3.446  0.00  0.00    +0.001 A 
ATOM     22  C   UNL     1      -9.443  -0.558   2.755  0.00  0.00    +0.015 A 
ATOM     23  C   UNL     1      -8.512   0.126   1.994  0.00  0.00    +0.018 A 
ATOM     24  C   UNL     1      -7.206  -0.326   1.929  0.00  0.00    +0.022 A 
ATOM     25 BR   UNL     1      -9.023   1.682   1.049  0.00  0.00    -0.050 Br
ENDBRANCH  11  19
BRANCH   1  29
ATOM     26  C   UNL     1      -1.200  -0.637   0.010  0.00  0.00    +0.120 A 
ATOM     27  C   UNL     1      -2.375   0.101   0.019  0.00  0.00    +0.046 A 
ATOM     28  C   UNL     1      -3.596  -0.545   0.027  0.00  0.00    +0.009 A 
ATOM     29  C   UNL     1      -3.648  -1.927   0.026  0.00  0.00    -0.021 A 
ATOM     30  C   UNL     1      -2.479  -2.665   0.017  0.00  0.00    +0.009 A 
ATOM     31  C   UNL     1      -1.255  -2.024   0.003  0.00  0.00    +0.046 A 
BRANCH  26  33
ATOM     32  C   UNL     1      -0.017   1.425   0.010  0.00  0.00    +0.277 C 
ATOM     33  O   UNL     1       0.002  -0.004   0.002  0.00  0.00    -0.495 OA
ENDBRANCH  26  33
ENDBRANCH   1  29
TORSDOF 3
