REMARK  Name = ZINC02319525
REMARK  6 active torsions:
REMARK  status: ('A' for Active; 'I' for Inactive)
REMARK    1  A    between atoms: C_1  and  C_2
REMARK    2  A    between atoms: C_5  and  C_8
REMARK    3  A    between atoms: C_8  and  S_9
REMARK    4  A    between atoms: S_9  and  C_10
REMARK    5  A    between atoms: N_16  and  C_17
REMARK    6  A    between atoms: C_20  and  C_23
REMARK                            x       y       z     vdW  Elec       q    Type
REMARK                         _______ _______ _______ _____ _____    ______ ____
ROOT
ATOM      1  C   UNL     1       4.700   4.122   0.384  0.00  0.00    +0.177 A 
ATOM      2  N   UNL     1       3.593   3.408   0.428  0.00  0.00    -0.222 NA
ATOM      3  C   UNL     1       2.418   3.940   0.071  0.00  0.00    +0.083 A 
ATOM      4  C   UNL     1       2.353   5.266  -0.327  0.00  0.00    +0.050 A 
ATOM      5  C   UNL     1       3.533   6.018  -0.380  0.00  0.00    +0.263 A 
ATOM      6  O   UNL     1       3.514   7.184  -0.739  0.00  0.00    -0.267 OA
ATOM      7  N   UNL     1       4.693   5.423  -0.026  0.00  0.00    -0.256 N 
ATOM      8  C   UNL     1       1.028   5.892  -0.669  0.00  0.00    +0.007 C 
ATOM      9  C   UNL     1       1.257   7.097  -1.585  0.00  0.00    +0.012 C 
ATOM     10  C   UNL     1      -0.088   7.740  -1.929  0.00  0.00    +0.001 C 
ATOM     11  C   UNL     1      -0.774   8.205  -0.643  0.00  0.00    +0.000 C 
ATOM     12  C   UNL     1      -1.002   7.003   0.277  0.00  0.00    +0.001 C 
ATOM     13  C   UNL     1       0.344   6.361   0.619  0.00  0.00    +0.012 C 
ATOM     14  C   UNL     1       0.129   4.880  -1.379  0.00  0.00    +0.047 C 
ATOM     15  C   UNL     1       0.059   3.594  -0.602  0.00  0.00    -0.037 A 
ATOM     16  C   UNL     1       1.179   3.132   0.091  0.00  0.00    +0.004 A 
ATOM     17  C   UNL     1       1.124   1.921   0.775  0.00  0.00    +0.010 A 
ATOM     18  C   UNL     1      -0.049   1.192   0.786  0.00  0.00    +0.001 A 
ATOM     19  C   UNL     1      -1.162   1.661   0.111  0.00  0.00    +0.000 A 
ATOM     20  C   UNL     1      -1.110   2.860  -0.577  0.00  0.00    +0.004 A 
ENDROOT
BRANCH   7  21
ATOM     21  C   UNL     1       5.892   6.146  -0.078  0.00  0.00    +0.052 A 
ATOM     22  C   UNL     1       6.319   6.866   1.030  0.00  0.00    +0.026 A 
ATOM     23  C   UNL     1       7.505   7.573   0.977  0.00  0.00    +0.005 A 
ATOM     24  C   UNL     1       8.260   7.572  -0.181  0.00  0.00    -0.050 A 
ATOM     25  C   UNL     1       7.835   6.861  -1.288  0.00  0.00    +0.005 A 
ATOM     26  C   UNL     1       6.653   6.148  -1.240  0.00  0.00    +0.026 A 
ATOM     27  C   UNL     1       9.550   8.350  -0.238  0.00  0.00    +0.044 C 
ENDBRANCH   7  21
BRANCH   1  28
ATOM     28  S   UNL     1       6.224   3.378   0.862  0.00  0.00    -0.083 S 
BRANCH  28  29
ATOM     29  C   UNL     1       5.643   1.718   1.289  0.00  0.00    +0.112 C 
BRANCH  29  34
ATOM     30  C   UNL     1      10.117  -1.505   3.020  0.00  0.00    +0.044 C 
ATOM     31  C   UNL     1       8.950  -0.664   2.568  0.00  0.00    -0.050 A 
ATOM     32  C   UNL     1       8.233   0.075   3.490  0.00  0.00    +0.003 A 
ATOM     33  C   UNL     1       7.163   0.846   3.076  0.00  0.00    +0.005 A 
ATOM     34  C   UNL     1       6.810   0.877   1.740  0.00  0.00    -0.037 A 
ATOM     35  C   UNL     1       7.523   0.134   0.819  0.00  0.00    +0.005 A 
ATOM     36  C   UNL     1       8.596  -0.633   1.232  0.00  0.00    +0.003 A 
ENDBRANCH  29  34
ENDBRANCH  28  29
ENDBRANCH   1  28
TORSDOF 4
