REMARK  Name = ZINC21374099
REMARK  7 active torsions:
REMARK  status: ('A' for Active; 'I' for Inactive)
REMARK    1  A    between atoms: C_3  and  O_8
REMARK    2  A    between atoms: O_8  and  C_9
REMARK    3  A    between atoms: C_9  and  C_10
REMARK    4  A    between atoms: C_13  and  S_16
REMARK    5  A    between atoms: N_14  and  N_15
REMARK    6  A    between atoms: S_16  and  C_17
REMARK    7  A    between atoms: C_17  and  C_18
REMARK                            x       y       z     vdW  Elec       q    Type
REMARK                         _______ _______ _______ _____ _____    ______ ____
ROOT
ATOM      1  C   UNL     1      -0.723   1.911   1.250  0.00  0.00    +0.189 A 
ATOM      2  N   UNL     1      -0.170   2.170   2.401  0.00  0.00    -0.128 NA
ATOM      3  N   UNL     1      -1.061   2.565   3.239  0.00  0.00    -0.121 NA
ATOM      4  C   UNL     1      -2.240   2.580   2.662  0.00  0.00    +0.209 A 
ATOM      5  N   UNL     1      -2.060   2.167   1.373  0.00  0.00    -0.225 N 
ENDROOT
BRANCH   5   6
ATOM      6  N   UNL     1      -3.018   2.036   0.408  0.00  0.00    -0.295 N 
ATOM      7  H   UNL     1      -4.066   2.276   0.637  0.00  0.00    +0.163 HD
ATOM      8  H   UNL     1      -2.740   1.689  -0.598  0.00  0.00    +0.163 HD
ENDBRANCH   5   6
BRANCH   1   9
ATOM      9  C   UNL     1      -0.017   1.425   0.010  0.00  0.00    +0.306 C 
BRANCH   9  10
ATOM     10  O   UNL     1       0.002  -0.004   0.002  0.00  0.00    -0.484 OA
BRANCH  10  13
ATOM     11  C   UNL     1       1.275  -2.603  -2.204  0.00  0.00    +0.005 A 
ATOM     12  C   UNL     1       0.661  -1.991  -1.128  0.00  0.00    +0.046 A 
ATOM     13  C   UNL     1       0.606  -0.607  -1.056  0.00  0.00    +0.122 A 
ATOM     14  C   UNL     1       1.163   0.161  -2.068  0.00  0.00    +0.061 A 
ATOM     15  C   UNL     1       1.781  -0.455  -3.140  0.00  0.00    +0.021 A 
ATOM     16  C   UNL     1       1.834  -1.836  -3.209  0.00  0.00    +0.015 A 
ATOM     17 BR   UNL     1       2.547   0.590  -4.517  0.00  0.00    -0.050 Br
ENDBRANCH  10  13
ENDBRANCH   9  10
ENDBRANCH   1   9
BRANCH   4  18
ATOM     18  S   UNL     1      -3.766   3.049   3.409  0.00  0.00    -0.079 S 
BRANCH  18  19
ATOM     19  C   UNL     1      -3.188   3.459   5.074  0.00  0.00    +0.119 C 
BRANCH  19  20
ATOM     20  C   UNL     1      -4.356   3.901   5.917  0.00  0.00    +0.001 A 
ATOM     21  C   UNL     1      -5.177   3.154   6.695  0.00  0.00    +0.013 A 
ATOM     22  C   UNL     1      -6.196   3.780   7.389  0.00  0.00    +0.028 A 
ATOM     23  C   UNL     1      -6.344   5.123   7.269  0.00  0.00    +0.078 A 
ATOM     24  S   UNL     1      -5.013   5.543   6.155  0.00  0.00    -0.081 S 
ATOM     25 CL   UNL     1      -7.518   6.165   8.012  0.00  0.00    -0.076 Cl
ENDBRANCH  19  20
ENDBRANCH  18  19
ENDBRANCH   4  18
TORSDOF 7
