REMARK  Name = ZINC39602499
REMARK  5 active torsions:
REMARK  status: ('A' for Active; 'I' for Inactive)
REMARK    1  A    between atoms: C_4  and  C_7
REMARK    2  A    between atoms: C_10  and  N_12
REMARK    3  A    between atoms: C_13  and  C_15
REMARK    4  A    between atoms: C_26  and  C_28
REMARK    5  A    between atoms: C_31  and  C_33
REMARK                            x       y       z     vdW  Elec       q    Type
REMARK                         _______ _______ _______ _____ _____    ______ ____
ROOT
ATOM      1  C   UNL     1       7.028  -2.198  -3.472  0.00  0.00    +0.100 C 
ATOM      2  C   UNL     1       7.675  -0.796  -3.534  0.00  0.00    +0.121 C 
ATOM      3  N   UNL     1       8.519  -0.827  -4.751  0.00  0.00    -0.294 N 
ATOM      4  C   UNL     1       7.713  -1.581  -5.741  0.00  0.00    +0.115 C 
ATOM      5  C   UNL     1       7.054  -2.709  -4.923  0.00  0.00    -0.004 C 
ATOM      6  C   UNL     1       5.633  -2.960  -5.420  0.00  0.00    -0.010 C 
ATOM      7  C   UNL     1       5.688  -3.523  -6.843  0.00  0.00    -0.082 C 
ATOM      8  N   UNL     1       6.458  -4.773  -6.848  0.00  0.00    +0.379 N 
ATOM      9  C   UNL     1       7.847  -4.506  -6.457  0.00  0.00    -0.082 C 
ATOM     10  C   UNL     1       7.884  -3.985  -5.018  0.00  0.00    -0.010 C 
ATOM     11  C   UNL     1       9.744  -0.291  -4.920  0.00  0.00    +0.282 C 
ATOM     12  O   UNL     1      10.315  -0.402  -5.990  0.00  0.00    -0.267 OA
ATOM     13  H   UNL     1       6.045  -5.423  -6.196  0.00  0.00    -0.086 HD
ATOM     14  H   UNL     1       6.441  -5.173  -7.774  0.00  0.00    -0.086 HD
ENDROOT
BRANCH  11  15
ATOM     15  C   UNL     1      10.389   0.425  -3.817  0.00  0.00    +0.190 A 
ATOM     16  C   UNL     1      11.630   1.022  -3.856  0.00  0.00    +0.055 A 
ATOM     17  C   UNL     1      11.848   1.584  -2.594  0.00  0.00    +0.051 A 
ATOM     18  C   UNL     1      10.743   1.313  -1.838  0.00  0.00    +0.139 A 
ATOM     19  O   UNL     1       9.869   0.619  -2.587  0.00  0.00    -0.450 OA
BRANCH  18  20
ATOM     20  C   UNL     1      10.540   1.720  -0.434  0.00  0.00    +0.052 A 
ATOM     21  C   UNL     1      11.531   1.472   0.519  0.00  0.00    +0.014 A 
ATOM     22  C   UNL     1      11.336   1.855   1.829  0.00  0.00    +0.001 A 
ATOM     23  C   UNL     1      10.160   2.483   2.203  0.00  0.00    +0.003 A 
ATOM     24  C   UNL     1       9.173   2.732   1.267  0.00  0.00    +0.039 A 
ATOM     25  C   UNL     1       9.357   2.360  -0.051  0.00  0.00    +0.134 A 
ATOM     26  F   UNL     1       8.395   2.609  -0.966  0.00  0.00    -0.205 F 
ENDBRANCH  18  20
ENDBRANCH  11  15
BRANCH   1  28
ATOM     27  N   UNL     1       5.053  -3.132  -2.312  0.00  0.00    -0.312 N 
ATOM     28  C   UNL     1       5.608  -2.099  -2.976  0.00  0.00    +0.218 C 
ATOM     29  O   UNL     1       4.965  -1.090  -3.175  0.00  0.00    -0.275 OA
ATOM     30  H   UNL     1       5.567  -3.939  -2.153  0.00  0.00    +0.149 HD
BRANCH  27  33
ATOM     31  C   UNL     1       3.280  -3.906  -0.634  0.00  0.00    +0.041 C 
ATOM     32  C   UNL     1       2.767  -4.252  -2.034  0.00  0.00    +0.033 C 
ATOM     33  C   UNL     1       3.673  -3.036  -1.829  0.00  0.00    +0.081 C 
BRANCH  31  37
ATOM     34  C   UNL     1       0.476  -2.283   2.150  0.00  0.00    +0.000 A 
ATOM     35  C   UNL     1       1.740  -2.647   2.574  0.00  0.00    +0.000 A 
ATOM     36  C   UNL     1       2.648  -3.172   1.673  0.00  0.00    +0.004 A 
ATOM     37  C   UNL     1       2.291  -3.334   0.348  0.00  0.00    -0.042 A 
ATOM     38  C   UNL     1       1.026  -2.971  -0.077  0.00  0.00    +0.004 A 
ATOM     39  C   UNL     1       0.119  -2.445   0.824  0.00  0.00    +0.000 A 
ENDBRANCH  31  37
ENDBRANCH  27  33
ENDBRANCH   1  28
TORSDOF 5
