REMARK  Name = ZINC59890724
REMARK  12 active torsions:
REMARK  status: ('A' for Active; 'I' for Inactive)
REMARK    1  A    between atoms: C_1  and  C_2
REMARK    2  A    between atoms: C_3  and  C_13
REMARK    3  A    between atoms: C_4  and  C_12
REMARK    4  A    between atoms: C_9  and  C_10
REMARK    5  A    between atoms: C_13  and  C_14
REMARK    6  A    between atoms: C_14  and  C_15
REMARK    7  A    between atoms: N_17  and  C_18
REMARK    8  A    between atoms: C_18  and  C_19
REMARK    9  A    between atoms: C_19  and  N_27
REMARK   10  A    between atoms: C_23  and  C_26
REMARK   11  A    between atoms: N_27  and  C_28
REMARK   12  A    between atoms: N_27  and  C_29
REMARK                            x       y       z     vdW  Elec       q    Type
REMARK                         _______ _______ _______ _____ _____    ______ ____
ROOT
ATOM      1  C   UNL     1      -3.928   1.150   1.626  0.00  0.00    +0.213 C 
ATOM      2  O   UNL     1      -4.459   1.360   0.557  0.00  0.00    -0.276 OA
ATOM      3  N   UNL     1      -4.526   1.549   2.766  0.00  0.00    -0.317 N 
ATOM      4  H   UNL     1      -4.101   1.381   3.622  0.00  0.00    +0.149 HD
ENDROOT
BRANCH   1   5
ATOM      5  C   UNL     1      -2.597   0.444   1.681  0.00  0.00    +0.100 C 
BRANCH   5   6
ATOM      6  C   UNL     1      -2.143   0.103   0.260  0.00  0.00    +0.046 C 
BRANCH   6   9
ATOM      7  C   UNL     1       0.326   1.645   0.379  0.00  0.00    +0.045 C 
ATOM      8  C   UNL     1       0.368   0.139   0.371  0.00  0.00    -0.023 A 
ATOM      9  C   UNL     1      -0.812  -0.603   0.315  0.00  0.00    -0.024 A 
ATOM     10  C   UNL     1      -0.765  -1.959   0.309  0.00  0.00    +0.019 A 
ATOM     11  N   UNL     1       0.416  -2.621   0.357  0.00  0.00    -0.325 N 
ATOM     12  H   UNL     1       0.421  -3.591   0.352  0.00  0.00    +0.169 HD
ATOM     13  C   UNL     1       1.585  -1.954   0.413  0.00  0.00    +0.267 A 
ATOM     14  O   UNL     1       2.638  -2.567   0.455  0.00  0.00    -0.266 OA
ATOM     15  C   UNL     1       1.586  -0.534   0.415  0.00  0.00    +0.119 A 
ATOM     16  C   UNL     1      -2.050  -2.744   0.247  0.00  0.00    +0.063 C 
BRANCH  15  17
ATOM     17  C   UNL     1       2.819   0.193   0.468  0.00  0.00    +0.105 C 
ATOM     18  N   UNL     1       3.797   0.769   0.510  0.00  0.00    -0.191 NA
ENDBRANCH  15  17
ENDBRANCH   6   9
ENDBRANCH   5   6
ENDBRANCH   1   5
BRANCH   3  19
ATOM     19  C   UNL     1      -5.819   2.235   2.713  0.00  0.00    +0.092 C 
BRANCH  19  20
ATOM     20  C   UNL     1      -6.342   2.449   4.135  0.00  0.00    -0.050 C 
ATOM     21  C   UNL     1      -5.410   3.406   4.882  0.00  0.00    -0.010 C 
ATOM     22  C   UNL     1      -5.363   4.748   4.149  0.00  0.00    -0.001 C 
ATOM     23  C   UNL     1      -6.770   5.347   4.091  0.00  0.00    +0.003 C 
ATOM     24  C   UNL     1      -7.701   4.390   3.344  0.00  0.00    -0.015 C 
ATOM     25  C   UNL     1      -7.748   3.048   4.077  0.00  0.00    -0.007 C 
ATOM     26  C   UNL     1      -9.108   4.989   3.286  0.00  0.00    +0.007 C 
BRANCH  20  27
ATOM     27  N   UNL     1      -6.387   1.160   4.839  0.00  0.00    +0.381 N 
ATOM     28  C   UNL     1      -6.922   1.360   6.193  0.00  0.00    -0.096 C 
ATOM     29  C   UNL     1      -7.253   0.230   4.103  0.00  0.00    -0.096 C 
ATOM     30  H   UNL     1      -5.456   0.777   4.899  0.00  0.00    -0.082 HD
ENDBRANCH  20  27
ENDBRANCH  19  20
ENDBRANCH   3  19
TORSDOF 7
