REMARK  Name = ZINC23504823
REMARK  2 active torsions:
REMARK  status: ('A' for Active; 'I' for Inactive)
REMARK    1  A    between atoms: C_8  and  C_12
REMARK    2  A    between atoms: C_8  and  O_26
REMARK                            x       y       z     vdW  Elec       q    Type
REMARK                         _______ _______ _______ _____ _____    ______ ____
ROOT
ATOM      1  C   UNL     1       1.204  -0.681  -0.013  0.00  0.00    +0.017 A 
ATOM      2  C   UNL     1       0.002  -0.004   0.002  0.00  0.00    +0.025 A 
ATOM      3  C   UNL     1      -0.017   1.389   0.010  0.00  0.00    +0.040 A 
ATOM      4  C   UNL     1       1.190   2.078   0.002  0.00  0.00    +0.016 A 
ATOM      5  C   UNL     1       2.388   1.402  -0.013  0.00  0.00    +0.024 A 
ATOM      6  C   UNL     1       2.399   0.017  -0.020  0.00  0.00    +0.018 A 
ATOM      7 BR   UNL     1       4.043  -0.918  -0.041  0.00  0.00    -0.050 Br
ATOM      8  C   UNL     1       0.839   3.549   0.013  0.00  0.00    +0.178 C 
ATOM      9  C   UNL     1      -0.674   3.566   0.028  0.00  0.00    +0.254 C 
ATOM     10  O   UNL     1      -1.383   4.550   0.040  0.00  0.00    -0.272 OA
ATOM     11  N   UNL     1      -1.085   2.287   0.019  0.00  0.00    -0.282 N 
ATOM     12  H   UNL     1      -2.119   1.911   0.019  0.00  0.00    +0.155 HD
ENDROOT
BRANCH   8  13
ATOM     13  C   UNL     1       1.371   4.236  -1.246  0.00  0.00    +0.100 C 
ATOM     14  C   UNL     1       1.004   5.721  -1.210  0.00  0.00    +0.015 C 
ATOM     15  C   UNL     1       2.281   6.563  -1.233  0.00  0.00    +0.001 C 
ATOM     16  C   UNL     1       2.174   7.622  -2.331  0.00  0.00    +0.000 C 
ATOM     17  C   UNL     1       3.403   7.542  -3.239  0.00  0.00    +0.000 C 
ATOM     18  C   UNL     1       2.953   7.391  -4.694  0.00  0.00    +0.000 C 
ATOM     19  C   UNL     1       3.650   6.182  -5.320  0.00  0.00    +0.000 C 
ATOM     20  C   UNL     1       2.603   5.253  -5.939  0.00  0.00    +0.000 C 
ATOM     21  C   UNL     1       2.775   3.842  -5.375  0.00  0.00    +0.000 C 
ATOM     22  C   UNL     1       1.433   3.341  -4.837  0.00  0.00    +0.007 C 
ATOM     23  C   UNL     1       1.621   2.807  -3.416  0.00  0.00    +0.075 C 
ATOM     24  C   UNL     1       0.758   3.596  -2.465  0.00  0.00    +0.140 C 
ATOM     25  O   UNL     1      -0.424   3.716  -2.680  0.00  0.00    -0.297 OA
ENDBRANCH   8  13
BRANCH   8  26
ATOM     26  O   UNL     1       1.361   4.179   1.185  0.00  0.00    -0.374 OA
ATOM     27  H   UNL     1       1.196   5.253   1.351  0.00  0.00    +0.211 HD
ENDBRANCH   8  26
TORSDOF 2
