REMARK  Name = ZINC31702576
REMARK  14 active torsions:
REMARK  status: ('A' for Active; 'I' for Inactive)
REMARK    1  A    between atoms: C_1  and  C_2
REMARK    2  A    between atoms: C_2  and  O_3
REMARK    3  A    between atoms: O_3  and  C_4
REMARK    4  A    between atoms: N_6  and  C_7
REMARK    5  A    between atoms: C_7  and  C_9
REMARK    6  A    between atoms: C_7  and  C_13
REMARK    7  A    between atoms: C_9  and  C_10
REMARK    8  A    between atoms: C_10  and  C_11
REMARK    9  A    between atoms: C_10  and  C_12
REMARK   10  A    between atoms: C_13  and  N_14
REMARK   11  A    between atoms: C_15  and  C_17
REMARK   12  A    between atoms: C_20  and  C_23
REMARK   13  A    between atoms: C_23  and  N_24
REMARK   14  A    between atoms: C_25  and  C_27
REMARK                            x       y       z     vdW  Elec       q    Type
REMARK                         _______ _______ _______ _____ _____    ______ ____
ROOT
ATOM      1  C   UNL     1      -4.502  -1.141   0.017  0.00  0.00    +0.037 A 
ATOM      2  C   UNL     1      -3.970  -0.685   1.224  0.00  0.00    +0.013 A 
ATOM      3  C   UNL     1      -2.933   0.225   1.217  0.00  0.00    +0.006 A 
ATOM      4  C   UNL     1      -2.422   0.686   0.017  0.00  0.00    -0.030 A 
ATOM      5  C   UNL     1      -2.949   0.242  -1.183  0.00  0.00    +0.006 A 
ATOM      6  C   UNL     1      -3.982  -0.672  -1.190  0.00  0.00    +0.013 A 
ENDROOT
BRANCH   1   8
ATOM      7  N   UNL     1      -6.125  -2.555  -1.150  0.00  0.00    -0.310 N 
ATOM      8  C   UNL     1      -5.613  -2.117   0.017  0.00  0.00    +0.244 C 
ATOM      9  O   UNL     1      -6.064  -2.524   1.070  0.00  0.00    -0.270 OA
ATOM     10  H   UNL     1      -5.717  -2.186  -2.103  0.00  0.00    +0.149 HD
BRANCH   7  11
ATOM     11  C   UNL     1      -7.226  -3.522  -1.150  0.00  0.00    +0.126 C 
BRANCH  11  12
ATOM     12  C   UNL     1      -7.616  -3.850  -2.592  0.00  0.00    +0.093 C 
BRANCH  12  15
ATOM     13  C   UNL     1      -6.379  -4.181  -4.666  0.00  0.00    +0.401 C 
ATOM     14  O   UNL     1      -7.311  -3.682  -5.266  0.00  0.00    -0.226 OA
ATOM     15  N   UNL     1      -6.434  -4.311  -3.326  0.00  0.00    -0.277 N 
ATOM     16  H   UNL     1      -5.591  -4.762  -2.782  0.00  0.00    +0.152 HD
BRANCH  13  17
ATOM     17  O   UNL     1      -5.293  -4.604  -5.340  0.00  0.00    -0.451 OA
BRANCH  17  19
ATOM     18  C   UNL     1      -3.996  -4.967  -7.368  0.00  0.00    +0.048 C 
ATOM     19  C   UNL     1      -5.304  -4.432  -6.782  0.00  0.00    +0.230 C 
ENDBRANCH  17  19
ENDBRANCH  13  17
ENDBRANCH  12  15
BRANCH  12  20
ATOM     20  C   UNL     1      -8.678  -4.951  -2.595  0.00  0.00    +0.027 C 
BRANCH  20  21
ATOM     21  C   UNL     1      -9.159  -5.193  -4.028  0.00  0.00    -0.015 C 
ATOM     22  C   UNL     1     -10.128  -6.376  -4.048  0.00  0.00    +0.007 C 
ATOM     23  C   UNL     1      -9.871  -3.941  -4.544  0.00  0.00    +0.007 C 
ENDBRANCH  20  21
ENDBRANCH  12  20
ENDBRANCH  11  12
ENDBRANCH   7  11
ENDBRANCH   1   8
BRANCH   4  24
ATOM     24  C   UNL     1      -1.290   1.681   0.017  0.00  0.00    +0.139 C 
BRANCH  24  25
ATOM     25  N   UNL     1      -0.011   0.966   0.007  0.00  0.00    -0.311 N 
ATOM     26  C   UNL     1       1.147   1.655   0.000  0.00  0.00    +0.219 C 
ATOM     27  O   UNL     1       1.130   2.868   0.007  0.00  0.00    -0.275 OA
ATOM     28  H   UNL     1       0.004  -0.134   0.006  0.00  0.00    +0.149 HD
BRANCH  26  29
ATOM     29  C   UNL     1       2.462   0.920  -0.017  0.00  0.00    +0.048 C 
ATOM     30  C   UNL     1       2.567   0.035   1.227  0.00  0.00    +0.019 C 
ATOM     31  C   UNL     1       3.902  -0.712   1.210  0.00  0.00    -0.009 C 
ATOM     32  C   UNL     1       5.051   0.298   1.205  0.00  0.00    +0.007 C 
ATOM     33  C   UNL     1       4.946   1.183  -0.039  0.00  0.00    -0.009 C 
ATOM     34  C   UNL     1       3.611   1.930  -0.022  0.00  0.00    +0.019 C 
ATOM     35  C   UNL     1       5.027   0.311  -1.294  0.00  0.00    +0.007 C 
ATOM     36  C   UNL     1       3.878  -0.699  -1.288  0.00  0.00    -0.009 C 
ATOM     37  C   UNL     1       3.983  -1.584  -0.044  0.00  0.00    +0.007 C 
ATOM     38  C   UNL     1       2.543   0.048  -1.271  0.00  0.00    +0.019 C 
ENDBRANCH  26  29
ENDBRANCH  24  25
ENDBRANCH   4  24
TORSDOF 11
