REMARK  Name = ZINC15230438
REMARK  12 active torsions:
REMARK  status: ('A' for Active; 'I' for Inactive)
REMARK    1  A    between atoms: C_1  and  C_2
REMARK    2  A    between atoms: C_2  and  C_3
REMARK    3  A    between atoms: C_6  and  N_9
REMARK    4  A    between atoms: C_10  and  C_12
REMARK    5  A    between atoms: C_12  and  O_13
REMARK    6  A    between atoms: O_13  and  C_14
REMARK    7  A    between atoms: C_17  and  C_23
REMARK    8  A    between atoms: C_19  and  O_20
REMARK    9  A    between atoms: O_20  and  C_21
REMARK   10  A    between atoms: C_21  and  C_22
REMARK   11  A    between atoms: N_27  and  C_31
REMARK   12  A    between atoms: C_31  and  C_32
REMARK                            x       y       z     vdW  Elec       q    Type
REMARK                         _______ _______ _______ _____ _____    ______ ____
ROOT
ATOM      1  C   UNL     1      -2.662   6.031   8.320  0.00  0.00    +0.163 A 
ATOM      2  C   UNL     1      -3.870   5.604   8.854  0.00  0.00    +0.050 A 
ATOM      3  C   UNL     1      -4.363   6.185  10.001  0.00  0.00    +0.012 A 
ATOM      4  C   UNL     1      -3.651   7.217  10.625  0.00  0.00    -0.020 A 
ATOM      5  C   UNL     1      -2.436   7.650  10.082  0.00  0.00    +0.057 A 
ATOM      6  C   UNL     1      -1.946   7.058   8.934  0.00  0.00    +0.162 A 
ENDROOT
BRANCH   4   7
ATOM      7  C   UNL     1      -4.178   7.843  11.845  0.00  0.00    +0.028 C 
ATOM      8  C   UNL     1      -5.435   7.553  12.268  0.00  0.00    +0.077 C 
ATOM      9  C   UNL     1      -6.110   7.915  13.530  0.00  0.00    +0.258 C 
ATOM     10  O   UNL     1      -5.549   8.569  14.390  0.00  0.00    -0.269 OA
ATOM     11  N   UNL     1      -7.354   7.493  13.679  0.00  0.00    -0.253 N 
ATOM     12  C   UNL     1      -7.972   6.769  12.723  0.00  0.00    +0.121 C 
ATOM     13  S   UNL     1      -9.563   6.138  12.729  0.00  0.00    -0.027 S 
ATOM     14  S   UNL     1      -6.731   6.635  11.446  0.00  0.00    -0.061 S 
BRANCH  11  15
ATOM     15  C   UNL     1      -8.079   7.820  14.909  0.00  0.00    +0.146 C 
BRANCH  15  16
ATOM     16  C   UNL     1      -8.815   9.149  14.729  0.00  0.00    +0.136 C 
ATOM     17  C   UNL     1      -9.517   9.557  16.044  0.00  0.00    +0.035 C 
ATOM     18  C   UNL     1     -10.843  10.198  15.579  0.00  0.00    +0.031 C 
ATOM     19  C   UNL     1     -10.787  10.101  14.038  0.00  0.00    +0.160 C 
ATOM     20  O   UNL     1      -9.883   9.006  13.768  0.00  0.00    -0.375 OA
ENDBRANCH  15  16
ENDBRANCH  11  15
ENDBRANCH   4   7
BRANCH   1  21
ATOM     21  O   UNL     1      -2.178   5.450   7.191  0.00  0.00    -0.479 OA
BRANCH  21  22
ATOM     22  C   UNL     1      -2.961   4.404   6.612  0.00  0.00    +0.325 C 
BRANCH  22  24
ATOM     23  N   UNL     1      -2.830   2.888   4.662  0.00  0.00    -0.283 N 
ATOM     24  C   UNL     1      -2.271   3.885   5.377  0.00  0.00    +0.255 C 
ATOM     25  O   UNL     1      -1.213   4.363   5.026  0.00  0.00    -0.272 OA
ATOM     26  H   UNL     1      -3.713   2.561   4.894  0.00  0.00    +0.155 HD
BRANCH  23  30
ATOM     27  C   UNL     1      -0.765   1.214   1.454  0.00  0.00    -0.048 A 
ATOM     28  C   UNL     1      -2.148   1.237   1.448  0.00  0.00    +0.005 A 
ATOM     29  C   UNL     1      -2.836   1.787   2.512  0.00  0.00    +0.023 A 
ATOM     30  C   UNL     1      -2.137   2.326   3.584  0.00  0.00    +0.034 A 
ATOM     31  C   UNL     1      -0.748   2.306   3.585  0.00  0.00    +0.023 A 
ATOM     32  C   UNL     1      -0.067   1.750   2.520  0.00  0.00    +0.005 A 
BRANCH  27  34
ATOM     33  C   UNL     1       0.216  -0.880   0.559  0.00  0.00    +0.009 C 
ATOM     34  C   UNL     1      -0.018   0.608   0.294  0.00  0.00    +0.032 C 
ENDBRANCH  27  34
ENDBRANCH  23  30
ENDBRANCH  22  24
ENDBRANCH  21  22
ENDBRANCH   1  21
BRANCH   6  35
ATOM     35  O   UNL     1      -0.766   7.476   8.404  0.00  0.00    -0.489 OA
BRANCH  35  36
ATOM     36  C   UNL     1      -0.086   8.532   9.085  0.00  0.00    +0.226 C 
ATOM     37  C   UNL     1       1.211   8.864   8.346  0.00  0.00    +0.048 C 
ENDBRANCH  35  36
ENDBRANCH   6  35
TORSDOF 10
