REMARK  Name = ZINC09360493
REMARK  6 active torsions:
REMARK  status: ('A' for Active; 'I' for Inactive)
REMARK    1  A    between atoms: C_1  and  C_2
REMARK    2  A    between atoms: C_2  and  C_29
REMARK    3  A    between atoms: C_4  and  N_9
REMARK    4  A    between atoms: C_12  and  O_14
REMARK    5  A    between atoms: C_15  and  C_22
REMARK    6  A    between atoms: C_19  and  O_21
REMARK                            x       y       z     vdW  Elec       q    Type
REMARK                         _______ _______ _______ _____ _____    ______ ____
ROOT
ATOM      1  N   UNL     1      -2.774  -2.579   0.152  0.00  0.00    -0.240 N 
ATOM      2  C   UNL     1      -3.378  -3.424  -0.755  0.00  0.00    +0.163 A 
ATOM      3  C   UNL     1      -4.644  -3.658  -0.291  0.00  0.00    +0.076 A 
ATOM      4  C   UNL     1      -4.801  -2.934   0.910  0.00  0.00    +0.238 A 
ATOM      5  N   UNL     1      -3.688  -2.302   1.169  0.00  0.00    -0.131 NA
ATOM      6  C   UNL     1      -5.734  -4.512  -0.864  0.00  0.00    +0.115 C 
ATOM      7  S   UNL     1      -5.722  -4.543  -2.660  0.00  0.00    -0.138 S 
ATOM      8  C   UNL     1      -4.201  -5.382  -3.126  0.00  0.00    +0.165 C 
ATOM      9  C   UNL     1      -2.987  -4.593  -2.828  0.00  0.00    +0.199 C 
ATOM     10  N   UNL     1      -2.731  -3.852  -1.852  0.00  0.00    -0.197 NA
ENDROOT
BRANCH   1  14
ATOM     11  C   UNL     1      -0.019   1.526   0.010  0.00  0.00    +0.041 C 
ATOM     12  C   UNL     1       0.002  -0.004   0.002  0.00  0.00    +0.066 C 
ATOM     13  C   UNL     1      -1.434  -0.534   0.014  0.00  0.00    +0.061 C 
ATOM     14  C   UNL     1      -1.405  -2.065   0.067  0.00  0.00    +0.114 C 
ATOM     15  C   UNL     1      -0.611  -2.507   1.300  0.00  0.00    +0.055 C 
ATOM     16  C   UNL     1       0.793  -1.901   1.238  0.00  0.00    +0.162 C 
ATOM     17  O   UNL     1       0.693  -0.478   1.160  0.00  0.00    -0.374 OA
ATOM     18  C   UNL     1       0.718  -0.498  -1.257  0.00  0.00    +0.041 C 
ENDBRANCH   1  14
BRANCH   6  19
ATOM     19  C   UNL     1      -7.065  -3.979  -0.399  0.00  0.00    -0.030 A 
ATOM     20  C   UNL     1      -7.442  -2.688  -0.718  0.00  0.00    +0.008 A 
ATOM     21  C   UNL     1      -8.662  -2.198  -0.292  0.00  0.00    +0.038 A 
ATOM     22  C   UNL     1      -9.507  -3.002   0.455  0.00  0.00    +0.123 A 
ATOM     23  C   UNL     1      -9.128  -4.295   0.774  0.00  0.00    +0.038 A 
ATOM     24  C   UNL     1      -7.910  -4.784   0.343  0.00  0.00    +0.008 A 
ATOM     25  F   UNL     1     -10.700  -2.524   0.873  0.00  0.00    -0.205 F 
ENDBRANCH   6  19
BRANCH   4  26
ATOM     26  O   UNL     1      -5.925  -2.905   1.675  0.00  0.00    -0.491 OA
ATOM     27  H   UNL     1      -5.957  -3.592   2.354  0.00  0.00    +0.294 HD
ENDBRANCH   4  26
BRANCH   9  28
ATOM     28  O   UNL     1      -2.006  -4.686  -3.749  0.00  0.00    -0.495 OA
ATOM     29  H   UNL     1      -1.220  -4.164  -3.539  0.00  0.00    +0.293 HD
ENDBRANCH   9  28
TORSDOF 4
