REMARK  Name = ZINC41551624
REMARK  10 active torsions:
REMARK  status: ('A' for Active; 'I' for Inactive)
REMARK    1  A    between atoms: C_1  and  C_2
REMARK    2  A    between atoms: C_10  and  C_32
REMARK    3  A    between atoms: C_11  and  C_12
REMARK    4  A    between atoms: C_12  and  C_13
REMARK    5  A    between atoms: C_13  and  N_14
REMARK    6  A    between atoms: C_15  and  C_17
REMARK    7  A    between atoms: C_26  and  O_28
REMARK    8  A    between atoms: O_28  and  C_29
REMARK    9  A    between atoms: C_29  and  C_30
REMARK   10  A    between atoms: C_29  and  C_31
REMARK                            x       y       z     vdW  Elec       q    Type
REMARK                         _______ _______ _______ _____ _____    ______ ____
ROOT
ATOM      1  N   UNL     1       1.709  -6.304   2.594  0.00  0.00    -0.311 N 
ATOM      2  C   UNL     1       2.869  -6.865   2.989  0.00  0.00    +0.245 C 
ATOM      3  O   UNL     1       3.926  -6.346   2.694  0.00  0.00    -0.270 OA
ATOM      4  H   UNL     1       0.868  -6.756   2.765  0.00  0.00    +0.149 HD
ENDROOT
BRANCH   2   5
ATOM      5  C   UNL     1       2.853  -8.118   3.783  0.00  0.00    +0.054 A 
ATOM      6  C   UNL     1       1.684  -8.785   4.023  0.00  0.00    +0.105 A 
ATOM      7  C   UNL     1       1.703  -9.978   4.785  0.00  0.00    +0.338 A 
ATOM      8  O   UNL     1       0.657 -10.566   4.994  0.00  0.00    -0.245 OA
ATOM      9  O   UNL     1       2.844 -10.478   5.284  0.00  0.00    -0.422 OA
ATOM     10  C   UNL     1       4.032  -9.870   5.084  0.00  0.00    +0.143 A 
ATOM     11  C   UNL     1       4.097  -8.683   4.332  0.00  0.00    +0.030 A 
ATOM     12  C   UNL     1       5.326  -8.054   4.119  0.00  0.00    +0.016 A 
ATOM     13  C   UNL     1       6.466  -8.597   4.638  0.00  0.00    +0.046 A 
ATOM     14  C   UNL     1       6.410  -9.776   5.380  0.00  0.00    +0.124 A 
ATOM     15  C   UNL     1       5.198 -10.406   5.610  0.00  0.00    +0.092 A 
BRANCH  14  16
ATOM     16  O   UNL     1       7.552 -10.305   5.890  0.00  0.00    -0.489 OA
BRANCH  16  17
ATOM     17  C   UNL     1       8.750  -9.543   5.727  0.00  0.00    +0.167 C 
ATOM     18  C   UNL     1       9.744  -9.914   6.829  0.00  0.00    +0.051 C 
ATOM     19  C   UNL     1       9.366  -9.847   4.360  0.00  0.00    +0.051 C 
ENDBRANCH  16  17
ENDBRANCH  14  16
ENDBRANCH   2   5
BRANCH   1  20
ATOM     20  C   UNL     1       1.718  -5.011   1.905  0.00  0.00    +0.109 C 
BRANCH  20  21
ATOM     21  C   UNL     1       0.283  -4.602   1.568  0.00  0.00    +0.056 C 
BRANCH  21  32
ATOM     22  C   UNL     1       0.400   0.348  -2.278  0.00  0.00    +0.046 C 
ATOM     23  C   UNL     1       0.428  -1.143  -2.062  0.00  0.00    -0.025 A 
ATOM     24  C   UNL     1       0.525  -1.994  -3.141  0.00  0.00    +0.025 A 
ATOM     25  C   UNL     1       0.552  -3.371  -2.957  0.00  0.00    +0.042 A 
ATOM     26  C   UNL     1       0.482  -3.905  -1.690  0.00  0.00    +0.030 A 
ATOM     27  C   UNL     1       0.384  -3.056  -0.586  0.00  0.00    +0.005 A 
ATOM     28  C   UNL     1       0.362  -1.661  -0.773  0.00  0.00    +0.050 A 
ATOM     29  N   UNL     1       0.267  -1.086   0.475  0.00  0.00    -0.358 N 
ATOM     30  H   UNL     1       0.229  -0.132   0.647  0.00  0.00    +0.166 HD
ATOM     31  C   UNL     1       0.234  -2.060   1.435  0.00  0.00    +0.017 A 
ATOM     32  C   UNL     1       0.293  -3.272   0.860  0.00  0.00    -0.018 A 
ATOM     33  C   UNL     1       0.135  -1.810   2.917  0.00  0.00    +0.063 C 
ATOM     34 CL   UNL     1       0.675  -4.423  -4.332  0.00  0.00    -0.084 Cl
ENDBRANCH  21  32
ENDBRANCH  20  21
ENDBRANCH   1  20
TORSDOF 6
