REMARK  Name = ZINC08800791
REMARK  12 active torsions:
REMARK  status: ('A' for Active; 'I' for Inactive)
REMARK    1  A    between atoms: C_1  and  C_2
REMARK    2  A    between atoms: C_2  and  C_4
REMARK    3  A    between atoms: C_2  and  O_15
REMARK    4  A    between atoms: N_6  and  C_7
REMARK    5  A    between atoms: O_15  and  C_16
REMARK    6  A    between atoms: C_16  and  C_18
REMARK    7  A    between atoms: C_20  and  O_29
REMARK    8  A    between atoms: C_21  and  O_27
REMARK    9  A    between atoms: C_22  and  O_25
REMARK   10  A    between atoms: O_25  and  C_26
REMARK   11  A    between atoms: O_27  and  C_28
REMARK   12  A    between atoms: O_29  and  C_30
REMARK                            x       y       z     vdW  Elec       q    Type
REMARK                         _______ _______ _______ _____ _____    ______ ____
ROOT
ATOM      1  O   UNL     1      -2.606   7.864  -0.376  0.00  0.00    -0.449 OA
ENDROOT
BRANCH   1   3
ATOM      2  C   UNL     1      -0.590   7.920   0.988  0.00  0.00    +0.062 C 
ATOM      3  C   UNL     1      -1.229   7.409  -0.305  0.00  0.00    +0.259 C 
BRANCH   3   4
ATOM      4  C   UNL     1      -1.196   5.902  -0.320  0.00  0.00    +0.258 C 
ATOM      5  O   UNL     1      -2.232   5.274  -0.385  0.00  0.00    -0.271 OA
ATOM      6  N   UNL     1      -0.016   5.254  -0.262  0.00  0.00    -0.282 N 
ATOM      7  H   UNL     1       0.806   5.753  -0.135  0.00  0.00    +0.155 HD
BRANCH   6   8
ATOM      8  C   UNL     1       0.023   3.860  -0.384  0.00  0.00    +0.036 A 
ATOM      9  C   UNL     1      -0.894   3.208  -1.197  0.00  0.00    +0.043 A 
ATOM     10  C   UNL     1      -0.854   1.831  -1.316  0.00  0.00    +0.044 A 
ATOM     11  C   UNL     1       0.099   1.103  -0.625  0.00  0.00    +0.040 A 
ATOM     12  C   UNL     1       1.011   1.751   0.190  0.00  0.00    +0.044 A 
ATOM     13  C   UNL     1       0.978   3.128   0.307  0.00  0.00    +0.043 A 
ATOM     14 CL   UNL     1       2.200   0.834   1.061  0.00  0.00    -0.083 Cl
ATOM     15 CL   UNL     1      -2.000   1.014  -2.333  0.00  0.00    -0.083 Cl
ENDBRANCH   6   8
ENDBRANCH   3   4
ENDBRANCH   1   3
BRANCH   1  16
ATOM     16  C   UNL     1      -2.829   9.049  -0.977  0.00  0.00    +0.341 C 
ATOM     17  O   UNL     1      -1.897   9.686  -1.428  0.00  0.00    -0.245 OA
BRANCH  16  18
ATOM     18  C   UNL     1      -4.202   9.574  -1.086  0.00  0.00    +0.080 A 
ATOM     19  C   UNL     1      -5.276   8.840  -0.572  0.00  0.00    +0.065 A 
ATOM     20  C   UNL     1      -6.561   9.337  -0.671  0.00  0.00    +0.166 A 
ATOM     21  C   UNL     1      -6.790  10.563  -1.292  0.00  0.00    +0.205 A 
ATOM     22  C   UNL     1      -5.724  11.294  -1.809  0.00  0.00    +0.180 A 
ATOM     23  C   UNL     1      -4.434  10.804  -1.709  0.00  0.00    +0.077 A 
ATOM     24 BR   UNL     1      -2.987  11.798  -2.412  0.00  0.00    -0.046 Br
BRANCH  22  25
ATOM     25  O   UNL     1      -5.952  12.491  -2.414  0.00  0.00    -0.490 OA
ATOM     26  C   UNL     1      -6.298  12.461  -3.801  0.00  0.00    +0.277 C 
ENDBRANCH  22  25
BRANCH  21  27
ATOM     27  O   UNL     1      -8.056  11.046  -1.392  0.00  0.00    -0.488 OA
ATOM     28  C   UNL     1      -8.521  11.875  -0.325  0.00  0.00    +0.277 C 
ENDBRANCH  21  27
BRANCH  20  29
ATOM     29  O   UNL     1      -7.605   8.626  -0.167  0.00  0.00    -0.491 OA
ATOM     30  C   UNL     1      -7.298   7.377   0.457  0.00  0.00    +0.277 C 
ENDBRANCH  20  29
ENDBRANCH  16  18
ENDBRANCH   1  16
TORSDOF 8
