REMARK  Name = ZINC40004200
REMARK  5 active torsions:
REMARK  status: ('A' for Active; 'I' for Inactive)
REMARK    1  A    between atoms: C_1  and  C_2
REMARK    2  A    between atoms: C_6  and  C_7
REMARK    3  A    between atoms: N_11  and  N_15
REMARK    4  A    between atoms: C_16  and  C_18
REMARK    5  A    between atoms: C_23  and  O_24
REMARK                            x       y       z     vdW  Elec       q    Type
REMARK                         _______ _______ _______ _____ _____    ______ ____
ROOT
ATOM      1  C   UNL     1       0.030  -0.305   2.517  0.00  0.00    +0.035 C 
ATOM      2  C   UNL     1       0.052  -1.209   3.537  0.00  0.00    +0.079 C 
ATOM      3  C   UNL     1       0.057  -0.988   4.947  0.00  0.00    +0.275 C 
ATOM      4  O   UNL     1       0.040   0.140   5.406  0.00  0.00    -0.267 OA
ATOM      5  N   UNL     1       0.080  -2.045   5.741  0.00  0.00    -0.169 N 
ATOM      6  C   UNL     1       0.099  -3.297   5.232  0.00  0.00    +0.138 C 
ATOM      7  S   UNL     1       0.129  -4.793   6.065  0.00  0.00    -0.026 S 
ATOM      8  S   UNL     1       0.075  -2.996   3.472  0.00  0.00    -0.059 S 
ENDROOT
BRANCH   1  14
ATOM      9  C   UNL     1      -0.018   1.503   0.010  0.00  0.00    +0.045 C 
ATOM     10  C   UNL     1       0.002  -0.004   0.002  0.00  0.00    -0.036 A 
ATOM     11  C   UNL     1       0.007  -0.730  -1.165  0.00  0.00    +0.011 A 
ATOM     12  C   UNL     1       0.025  -2.084  -1.100  0.00  0.00    +0.046 A 
ATOM     13  S   UNL     1       0.037  -2.419   0.546  0.00  0.00    -0.097 S 
ATOM     14  C   UNL     1       0.023  -0.751   1.175  0.00  0.00    +0.016 A 
ENDBRANCH   1  14
BRANCH   5  15
ATOM     15  N   UNL     1       0.086  -1.864   7.130  0.00  0.00    -0.222 N 
ATOM     16  C   UNL     1      -1.033  -2.096   7.845  0.00  0.00    +0.264 C 
ATOM     17  O   UNL     1      -2.047  -2.462   7.284  0.00  0.00    -0.269 OA
ATOM     18  H   UNL     1       0.896  -1.572   7.578  0.00  0.00    +0.174 HD
BRANCH  16  19
ATOM     19  C   UNL     1      -1.027  -1.906   9.308  0.00  0.00    +0.079 A 
ATOM     20  C   UNL     1       0.136  -1.480   9.956  0.00  0.00    +0.017 A 
ATOM     21  C   UNL     1       0.135  -1.304  11.323  0.00  0.00    +0.001 A 
ATOM     22  C   UNL     1      -1.014  -1.548  12.058  0.00  0.00    +0.004 A 
ATOM     23  C   UNL     1      -2.169  -1.970  11.431  0.00  0.00    +0.046 A 
ATOM     24  C   UNL     1      -2.188  -2.146  10.055  0.00  0.00    +0.129 A 
BRANCH  24  25
ATOM     25  O   UNL     1      -3.324  -2.554   9.436  0.00  0.00    -0.506 OA
ATOM     26  H   UNL     1      -3.409  -3.515   9.365  0.00  0.00    +0.292 HD
ENDBRANCH  24  25
ENDBRANCH  16  19
ENDBRANCH   5  15
TORSDOF 4
