REMARK  Name = ZINC39863640
REMARK  4 active torsions:
REMARK  status: ('A' for Active; 'I' for Inactive)
REMARK    1  A    between atoms: C_1  and  C_2
REMARK    2  A    between atoms: C_6  and  N_8
REMARK    3  A    between atoms: N_10  and  C_21
REMARK    4  A    between atoms: C_14  and  C_15
REMARK                            x       y       z     vdW  Elec       q    Type
REMARK                         _______ _______ _______ _____ _____    ______ ____
ROOT
ATOM      1  N   UNL     1       0.135  -2.621   2.553  0.00  0.00    -0.206 NA
ATOM      2  C   UNL     1       0.080  -1.772   3.558  0.00  0.00    +0.170 C 
ATOM      3  N   UNL     1      -0.001  -0.399   3.516  0.00  0.00    -0.243 N 
ATOM      4  C   UNL     1      -0.047   0.309   4.632  0.00  0.00    +0.259 C 
ATOM      5  O   UNL     1      -0.118   1.524   4.611  0.00  0.00    -0.269 OA
ATOM      6  C   UNL     1      -0.009  -0.437   5.899  0.00  0.00    +0.081 C 
ATOM      7  C   UNL     1      -0.042   0.030   7.180  0.00  0.00    +0.066 C 
ATOM      8  S   UNL     1       0.085  -2.121   5.309  0.00  0.00    -0.049 S 
ENDROOT
BRANCH   1  14
ATOM      9  C   UNL     1      -2.267  -1.272  -1.341  0.00  0.00    +0.065 C 
ATOM     10  C   UNL     1      -0.956  -1.498  -0.632  0.00  0.00    +0.041 A 
ATOM     11  C   UNL     1       0.229  -1.233  -1.292  0.00  0.00    +0.023 A 
ATOM     12  C   UNL     1       1.437  -1.442  -0.637  0.00  0.00    +0.005 A 
ATOM     13  C   UNL     1       1.412  -1.910   0.663  0.00  0.00    +0.048 A 
ATOM     14  C   UNL     1       0.177  -2.158   1.271  0.00  0.00    +0.155 A 
ATOM     15  N   UNL     1      -0.956  -1.940   0.610  0.00  0.00    -0.233 NA
ENDBRANCH   1  14
BRANCH   3  16
ATOM     16  C   UNL     1      -0.035   0.286   2.221  0.00  0.00    +0.084 C 
ATOM     17  C   UNL     1       1.075   1.338   2.171  0.00  0.00    +0.023 C 
ATOM     18  C   UNL     1       1.039   2.053   0.818  0.00  0.00    +0.002 C 
ATOM     19  C   UNL     1      -0.319   2.735   0.638  0.00  0.00    +0.000 C 
ATOM     20  C   UNL     1      -1.429   1.683   0.689  0.00  0.00    +0.002 C 
ATOM     21  C   UNL     1      -1.393   0.968   2.041  0.00  0.00    +0.023 C 
ENDBRANCH   3  16
BRANCH   7  22
ATOM     22  C   UNL     1      -0.298   1.399   7.426  0.00  0.00    +0.129 A 
ATOM     23  C   UNL     1      -0.230   2.032   8.651  0.00  0.00    +0.049 A 
ATOM     24  C   UNL     1      -0.561   3.377   8.425  0.00  0.00    +0.042 A 
ATOM     25  C   UNL     1      -0.812   3.510   7.104  0.00  0.00    +0.195 A 
ATOM     26  O   UNL     1      -0.648   2.321   6.505  0.00  0.00    -0.463 OA
ENDBRANCH   7  22
TORSDOF 3
