REMARK  Name = ZINC27098807
REMARK  9 active torsions:
REMARK  status: ('A' for Active; 'I' for Inactive)
REMARK    1  A    between atoms: C_1  and  C_2
REMARK    2  A    between atoms: C_7  and  N_8
REMARK    3  A    between atoms: C_9  and  C_11
REMARK    4  A    between atoms: C_11  and  N_12
REMARK    5  A    between atoms: C_13  and  C_15
REMARK    6  A    between atoms: C_15  and  C_16
REMARK    7  A    between atoms: C_16  and  C_17
REMARK    8  A    between atoms: C_17  and  C_18
REMARK    9  A    between atoms: C_18  and  C_19
REMARK                            x       y       z     vdW  Elec       q    Type
REMARK                         _______ _______ _______ _____ _____    ______ ____
ROOT
ATOM      1  N   UNL     1       5.337   7.966  -2.525  0.00  0.00    -0.307 N 
ATOM      2  C   UNL     1       4.220   7.215  -2.455  0.00  0.00    +0.213 C 
ATOM      3  O   UNL     1       3.244   7.516  -3.109  0.00  0.00    -0.276 OA
ATOM      4  H   UNL     1       6.222   7.694  -1.931  0.00  0.00    +0.149 HD
ENDROOT
BRANCH   1   5
ATOM      5  C   UNL     1       5.372   9.147  -3.392  0.00  0.00    +0.200 C 
BRANCH   5   7
ATOM      6  N   UNL     1       6.987  10.917  -4.005  0.00  0.00    -0.284 N 
ATOM      7  C   UNL     1       6.723   9.805  -3.290  0.00  0.00    +0.234 C 
ATOM      8  O   UNL     1       7.574   9.335  -2.564  0.00  0.00    -0.274 OA
ATOM      9  H   UNL     1       6.251  11.292  -4.730  0.00  0.00    +0.155 HD
BRANCH   6  16
ATOM     10  C   UNL     1       7.976  12.499  -6.152  0.00  0.00    +0.046 C 
ATOM     11  C   UNL     1       8.717  12.378  -4.846  0.00  0.00    -0.028 A 
ATOM     12  C   UNL     1       9.910  13.050  -4.662  0.00  0.00    +0.020 A 
ATOM     13  C   UNL     1      10.594  12.933  -3.466  0.00  0.00    +0.018 A 
ATOM     14  C   UNL     1      10.082  12.149  -2.447  0.00  0.00    +0.017 A 
ATOM     15  C   UNL     1       8.887  11.479  -2.623  0.00  0.00    +0.024 A 
ATOM     16  C   UNL     1       8.199  11.594  -3.824  0.00  0.00    +0.036 A 
ATOM     17 BR   UNL     1      12.230  13.849  -3.221  0.00  0.00    -0.050 Br
ENDBRANCH   6  16
ENDBRANCH   5   7
ENDBRANCH   1   5
BRANCH   2  18
ATOM     18  C   UNL     1       4.184   6.001  -1.563  0.00  0.00    +0.096 C 
BRANCH  18  19
ATOM     19  C   UNL     1       2.812   5.332  -1.667  0.00  0.00    +0.009 C 
BRANCH  19  20
ATOM     20  C   UNL     1       2.775   4.099  -0.761  0.00  0.00    +0.002 C 
BRANCH  20  21
ATOM     21  C   UNL     1       1.403   3.431  -0.865  0.00  0.00    +0.016 C 
BRANCH  21  22
ATOM     22  C   UNL     1       1.366   2.198   0.040  0.00  0.00    +0.069 C 
ATOM     23  C   UNL     1      -0.042   1.566   0.059  0.00  0.00    +0.108 C 
ATOM     24  C   UNL     1      -0.029   0.035   0.052  0.00  0.00    +0.105 C 
ATOM     25  C   UNL     1       1.389  -0.574   0.027  0.00  0.00    +0.093 C 
ATOM     26  S   UNL     1       2.373   0.824  -0.670  0.00  0.00    -0.154 S 
ATOM     27  N   UNL     1      -0.728  -0.322  -1.193  0.00  0.00    -0.294 N 
ATOM     28  C   UNL     1      -1.097   0.801  -1.824  0.00  0.00    +0.300 C 
ATOM     29  O   UNL     1      -1.694   0.801  -2.883  0.00  0.00    -0.253 OA
ATOM     30  N   UNL     1      -0.747   1.924  -1.182  0.00  0.00    -0.294 N 
ATOM     31  H   UNL     1      -0.868  -1.380  -1.462  0.00  0.00    +0.151 HD
ATOM     32  H   UNL     1      -0.904   2.981  -1.440  0.00  0.00    +0.151 HD
ENDBRANCH  21  22
ENDBRANCH  20  21
ENDBRANCH  19  20
ENDBRANCH  18  19
ENDBRANCH   2  18
TORSDOF 8
