REMARK  Name = ZINC36775798
REMARK  6 active torsions:
REMARK  status: ('A' for Active; 'I' for Inactive)
REMARK    1  A    between atoms: C_1  and  C_2
REMARK    2  A    between atoms: C_2  and  C_4
REMARK    3  A    between atoms: C_2  and  N_9
REMARK    4  A    between atoms: C_10  and  C_12
REMARK    5  A    between atoms: C_12  and  N_13
REMARK    6  A    between atoms: N_22  and  C_25
REMARK                            x       y       z     vdW  Elec       q    Type
REMARK                         _______ _______ _______ _____ _____    ______ ____
ROOT
ATOM      1  N   UNL     1      -0.199  -1.177   4.670  0.00  0.00    -0.215 N 
ATOM      2  C   UNL     1      -0.339  -0.203   5.592  0.00  0.00    +0.247 C 
ATOM      3  O   UNL     1       0.208   0.880   5.605  0.00  0.00    -0.273 OA
ATOM      4  C   UNL     1      -1.320  -0.744   6.606  0.00  0.00    +0.115 C 
ATOM      5  C   UNL     1      -2.565   0.133   6.662  0.00  0.00    +0.035 C 
ATOM      6  C   UNL     1      -3.558  -0.449   7.672  0.00  0.00    +0.003 C 
ATOM      7  C   UNL     1      -2.899  -0.518   9.051  0.00  0.00    +0.000 C 
ATOM      8  C   UNL     1      -1.665  -1.420   8.985  0.00  0.00    +0.003 C 
ATOM      9  C   UNL     1      -0.665  -0.841   7.980  0.00  0.00    +0.035 C 
ATOM     10  N   UNL     1      -1.654  -2.082   6.100  0.00  0.00    -0.274 N 
ATOM     11  C   UNL     1      -0.954  -2.244   4.961  0.00  0.00    +0.312 C 
ATOM     12  O   UNL     1      -1.000  -3.246   4.276  0.00  0.00    -0.252 OA
ATOM     13  C   UNL     1      -2.572  -3.046   6.710  0.00  0.00    +0.134 C 
ENDROOT
BRANCH   1  14
ATOM     14  C   UNL     1       0.668  -1.079   3.493  0.00  0.00    +0.213 C 
BRANCH  14  16
ATOM     15  N   UNL     1       0.488  -0.302   1.151  0.00  0.00    -0.307 N 
ATOM     16  C   UNL     1      -0.109  -0.487   2.345  0.00  0.00    +0.231 C 
ATOM     17  O   UNL     1      -1.272  -0.179   2.496  0.00  0.00    -0.274 OA
ATOM     18  H   UNL     1       1.419  -0.548   1.031  0.00  0.00    +0.149 HD
BRANCH  15  20
ATOM     19  C   UNL     1      -0.229   1.800   0.127  0.00  0.00    +0.033 C 
ATOM     20  C   UNL     1      -0.267   0.273   0.036  0.00  0.00    +0.107 C 
BRANCH  20  21
ATOM     21  C   UNL     1       0.348  -0.167  -1.267  0.00  0.00    +0.010 A 
ATOM     22  C   UNL     1      -0.264  -0.536  -2.419  0.00  0.00    +0.013 A 
ATOM     23  C   UNL     1       0.511  -0.905  -3.502  0.00  0.00    +0.008 A 
ATOM     24  C   UNL     1       1.861  -0.889  -3.380  0.00  0.00    +0.045 A 
ATOM     25  S   UNL     1       2.073  -0.331  -1.697  0.00  0.00    -0.100 S 
ENDBRANCH  20  21
ENDBRANCH  15  20
ENDBRANCH  14  16
ENDBRANCH   1  14
TORSDOF 4
