REMARK  Name = ZINC39527831
REMARK  6 active torsions:
REMARK  status: ('A' for Active; 'I' for Inactive)
REMARK    1  A    between atoms: C_1  and  C_2
REMARK    2  A    between atoms: C_2  and  C_3
REMARK    3  A    between atoms: C_2  and  S_4
REMARK    4  A    between atoms: S_4  and  N_7
REMARK    5  A    between atoms: C_17  and  C_20
REMARK    6  A    between atoms: C_20  and  C_21
REMARK                            x       y       z     vdW  Elec       q    Type
REMARK                         _______ _______ _______ _____ _____    ______ ____
ROOT
ATOM      1  N   UNL     1      -0.387   0.231   2.614  0.00  0.00    -0.142 NA
ATOM      2  C   UNL     1      -0.379   1.595   3.161  0.00  0.00    +0.257 C 
ATOM      3  C   UNL     1      -0.246   1.514   4.685  0.00  0.00    +0.055 C 
ATOM      4  C   UNL     1      -1.356   0.620   5.244  0.00  0.00    +0.006 C 
ATOM      5  C   UNL     1      -1.213  -0.792   4.671  0.00  0.00    +0.024 C 
ATOM      6  C   UNL     1      -1.358  -0.735   3.143  0.00  0.00    +0.046 C 
ATOM      7  C   UNL     1      -2.773  -0.290   2.774  0.00  0.00    +0.024 C 
ATOM      8  C   UNL     1      -2.906  -0.224   1.251  0.00  0.00    +0.002 C 
ATOM      9  C   UNL     1      -2.632  -1.607   0.655  0.00  0.00    +0.004 C 
ATOM     10  C   UNL     1      -1.215  -2.050   1.024  0.00  0.00    -0.005 C 
ATOM     11  C   UNL     1      -1.081  -2.115   2.547  0.00  0.00    +0.028 C 
ATOM     12  F   UNL     1       0.703   2.306   2.631  0.00  0.00    -0.227 F 
ENDROOT
BRANCH   1  13
ATOM     13  S   UNL     1       0.673  -0.206   1.419  0.00  0.00    +0.037 S 
ATOM     14  O   UNL     1       0.803  -1.615   1.547  0.00  0.00    -0.158 OA
ATOM     15  O   UNL     1       1.796   0.645   1.602  0.00  0.00    -0.158 OA
BRANCH  13  17
ATOM     16  C   UNL     1      -0.429   1.712  -0.190  0.00  0.00    +0.033 C 
ATOM     17  C   UNL     1      -0.176   0.204  -0.130  0.00  0.00    +0.142 C 
ATOM     18  C   UNL     1       0.695  -0.214  -1.316  0.00  0.00    +0.033 C 
ENDBRANCH  13  17
ENDBRANCH   1  13
BRANCH  10  19
ATOM     19  C   UNL     1      -0.941  -3.432   0.428  0.00  0.00    +0.038 C 
BRANCH  19  20
ATOM     20  C   UNL     1      -1.024  -3.356  -1.075  0.00  0.00    -0.047 A 
ATOM     21  C   UNL     1      -2.254  -3.423  -1.703  0.00  0.00    +0.003 A 
ATOM     22  C   UNL     1      -2.330  -3.354  -3.081  0.00  0.00    +0.000 A 
ATOM     23  C   UNL     1      -1.177  -3.217  -3.831  0.00  0.00    +0.000 A 
ATOM     24  C   UNL     1       0.052  -3.149  -3.203  0.00  0.00    +0.000 A 
ATOM     25  C   UNL     1       0.128  -3.214  -1.824  0.00  0.00    +0.003 A 
ENDBRANCH  19  20
ENDBRANCH  10  19
TORSDOF 4
