REMARK  Name = ZINC39452752
REMARK  7 active torsions:
REMARK  status: ('A' for Active; 'I' for Inactive)
REMARK    1  A    between atoms: C_1  and  C_2
REMARK    2  A    between atoms: C_2  and  O_3
REMARK    3  A    between atoms: O_3  and  N_4
REMARK    4  A    between atoms: C_13  and  C_19
REMARK    5  A    between atoms: C_24  and  O_25
REMARK    6  A    between atoms: C_27  and  C_32
REMARK    7  A    between atoms: C_37  and  O_38
REMARK                            x       y       z     vdW  Elec       q    Type
REMARK                         _______ _______ _______ _____ _____    ______ ____
ROOT
ATOM      1  N   UNL     1       0.983  -1.411  -1.107  0.00  0.00    -0.138 N 
ATOM      2  C   UNL     1       1.998  -2.221  -0.609  0.00  0.00    +0.149 A 
ATOM      3  C   UNL     1       1.971  -3.589  -0.790  0.00  0.00    +0.085 A 
ATOM      4  C   UNL     1       0.856  -4.207  -1.528  0.00  0.00    +0.100 A 
ATOM      5  C   UNL     1      -0.166  -3.357  -2.027  0.00  0.00    +0.070 A 
ATOM      6  C   UNL     1      -0.067  -1.910  -1.784  0.00  0.00    +0.293 A 
ATOM      7  O   UNL     1      -0.933  -1.163  -2.199  0.00  0.00    -0.264 OA
ATOM      8  C   UNL     1      -1.234  -3.901  -2.725  0.00  0.00    +0.026 A 
ATOM      9  C   UNL     1      -1.256  -5.290  -2.909  0.00  0.00    +0.009 A 
ATOM     10  C   UNL     1      -2.316  -5.916  -3.610  0.00  0.00    -0.005 A 
ATOM     11  C   UNL     1      -2.301  -7.291  -3.772  0.00  0.00    +0.009 A 
ATOM     12  C   UNL     1      -1.260  -8.053  -3.255  0.00  0.00    +0.003 A 
ATOM     13  C   UNL     1      -0.230  -7.476  -2.578  0.00  0.00    +0.028 A 
ATOM     14  C   UNL     1      -0.200  -6.082  -2.386  0.00  0.00    +0.072 A 
ATOM     15  N   UNL     1       0.807  -5.512  -1.720  0.00  0.00    -0.245 NA
ATOM     16  N   UNL     1       2.984  -4.373  -0.275  0.00  0.00    -0.333 N 
ATOM     17  C   UNL     1       3.717  -3.882   0.902  0.00  0.00    +0.112 C 
ATOM     18  C   UNL     1       4.217  -2.465   0.598  0.00  0.00    +0.108 C 
ATOM     19  C   UNL     1       3.071  -1.627   0.096  0.00  0.00    +0.187 C 
ATOM     20  O   UNL     1       3.067  -0.430   0.300  0.00  0.00    -0.290 OA
ATOM     21  H   UNL     1       3.207  -5.227  -0.679  0.00  0.00    +0.147 HD
ENDROOT
BRANCH  10  22
ATOM     22  C   UNL     1      -3.428  -5.109  -4.162  0.00  0.00    +0.024 A 
ATOM     23  C   UNL     1      -4.721  -5.264  -3.663  0.00  0.00    +0.012 A 
ATOM     24  C   UNL     1      -5.753  -4.509  -4.181  0.00  0.00    +0.001 A 
ATOM     25  C   UNL     1      -5.510  -3.598  -5.194  0.00  0.00    +0.004 A 
ATOM     26  C   UNL     1      -4.233  -3.437  -5.697  0.00  0.00    +0.046 A 
ATOM     27  C   UNL     1      -3.185  -4.184  -5.183  0.00  0.00    +0.125 A 
BRANCH  27  28
ATOM     28  O   UNL     1      -1.928  -4.022  -5.672  0.00  0.00    -0.506 OA
ATOM     29  H   UNL     1      -1.719  -4.601  -6.418  0.00  0.00    +0.292 HD
ENDBRANCH  27  28
ENDBRANCH  10  22
BRANCH  17  30
ATOM     30  C   UNL     1       2.798  -3.851   2.096  0.00  0.00    +0.014 A 
ATOM     31  C   UNL     1       1.429  -3.897   1.916  0.00  0.00    +0.009 A 
ATOM     32  C   UNL     1       0.585  -3.869   3.011  0.00  0.00    +0.001 A 
ATOM     33  C   UNL     1       1.109  -3.795   4.289  0.00  0.00    +0.004 A 
ATOM     34  C   UNL     1       2.477  -3.749   4.474  0.00  0.00    +0.046 A 
ATOM     35  C   UNL     1       3.326  -3.783   3.377  0.00  0.00    +0.122 A 
BRANCH  35  36
ATOM     36  O   UNL     1       4.672  -3.743   3.557  0.00  0.00    -0.506 OA
ATOM     37  H   UNL     1       5.042  -2.850   3.570  0.00  0.00    +0.292 HD
ENDBRANCH  35  36
ENDBRANCH  17  30
BRANCH   1  38
ATOM     38  O   UNL     1       1.054  -0.014  -0.890  0.00  0.00    -0.408 OA
BRANCH  38  40
ATOM     39  C   UNL     1       0.566   1.937   0.450  0.00  0.00    +0.051 C 
ATOM     40  C   UNL     1       0.429   0.419   0.320  0.00  0.00    +0.257 C 
ENDBRANCH  38  40
ENDBRANCH   1  38
TORSDOF 6
