REMARK  Name = ZINC13064114
REMARK  14 active torsions:
REMARK  status: ('A' for Active; 'I' for Inactive)
REMARK    1  A    between atoms: C_1  and  C_2
REMARK    2  A    between atoms: C_2  and  C_3
REMARK    3  A    between atoms: C_3  and  C_5
REMARK    4  A    between atoms: C_3  and  N_71
REMARK    5  A    between atoms: N_9  and  C_10
REMARK    6  A    between atoms: C_10  and  C_11
REMARK    7  A    between atoms: C_14  and  O_17
REMARK    8  A    between atoms: O_17  and  C_18
REMARK    9  A    between atoms: C_19  and  C_20
REMARK   10  A    between atoms: C_19  and  N_71
REMARK   11  A    between atoms: C_26  and  C_27
REMARK   12  A    between atoms: C_26  and  N_71
REMARK   13  A    between atoms: C_31  and  O_39
REMARK   14  A    between atoms: O_39  and  C_40
REMARK                            x       y       z     vdW  Elec       q    Type
REMARK                         _______ _______ _______ _____ _____    ______ ____
ROOT
ATOM      1  N   UNL     1      -1.053   2.041   1.659  0.00  0.00    +0.392 N 
ATOM      2  H   UNL     1      -1.964   1.757   2.038  0.00  0.00    -0.080 HD
ENDROOT
BRANCH   1   3
ATOM      3  C   UNL     1      -0.996   3.517   1.601  0.00  0.00    +0.003 C 
BRANCH   3   4
ATOM      4  C   UNL     1      -2.372   4.039   1.277  0.00  0.00    +0.138 A 
ATOM      5  N   UNL     1      -3.183   3.587   0.352  0.00  0.00    -0.115 NA
ATOM      6  N   UNL     1      -4.259   4.293   0.387  0.00  0.00    -0.023 NA
ATOM      7  N   UNL     1      -4.157   5.184   1.310  0.00  0.00    -0.044 NA
ATOM      8  N   UNL     1      -3.009   5.056   1.885  0.00  0.00    -0.226 N 
BRANCH   8   9
ATOM      9  C   UNL     1      -2.495   5.869   2.991  0.00  0.00    +0.182 C 
BRANCH   9  10
ATOM     10  C   UNL     1      -1.754   7.058   2.438  0.00  0.00    -0.026 A 
ATOM     11  C   UNL     1      -0.397   6.970   2.184  0.00  0.00    +0.009 A 
ATOM     12  C   UNL     1       0.283   8.057   1.672  0.00  0.00    +0.046 A 
ATOM     13  C   UNL     1      -0.393   9.242   1.422  0.00  0.00    +0.120 A 
ATOM     14  C   UNL     1      -1.752   9.331   1.683  0.00  0.00    +0.046 A 
ATOM     15  C   UNL     1      -2.430   8.239   2.190  0.00  0.00    +0.009 A 
BRANCH  13  16
ATOM     16  O   UNL     1       0.276  10.315   0.923  0.00  0.00    -0.495 OA
ATOM     17  C   UNL     1       1.674  10.152   0.679  0.00  0.00    +0.277 C 
ENDBRANCH  13  16
ENDBRANCH   9  10
ENDBRANCH   8   9
ENDBRANCH   3   4
BRANCH   3  19
ATOM     18  C   UNL     1       1.408   3.561   0.922  0.00  0.00    +0.002 C 
ATOM     19  C   UNL     1      -0.011   3.971   0.522  0.00  0.00    -0.011 C 
ENDBRANCH   3  19
ENDBRANCH   1   3
BRANCH   1  20
ATOM     20  C   UNL     1       0.016   1.528   2.541  0.00  0.00    -0.042 C 
BRANCH  20  21
ATOM     21  C   UNL     1      -0.328   1.868   3.968  0.00  0.00    -0.064 A 
ATOM     22  C   UNL     1       0.200   3.003   4.555  0.00  0.00    +0.002 A 
ATOM     23  C   UNL     1      -0.121   3.319   5.862  0.00  0.00    +0.000 A 
ATOM     24  C   UNL     1      -0.960   2.493   6.587  0.00  0.00    +0.000 A 
ATOM     25  C   UNL     1      -1.483   1.355   6.002  0.00  0.00    +0.000 A 
ATOM     26  C   UNL     1      -1.168   1.043   4.693  0.00  0.00    +0.002 A 
ENDBRANCH  20  21
ENDBRANCH   1  20
BRANCH   1  27
ATOM     27  C   UNL     1      -0.902   1.476   0.301  0.00  0.00    -0.036 C 
BRANCH  27  28
ATOM     28  C   UNL     1      -1.300   0.023   0.334  0.00  0.00    +0.001 A 
ATOM     29  C   UNL     1      -2.568  -0.337   0.018  0.00  0.00    +0.017 A 
ATOM     30  C   UNL     1      -2.923  -1.757   0.059  0.00  0.00    +0.002 A 
ATOM     31  C   UNL     1      -4.216  -2.187  -0.258  0.00  0.00    +0.055 A 
ATOM     32  C   UNL     1      -4.517  -3.533  -0.209  0.00  0.00    +0.121 A 
ATOM     33  C   UNL     1      -3.542  -4.459   0.153  0.00  0.00    +0.047 A 
ATOM     34  C   UNL     1      -2.265  -4.048   0.466  0.00  0.00    +0.030 A 
ATOM     35  C   UNL     1      -1.941  -2.696   0.424  0.00  0.00    +0.049 A 
ATOM     36  N   UNL     1      -0.667  -2.264   0.735  0.00  0.00    -0.322 N 
ATOM     37  H   UNL     1       0.009  -2.912   0.986  0.00  0.00    +0.169 HD
ATOM     38  C   UNL     1      -0.349  -0.958   0.688  0.00  0.00    +0.251 A 
ATOM     39  O   UNL     1       0.787  -0.613   0.964  0.00  0.00    -0.268 OA
BRANCH  32  40
ATOM     40  O   UNL     1      -5.772  -3.957  -0.516  0.00  0.00    -0.495 OA
ATOM     41  C   UNL     1      -6.017  -5.363  -0.446  0.00  0.00    +0.277 C 
ENDBRANCH  32  40
ENDBRANCH  27  28
ENDBRANCH   1  27
TORSDOF 11
