REMARK  Name = ZINC08734743
REMARK  8 active torsions:
REMARK  status: ('A' for Active; 'I' for Inactive)
REMARK    1  A    between atoms: C_1  and  C_2
REMARK    2  A    between atoms: C_2  and  C_4
REMARK    3  A    between atoms: C_2  and  N_57
REMARK    4  A    between atoms: C_14  and  C_15
REMARK    5  A    between atoms: C_14  and  N_57
REMARK    6  A    between atoms: N_17  and  C_18
REMARK    7  A    between atoms: C_20  and  S_25
REMARK    8  A    between atoms: S_25  and  N_28
REMARK                            x       y       z     vdW  Elec       q    Type
REMARK                         _______ _______ _______ _____ _____    ______ ____
ROOT
ATOM      1  C   UNL     1       2.852   9.790  -2.266  0.00  0.00    +0.200 C 
ATOM      2  O   UNL     1       3.810   9.083  -2.496  0.00  0.00    -0.278 OA
ATOM      3  N   UNL     1       2.759  11.007  -2.838  0.00  0.00    -0.286 N 
ATOM      4  H   UNL     1       1.957  11.539  -2.719  0.00  0.00    +0.155 HD
ENDROOT
BRANCH   3   5
ATOM      5  C   UNL     1       3.821  11.503  -3.604  0.00  0.00    +0.054 A 
ATOM      6  C   UNL     1       5.113  11.045  -3.381  0.00  0.00    +0.053 A 
ATOM      7  C   UNL     1       6.158  11.533  -4.141  0.00  0.00    +0.107 A 
ATOM      8  C   UNL     1       5.921  12.484  -5.117  0.00  0.00    +0.030 A 
ATOM      9  C   UNL     1       4.637  12.947  -5.338  0.00  0.00    +0.024 A 
ATOM     10  C   UNL     1       3.586  12.459  -4.584  0.00  0.00    +0.062 A 
ATOM     11 CL   UNL     1       1.974  13.040  -4.863  0.00  0.00    -0.082 Cl
BRANCH   7  12
ATOM     12  S   UNL     1       7.796  10.948  -3.863  0.00  0.00    +0.061 S 
ATOM     13  O   UNL     1       7.673   9.663  -3.269  0.00  0.00    -0.153 OA
ATOM     14  O   UNL     1       8.515  11.163  -5.070  0.00  0.00    -0.153 OA
BRANCH  12  15
ATOM     15  N   UNL     1       8.481  11.933  -2.722  0.00  0.00    -0.177 NA
ATOM     16  C   UNL     1       9.245  13.159  -2.995  0.00  0.00    +0.109 C 
ATOM     17  C   UNL     1       9.705  13.726  -1.636  0.00  0.00    +0.018 C 
ATOM     18  C   UNL     1       9.665  12.480  -0.711  0.00  0.00    +0.018 C 
ATOM     19  C   UNL     1       8.432  11.723  -1.263  0.00  0.00    +0.109 C 
ENDBRANCH  12  15
ENDBRANCH   7  12
ENDBRANCH   3   5
BRANCH   1  20
ATOM     20  C   UNL     1       1.764   9.308  -1.342  0.00  0.00    +0.016 C 
BRANCH  20  21
ATOM     21  N   UNL     1       2.106   7.957  -0.856  0.00  0.00    +0.389 N 
ATOM     22  H   UNL     1       2.190   7.321  -1.657  0.00  0.00    -0.084 HD
ATOM     23  H   UNL     1       3.000   7.995  -0.353  0.00  0.00    -0.084 HD
BRANCH  21  25
ATOM     24  C   UNL     1       1.325   7.969   1.471  0.00  0.00    -0.009 C 
ATOM     25  C   UNL     1       1.057   7.459   0.053  0.00  0.00    -0.043 C 
BRANCH  25  26
ATOM     26  C   UNL     1       1.074   5.952   0.050  0.00  0.00    -0.061 A 
ATOM     27  C   UNL     1       2.294   5.280   0.028  0.00  0.00    +0.002 A 
ATOM     28  C   UNL     1       2.345   3.920   0.025  0.00  0.00    +0.009 A 
ATOM     29  C   UNL     1       1.151   3.179   0.042  0.00  0.00    -0.018 A 
ATOM     30  C   UNL     1       1.163   1.774   0.039  0.00  0.00    +0.008 A 
ATOM     31  C   UNL     1      -0.014   1.090   0.057  0.00  0.00    +0.001 A 
ATOM     32  C   UNL     1      -1.234   1.763   0.073  0.00  0.00    +0.001 A 
ATOM     33  C   UNL     1      -1.285   3.123   0.083  0.00  0.00    +0.008 A 
ATOM     34  C   UNL     1      -0.091   3.863   0.064  0.00  0.00    -0.018 A 
ATOM     35  C   UNL     1      -0.103   5.269   0.068  0.00  0.00    +0.010 A 
ENDBRANCH  25  26
ENDBRANCH  21  25
ENDBRANCH  20  21
ENDBRANCH   1  20
TORSDOF 7
