REMARK  Name = ZINC04124981
REMARK  8 active torsions:
REMARK  status: ('A' for Active; 'I' for Inactive)
REMARK    1  A    between atoms: C_1  and  C_2
REMARK    2  A    between atoms: C_5  and  N_9
REMARK    3  A    between atoms: C_6  and  C_8
REMARK    4  A    between atoms: C_10  and  C_12
REMARK    5  A    between atoms: C_12  and  S_13
REMARK    6  A    between atoms: S_13  and  C_14
REMARK    7  A    between atoms: C_15  and  C_25
REMARK    8  A    between atoms: C_20  and  C_24
REMARK                            x       y       z     vdW  Elec       q    Type
REMARK                         _______ _______ _______ _____ _____    ______ ____
ROOT
ATOM      1  S   UNL     1       0.418   3.203   7.205  0.00  0.00    -0.095 S 
ENDROOT
BRANCH   1   2
ATOM      2  C   UNL     1      -0.545   2.935   5.754  0.00  0.00    +0.115 A 
ATOM      3  C   UNL     1      -1.940   3.175   5.793  0.00  0.00    +0.084 A 
ATOM      4  C   UNL     1      -2.699   2.964   4.650  0.00  0.00    +0.031 A 
ATOM      5  C   UNL     1      -2.041   2.516   3.491  0.00  0.00    +0.002 A 
ATOM      6  C   UNL     1      -2.749   2.282   2.300  0.00  0.00    +0.010 A 
ATOM      7  C   UNL     1      -2.082   1.853   1.193  0.00  0.00    +0.004 A 
ATOM      8  C   UNL     1      -0.707   1.632   1.229  0.00  0.00    -0.048 A 
ATOM      9  C   UNL     1       0.010   1.849   2.366  0.00  0.00    +0.031 A 
ATOM     10  C   UNL     1      -0.641   2.297   3.528  0.00  0.00    +0.073 A 
ATOM     11  N   UNL     1       0.046   2.516   4.655  0.00  0.00    -0.239 NA
ATOM     12  C   UNL     1      -0.000   1.152  -0.013  0.00  0.00    +0.044 C 
BRANCH   3  13
ATOM     13  C   UNL     1      -2.562   3.631   7.000  0.00  0.00    +0.102 C 
ATOM     14  N   UNL     1      -3.055   3.993   7.957  0.00  0.00    -0.191 NA
ENDBRANCH   3  13
ENDBRANCH   1   2
BRANCH   1  15
ATOM     15  C   UNL     1       2.057   2.752   6.582  0.00  0.00    +0.172 C 
BRANCH  15  17
ATOM     16  N   UNL     1       4.370   2.627   7.448  0.00  0.00    -0.285 N 
ATOM     17  C   UNL     1       3.073   2.908   7.683  0.00  0.00    +0.227 C 
ATOM     18  O   UNL     1       2.725   3.288   8.781  0.00  0.00    -0.275 OA
ATOM     19  H   UNL     1       4.638   2.247   6.596  0.00  0.00    +0.155 HD
BRANCH  16  24
ATOM     20  C   UNL     1       8.266   3.659  11.440  0.00  0.00    +0.044 C 
ATOM     21  C   UNL     1       7.231   3.385  10.380  0.00  0.00    -0.050 A 
ATOM     22  C   UNL     1       6.047   4.099  10.370  0.00  0.00    +0.005 A 
ATOM     23  C   UNL     1       5.097   3.850   9.400  0.00  0.00    +0.024 A 
ATOM     24  C   UNL     1       5.331   2.881   8.433  0.00  0.00    +0.036 A 
ATOM     25  C   UNL     1       6.519   2.162   8.449  0.00  0.00    -0.029 A 
ATOM     26  C   UNL     1       7.467   2.419   9.419  0.00  0.00    +0.008 A 
ATOM     27  C   UNL     1       6.774   1.104   7.406  0.00  0.00    +0.045 C 
ENDBRANCH  16  24
ENDBRANCH  15  17
ENDBRANCH   1  15
TORSDOF 5
