REMARK  Name = ZINC63374891
REMARK  5 active torsions:
REMARK  status: ('A' for Active; 'I' for Inactive)
REMARK    1  A    between atoms: C_1  and  C_2
REMARK    2  A    between atoms: C_2  and  C_3
REMARK    3  A    between atoms: C_6  and  C_9
REMARK    4  A    between atoms: N_15  and  C_30
REMARK    5  A    between atoms: C_18  and  C_29
REMARK                            x       y       z     vdW  Elec       q    Type
REMARK                         _______ _______ _______ _____ _____    ______ ____
ROOT
ATOM      1  C   UNL     1       2.646  -2.314  -4.301  0.00  0.00    +0.065 C 
ATOM      2  C   UNL     1       3.395  -1.084  -4.852  0.00  0.00    +0.123 C 
ATOM      3  N   UNL     1       4.785  -1.475  -5.099  0.00  0.00    -0.268 N 
ATOM      4  C   UNL     1       5.473  -1.404  -6.247  0.00  0.00    +0.317 C 
ATOM      5  O   UNL     1       5.068  -0.843  -7.246  0.00  0.00    -0.252 OA
ATOM      6  N   UNL     1       6.658  -2.024  -6.167  0.00  0.00    -0.192 N 
ATOM      7  C   UNL     1       6.892  -2.492  -4.923  0.00  0.00    +0.253 C 
ATOM      8  O   UNL     1       7.856  -3.122  -4.545  0.00  0.00    -0.272 OA
ATOM      9  C   UNL     1       5.698  -2.066  -4.097  0.00  0.00    +0.137 C 
ATOM     10  C   UNL     1       4.999  -3.280  -3.489  0.00  0.00    +0.139 C 
ATOM     11  C   UNL     1       3.655  -3.430  -4.191  0.00  0.00    -0.027 C 
ATOM     12  C   UNL     1       3.614  -4.677  -4.653  0.00  0.00    -0.000 A 
ATOM     13  C   UNL     1       2.550  -5.432  -5.334  0.00  0.00    +0.010 A 
ATOM     14  C   UNL     1       2.857  -6.707  -5.694  0.00  0.00    +0.001 A 
ATOM     15  C   UNL     1       4.100  -7.298  -5.448  0.00  0.00    +0.002 A 
ATOM     16  C   UNL     1       5.133  -6.680  -4.820  0.00  0.00    +0.026 A 
ATOM     17  C   UNL     1       4.928  -5.338  -4.387  0.00  0.00    +0.043 A 
ATOM     18  N   UNL     1       5.734  -4.521  -3.737  0.00  0.00    -0.375 N 
ATOM     19  C   UNL     1       6.095  -1.042  -3.032  0.00  0.00    +0.044 C 
ATOM     20  H   UNL     1       6.649  -4.702  -3.471  0.00  0.00    +0.160 HD
ENDROOT
BRANCH   6  21
ATOM     21  C   UNL     1       7.545  -2.168  -7.240  0.00  0.00    +0.053 A 
ATOM     22  C   UNL     1       8.507  -1.212  -7.479  0.00  0.00    +0.024 A 
ATOM     23  C   UNL     1       9.394  -1.345  -8.544  0.00  0.00    +0.002 A 
ATOM     24  C   UNL     1       9.335  -2.420  -9.377  0.00  0.00    +0.008 A 
ATOM     25  C   UNL     1       8.368  -3.417  -9.168  0.00  0.00    -0.016 A 
ATOM     26  C   UNL     1       7.464  -3.295  -8.083  0.00  0.00    +0.004 A 
ATOM     27  C   UNL     1       6.502  -4.295  -7.872  0.00  0.00    +0.010 A 
ATOM     28  C   UNL     1       6.452  -5.370  -8.706  0.00  0.00    +0.001 A 
ATOM     29  C   UNL     1       7.345  -5.494  -9.769  0.00  0.00    +0.001 A 
ATOM     30  C   UNL     1       8.283  -4.538 -10.012  0.00  0.00    +0.008 A 
ENDBRANCH   6  21
BRANCH   1  34
ATOM     31  C   UNL     1       1.022  -1.428  -0.451  0.00  0.00    -0.048 A 
ATOM     32  C   UNL     1       2.389  -1.387  -0.651  0.00  0.00    +0.004 A 
ATOM     33  C   UNL     1       2.915  -1.674  -1.897  0.00  0.00    +0.004 A 
ATOM     34  C   UNL     1       2.074  -2.002  -2.943  0.00  0.00    -0.039 A 
ATOM     35  C   UNL     1       0.706  -2.044  -2.743  0.00  0.00    +0.004 A 
ATOM     36  C   UNL     1       0.181  -1.761  -1.496  0.00  0.00    +0.004 A 
BRANCH  31  38
ATOM     37  C   UNL     1       0.356  -2.401   1.730  0.00  0.00    +0.009 C 
ATOM     38  C   UNL     1       0.449  -1.115   0.907  0.00  0.00    +0.032 C 
ENDBRANCH  31  38
ENDBRANCH   1  34
TORSDOF 3
