REMARK  Name = ZINC40895581
REMARK  10 active torsions:
REMARK  status: ('A' for Active; 'I' for Inactive)
REMARK    1  A    between atoms: C_1  and  N_2
REMARK    2  A    between atoms: N_2  and  C_3
REMARK    3  A    between atoms: C_3  and  C_4
REMARK    4  A    between atoms: C_4  and  C_7
REMARK    5  A    between atoms: C_10  and  N_13
REMARK    6  A    between atoms: N_22  and  C_29
REMARK    7  A    between atoms: C_24  and  S_25
REMARK    8  A    between atoms: S_25  and  C_28
REMARK    9  A    between atoms: C_32  and  O_35
REMARK   10  A    between atoms: O_35  and  C_36
REMARK                            x       y       z     vdW  Elec       q    Type
REMARK                         _______ _______ _______ _____ _____    ______ ____
ROOT
ATOM      1  N   UNL     1       2.381  -4.246   3.607  0.00  0.00    -0.270 N 
ATOM      2  C   UNL     1       1.558  -3.748   4.698  0.00  0.00    +0.114 C 
ATOM      3  C   UNL     1       1.865  -4.363   6.067  0.00  0.00    +0.033 C 
ATOM      4  C   UNL     1       2.952  -5.393   5.910  0.00  0.00    +0.091 C 
ATOM      5  C   UNL     1       2.502  -6.346   4.754  0.00  0.00    +0.194 C 
ATOM      6  C   UNL     1       2.796  -5.543   3.518  0.00  0.00    +0.243 C 
ATOM      7  O   UNL     1       3.348  -6.001   2.539  0.00  0.00    -0.273 OA
ATOM      8  N   UNL     1       3.364  -7.484   5.054  0.00  0.00    -0.210 N 
ATOM      9  N   UNL     1       3.440  -7.517   6.467  0.00  0.00    -0.164 NA
ATOM     10  C   UNL     1       3.209  -6.377   6.999  0.00  0.00    +0.176 C 
ENDROOT
BRANCH   1  14
ATOM     11  C   UNL     1       3.514  -1.588   0.606  0.00  0.00    -0.043 A 
ATOM     12  C   UNL     1       2.182  -1.927   0.760  0.00  0.00    +0.006 A 
ATOM     13  C   UNL     1       1.803  -2.808   1.755  0.00  0.00    +0.024 A 
ATOM     14  C   UNL     1       2.761  -3.354   2.599  0.00  0.00    +0.036 A 
ATOM     15  C   UNL     1       4.098  -3.011   2.441  0.00  0.00    +0.024 A 
ATOM     16  C   UNL     1       4.471  -2.134   1.442  0.00  0.00    +0.006 A 
BRANCH  11  17
ATOM     17  C   UNL     1       3.924  -0.627  -0.480  0.00  0.00    -0.019 C 
ATOM     18  C   UNL     1       4.013  -1.170  -1.908  0.00  0.00    +0.010 C 
ATOM     19  C   UNL     1       5.291  -0.840  -1.133  0.00  0.00    +0.010 C 
BRANCH  17  20
ATOM     20  C   UNL     1       3.443   0.815  -0.301  0.00  0.00    -0.071 C 
BRANCH  20  22
ATOM     21  C   UNL     1       3.882   2.904   0.792  0.00  0.00    -0.100 C 
ATOM     22  N   UNL     1       4.328   1.513   0.641  0.00  0.00    +0.378 N 
ATOM     23  H   UNL     1       5.273   1.499   0.287  0.00  0.00    -0.086 HD
ATOM     24  H   UNL     1       4.297   1.050   1.537  0.00  0.00    -0.086 HD
ENDBRANCH  20  22
ENDBRANCH  17  20
ENDBRANCH  11  17
ENDBRANCH   1  14
BRANCH   8  25
ATOM     25  C   UNL     1       3.978  -8.352   4.145  0.00  0.00    +0.053 A 
ATOM     26  C   UNL     1       5.327  -8.655   4.278  0.00  0.00    +0.028 A 
ATOM     27  C   UNL     1       5.933  -9.513   3.380  0.00  0.00    +0.047 A 
ATOM     28  C   UNL     1       5.194 -10.070   2.347  0.00  0.00    +0.120 A 
ATOM     29  C   UNL     1       3.847  -9.768   2.214  0.00  0.00    +0.047 A 
ATOM     30  C   UNL     1       3.238  -8.915   3.114  0.00  0.00    +0.028 A 
BRANCH  28  31
ATOM     31  O   UNL     1       5.792 -10.914   1.463  0.00  0.00    -0.495 OA
ATOM     32  C   UNL     1       4.971 -11.452   0.424  0.00  0.00    +0.277 C 
ENDBRANCH  28  31
ENDBRANCH   8  25
BRANCH  10  33
ATOM     33  S   UNL     1       3.209  -6.037   8.728  0.00  0.00    +0.009 S 
ATOM     34  O   UNL     1       2.266  -4.987   8.891  0.00  0.00    -0.168 OA
ATOM     35  O   UNL     1       3.002  -7.300   9.346  0.00  0.00    -0.168 OA
ATOM     36  C   UNL     1       4.883  -5.435   9.084  0.00  0.00    +0.201 C 
ENDBRANCH  10  33
TORSDOF 7
