REMARK  Name = ZINC39242914
REMARK  8 active torsions:
REMARK  status: ('A' for Active; 'I' for Inactive)
REMARK    1  A    between atoms: C_1  and  C_2
REMARK    2  A    between atoms: C_2  and  C_3
REMARK    3  A    between atoms: C_3  and  C_5
REMARK    4  A    between atoms: C_3  and  S_18
REMARK    5  A    between atoms: N_7  and  C_8
REMARK    6  A    between atoms: C_11  and  N_14
REMARK    7  A    between atoms: C_15  and  C_17
REMARK    8  A    between atoms: S_18  and  C_19
REMARK                            x       y       z     vdW  Elec       q    Type
REMARK                         _______ _______ _______ _____ _____    ______ ____
ROOT
ATOM      1  C   UNL     1      -1.613  -0.765   0.216  0.00  0.00    +0.140 C 
ENDROOT
BRANCH   1   2
ATOM      2  C   UNL     1      -1.367  -2.241   0.032  0.00  0.00    +0.231 C 
ATOM      3  O   UNL     1      -1.418  -2.988   0.986  0.00  0.00    -0.274 OA
ATOM      4  N   UNL     1      -1.089  -2.730  -1.193  0.00  0.00    -0.285 N 
ATOM      5  H   UNL     1      -1.115  -2.145  -1.966  0.00  0.00    +0.155 HD
BRANCH   4   6
ATOM      6  C   UNL     1      -0.762  -4.083  -1.349  0.00  0.00    +0.034 A 
ATOM      7  C   UNL     1      -1.072  -4.740  -2.533  0.00  0.00    +0.025 A 
ATOM      8  C   UNL     1      -0.750  -6.073  -2.687  0.00  0.00    +0.025 A 
ATOM      9  C   UNL     1      -0.116  -6.758  -1.659  0.00  0.00    +0.033 A 
ATOM     10  C   UNL     1       0.194  -6.101  -0.475  0.00  0.00    +0.025 A 
ATOM     11  C   UNL     1      -0.123  -4.766  -0.323  0.00  0.00    +0.025 A 
BRANCH   9  12
ATOM     12  N   UNL     1       0.210  -8.111  -1.815  0.00  0.00    -0.286 N 
ATOM     13  C   UNL     1       0.171  -8.941  -0.753  0.00  0.00    +0.214 C 
ATOM     14  O   UNL     1      -0.224  -8.534   0.320  0.00  0.00    -0.276 OA
ATOM     15  C   UNL     1       0.616 -10.373  -0.899  0.00  0.00    +0.109 C 
ATOM     16  H   UNL     1       0.465  -8.451  -2.687  0.00  0.00    +0.155 HD
ENDBRANCH   9  12
ENDBRANCH   4   6
ENDBRANCH   1   2
BRANCH   1  18
ATOM     17  C   UNL     1      -0.525   1.481   0.321  0.00  0.00    +0.005 C 
ATOM     18  C   UNL     1      -0.274  -0.027   0.267  0.00  0.00    +0.020 C 
ENDBRANCH   1  18
BRANCH   1  19
ATOM     19  S   UNL     1      -2.514  -0.492   1.767  0.00  0.00    -0.072 S 
BRANCH  19  20
ATOM     20  C   UNL     1      -4.088  -1.231   1.482  0.00  0.00    +0.208 C 
ATOM     21  N   UNL     1      -4.274  -1.871   0.352  0.00  0.00    -0.227 NA
ATOM     22  C   UNL     1      -5.606  -2.413   0.090  0.00  0.00    +0.252 C 
ATOM     23  C   UNL     1      -6.223  -2.709   1.449  0.00  0.00    +0.117 C 
ATOM     24  C   UNL     1      -6.709  -3.978   1.361  0.00  0.00    +0.025 A 
ATOM     25  C   UNL     1      -7.478  -4.767   2.253  0.00  0.00    +0.012 A 
ATOM     26  C   UNL     1      -7.792  -6.030   1.859  0.00  0.00    +0.001 A 
ATOM     27  C   UNL     1      -7.405  -6.592   0.638  0.00  0.00    +0.002 A 
ATOM     28  C   UNL     1      -6.673  -5.927  -0.295  0.00  0.00    +0.026 A 
ATOM     29  C   UNL     1      -6.292  -4.546   0.042  0.00  0.00    +0.046 A 
ATOM     30  N   UNL     1      -5.622  -3.670  -0.644  0.00  0.00    -0.358 N 
ATOM     31  N   UNL     1      -6.096  -1.854   2.469  0.00  0.00    -0.147 NA
ATOM     32  N   UNL     1      -5.034  -1.110   2.444  0.00  0.00    -0.122 NA
ATOM     33  H   UNL     1      -5.203  -3.828  -1.504  0.00  0.00    +0.162 HD
ENDBRANCH  19  20
ENDBRANCH   1  19
TORSDOF 6
